MODEL 1
REMARK VINA RESULT:    -6.749      0.000      0.000
REMARK INTER + INTRA:          -9.826
REMARK INTER:                  -8.722
REMARK INTRA:                  -1.104
REMARK UNBOUND:                -1.104
REMARK  Name = 
REMARK  7 active torsions:
REMARK  status: ('A' for Active; 'I' for Inactive)
REMARK    1  A    between atoms: C_1  and  C_2
REMARK    2  A    between atoms: C_2  and  C_3
REMARK    3  A    between atoms: C_2  and  C_4
REMARK    4  A    between atoms: C_2  and  C_22
REMARK    5  A    between atoms: C_4  and  N_5
REMARK    6  A    between atoms: C_10  and  C_11
REMARK    7  A    between atoms: C_14  and  C_15
REMARK                            x       y       z     vdW  Elec       q    Type
REMARK                         _______ _______ _______ _____ _____    ______ ____
ROOT
ATOM      1  N   UNL     1      49.600   5.945  16.779  0.00  0.00    +0.000 N 
ATOM      2  C   UNL     1      49.438   6.534  15.540  0.00  0.00    +0.000 A 
ATOM      3  C   UNL     1      50.379   7.388  14.980  0.00  0.00    +0.000 A 
ATOM      4  C   UNL     1      50.174   7.906  13.709  0.00  0.00    +0.000 A 
ATOM      5  C   UNL     1      49.055   7.507  12.997  0.00  0.00    +0.000 A 
ATOM      6  C   UNL     1      48.157   6.616  13.583  0.00  0.00    +0.000 A 
ATOM      7  N   UNL     1      48.330   6.166  14.860  0.00  0.00    +0.000 NA
ATOM      8  H   UNL     1      48.696   5.716  17.186  0.00  0.00    +0.000 HD
ENDROOT
BRANCH   6   9
ATOM      9  C   UNL     1      47.012   6.064  12.816  0.00  0.00    +0.000 A 
ATOM     10  C   UNL     1      46.672   6.513  11.540  0.00  0.00    +0.000 A 
ATOM     11  C   UNL     1      45.539   5.996  10.906  0.00  0.00    +0.000 A 
ATOM     12  C   UNL     1      44.756   5.039  11.553  0.00  0.00    +0.000 A 
ATOM     13  C   UNL     1      45.162   4.637  12.814  0.00  0.00    +0.000 A 
ATOM     14  N   UNL     1      46.257   5.119  13.447  0.00  0.00    +0.000 NA
BRANCH  12  15
ATOM     15  C   UNL     1      43.518   4.452  10.954  0.00  0.00    +0.000 C 
ATOM     16  F   UNL     1      42.375   5.095  11.323  0.00  0.00    +0.000 F 
ATOM     17  F   UNL     1      43.536   4.476   9.593  0.00  0.00    +0.000 F 
ATOM     18  F   UNL     1      43.338   3.147  11.301  0.00  0.00    +0.000 F 
ENDBRANCH  12  15
ENDBRANCH   6   9
BRANCH   1  19
ATOM     19  C   UNL     1      50.697   6.303  17.669  0.00  0.00    +0.000 C 
BRANCH  19  21
ATOM     20  C   UNL     1      51.882   5.919  19.881  0.00  0.00    +0.000 C 
ATOM     21  C   UNL     1      50.868   5.332  18.872  0.00  0.00    +0.000 C 
ATOM     22  C   UNL     1      49.504   5.244  19.598  0.00  0.00    +0.000 C 
BRANCH  21  23
ATOM     23  C   UNL     1      51.228   3.936  18.359  0.00  0.00    +0.000 A 
ATOM     24  C   UNL     1      52.496   3.377  18.501  0.00  0.00    +0.000 A 
ATOM     25  C   UNL     1      52.745   2.102  17.994  0.00  0.00    +0.000 A 
ATOM     26  C   UNL     1      51.729   1.409  17.354  0.00  0.00    +0.000 A 
ATOM     27  C   UNL     1      50.496   2.022  17.255  0.00  0.00    +0.000 A 
ATOM     28  N   UNL     1      50.227   3.251  17.745  0.00  0.00    +0.000 NA
ENDBRANCH  21  23
ENDBRANCH  19  21
ENDBRANCH   1  19
TORSDOF 5
ENDMDL
MODEL 2
REMARK VINA RESULT:    -6.627      4.570      8.810
REMARK INTER + INTRA:          -9.668
REMARK INTER:                  -8.858
REMARK INTRA:                  -0.810
REMARK UNBOUND:                -1.104
REMARK  Name = 
REMARK  7 active torsions:
REMARK  status: ('A' for Active; 'I' for Inactive)
REMARK    1  A    between atoms: C_1  and  C_2
REMARK    2  A    between atoms: C_2  and  C_3
REMARK    3  A    between atoms: C_2  and  C_4
REMARK    4  A    between atoms: C_2  and  C_22
REMARK    5  A    between atoms: C_4  and  N_5
REMARK    6  A    between atoms: C_10  and  C_11
REMARK    7  A    between atoms: C_14  and  C_15
REMARK                            x       y       z     vdW  Elec       q    Type
REMARK                         _______ _______ _______ _____ _____    ______ ____
ROOT
ATOM      1  N   UNL     1      46.556   5.569  12.517  0.00  0.00    +0.000 N 
ATOM      2  C   UNL     1      47.211   6.566  13.213  0.00  0.00    +0.000 A 
ATOM      3  C   UNL     1      46.808   7.895  13.188  0.00  0.00    +0.000 A 
ATOM      4  C   UNL     1      47.482   8.838  13.951  0.00  0.00    +0.000 A 
ATOM      5  C   UNL     1      48.515   8.417  14.773  0.00  0.00    +0.000 A 
ATOM      6  C   UNL     1      48.860   7.067  14.797  0.00  0.00    +0.000 A 
ATOM      7  N   UNL     1      48.236   6.157  13.992  0.00  0.00    +0.000 NA
ATOM      8  H   UNL     1      47.190   4.799  12.318  0.00  0.00    +0.000 HD
ENDROOT
BRANCH   6   9
ATOM      9  C   UNL     1      49.872   6.549  15.752  0.00  0.00    +0.000 A 
ATOM     10  C   UNL     1      51.166   7.063  15.832  0.00  0.00    +0.000 A 
ATOM     11  C   UNL     1      52.087   6.480  16.706  0.00  0.00    +0.000 A 
ATOM     12  C   UNL     1      51.707   5.389  17.489  0.00  0.00    +0.000 A 
ATOM     13  C   UNL     1      50.404   4.941  17.361  0.00  0.00    +0.000 A 
ATOM     14  N   UNL     1      49.492   5.491  16.526  0.00  0.00    +0.000 NA
BRANCH  12  15
ATOM     15  C   UNL     1      52.637   4.694  18.433  0.00  0.00    +0.000 C 
ATOM     16  F   UNL     1      51.999   3.938  19.369  0.00  0.00    +0.000 F 
ATOM     17  F   UNL     1      53.494   3.851  17.793  0.00  0.00    +0.000 F 
ATOM     18  F   UNL     1      53.421   5.564  19.129  0.00  0.00    +0.000 F 
ENDBRANCH  12  15
ENDBRANCH   6   9
BRANCH   1  19
ATOM     19  C   UNL     1      45.487   5.859  11.571  0.00  0.00    +0.000 C 
BRANCH  19  21
ATOM     20  C   UNL     1      44.527   3.678  12.448  0.00  0.00    +0.000 C 
ATOM     21  C   UNL     1      44.603   4.626  11.229  0.00  0.00    +0.000 C 
ATOM     22  C   UNL     1      43.167   5.140  10.963  0.00  0.00    +0.000 C 
BRANCH  21  23
ATOM     23  C   UNL     1      45.118   3.963   9.949  0.00  0.00    +0.000 A 
ATOM     24  C   UNL     1      45.646   4.684   8.879  0.00  0.00    +0.000 A 
ATOM     25  C   UNL     1      46.082   4.004   7.742  0.00  0.00    +0.000 A 
ATOM     26  C   UNL     1      45.984   2.622   7.691  0.00  0.00    +0.000 A 
ATOM     27  C   UNL     1      45.459   1.973   8.790  0.00  0.00    +0.000 A 
ATOM     28  N   UNL     1      45.036   2.607   9.906  0.00  0.00    +0.000 NA
ENDBRANCH  21  23
ENDBRANCH  19  21
ENDBRANCH   1  19
TORSDOF 5
ENDMDL
MODEL 3
REMARK VINA RESULT:    -6.547      2.141      3.081
REMARK INTER + INTRA:          -9.565
REMARK INTER:                  -8.328
REMARK INTRA:                  -1.236
REMARK UNBOUND:                -1.104
REMARK  Name = 
REMARK  7 active torsions:
REMARK  status: ('A' for Active; 'I' for Inactive)
REMARK    1  A    between atoms: C_1  and  C_2
REMARK    2  A    between atoms: C_2  and  C_3
REMARK    3  A    between atoms: C_2  and  C_4
REMARK    4  A    between atoms: C_2  and  C_22
REMARK    5  A    between atoms: C_4  and  N_5
REMARK    6  A    between atoms: C_10  and  C_11
REMARK    7  A    between atoms: C_14  and  C_15
REMARK                            x       y       z     vdW  Elec       q    Type
REMARK                         _______ _______ _______ _____ _____    ______ ____
ROOT
ATOM      1  N   UNL     1      48.900   7.002  14.843  0.00  0.00    +0.000 N 
ATOM      2  C   UNL     1      47.789   7.338  14.095  0.00  0.00    +0.000 A 
ATOM      3  C   UNL     1      47.280   8.628  14.034  0.00  0.00    +0.000 A 
ATOM      4  C   UNL     1      46.189   8.905  13.222  0.00  0.00    +0.000 A 
ATOM      5  C   UNL     1      45.666   7.890  12.437  0.00  0.00    +0.000 A 
ATOM      6  C   UNL     1      46.234   6.619  12.499  0.00  0.00    +0.000 A 
ATOM      7  N   UNL     1      47.264   6.339  13.352  0.00  0.00    +0.000 NA
ATOM      8  H   UNL     1      48.876   6.017  15.096  0.00  0.00    +0.000 HD
ENDROOT
BRANCH   6   9
ATOM      9  C   UNL     1      45.791   5.534  11.587  0.00  0.00    +0.000 A 
ATOM     10  C   UNL     1      45.307   4.311  12.050  0.00  0.00    +0.000 A 
ATOM     11  C   UNL     1      44.973   3.311  11.134  0.00  0.00    +0.000 A 
ATOM     12  C   UNL     1      45.129   3.541   9.766  0.00  0.00    +0.000 A 
ATOM     13  C   UNL     1      45.607   4.782   9.383  0.00  0.00    +0.000 A 
ATOM     14  N   UNL     1      45.932   5.769  10.250  0.00  0.00    +0.000 NA
BRANCH  12  15
ATOM     15  C   UNL     1      44.817   2.517   8.721  0.00  0.00    +0.000 C 
ATOM     16  F   UNL     1      44.136   3.017   7.653  0.00  0.00    +0.000 F 
ATOM     17  F   UNL     1      45.937   1.936   8.210  0.00  0.00    +0.000 F 
ATOM     18  F   UNL     1      44.055   1.495   9.202  0.00  0.00    +0.000 F 
ENDBRANCH  12  15
ENDBRANCH   6   9
BRANCH   1  19
ATOM     19  C   UNL     1      49.529   7.944  15.760  0.00  0.00    +0.000 C 
BRANCH  19  21
ATOM     20  C   UNL     1      50.782   8.005  17.967  0.00  0.00    +0.000 C 
ATOM     21  C   UNL     1      49.526   7.472  17.242  0.00  0.00    +0.000 C 
ATOM     22  C   UNL     1      48.296   8.112  17.932  0.00  0.00    +0.000 C 
BRANCH  21  23
ATOM     23  C   UNL     1      49.366   5.951  17.296  0.00  0.00    +0.000 A 
ATOM     24  C   UNL     1      50.443   5.078  17.449  0.00  0.00    +0.000 A 
ATOM     25  C   UNL     1      50.213   3.703  17.477  0.00  0.00    +0.000 A 
ATOM     26  C   UNL     1      48.918   3.223  17.350  0.00  0.00    +0.000 A 
ATOM     27  C   UNL     1      47.901   4.144  17.209  0.00  0.00    +0.000 A 
ATOM     28  N   UNL     1      48.095   5.481  17.188  0.00  0.00    +0.000 NA
ENDBRANCH  21  23
ENDBRANCH  19  21
ENDBRANCH   1  19
TORSDOF 5
ENDMDL
MODEL 4
REMARK VINA RESULT:    -6.505      3.407      5.528
REMARK INTER + INTRA:          -9.510
REMARK INTER:                  -8.439
REMARK INTRA:                  -1.072
REMARK UNBOUND:                -1.104
REMARK  Name = 
REMARK  7 active torsions:
REMARK  status: ('A' for Active; 'I' for Inactive)
REMARK    1  A    between atoms: C_1  and  C_2
REMARK    2  A    between atoms: C_2  and  C_3
REMARK    3  A    between atoms: C_2  and  C_4
REMARK    4  A    between atoms: C_2  and  C_22
REMARK    5  A    between atoms: C_4  and  N_5
REMARK    6  A    between atoms: C_10  and  C_11
REMARK    7  A    between atoms: C_14  and  C_15
REMARK                            x       y       z     vdW  Elec       q    Type
REMARK                         _______ _______ _______ _____ _____    ______ ____
ROOT
ATOM      1  N   UNL     1      47.352   7.452  12.744  0.00  0.00    +0.000 N 
ATOM      2  C   UNL     1      46.223   6.835  12.244  0.00  0.00    +0.000 A 
ATOM      3  C   UNL     1      44.937   7.163  12.654  0.00  0.00    +0.000 A 
ATOM      4  C   UNL     1      43.844   6.537  12.073  0.00  0.00    +0.000 A 
ATOM      5  C   UNL     1      44.059   5.634  11.044  0.00  0.00    +0.000 A 
ATOM      6  C   UNL     1      45.365   5.365  10.636  0.00  0.00    +0.000 A 
ATOM      7  N   UNL     1      46.438   5.934  11.260  0.00  0.00    +0.000 NA
ATOM      8  H   UNL     1      48.160   6.840  12.660  0.00  0.00    +0.000 HD
ENDROOT
BRANCH   6   9
ATOM      9  C   UNL     1      45.640   4.504   9.459  0.00  0.00    +0.000 A 
ATOM     10  C   UNL     1      45.220   3.177   9.381  0.00  0.00    +0.000 A 
ATOM     11  C   UNL     1      45.575   2.404   8.272  0.00  0.00    +0.000 A 
ATOM     12  C   UNL     1      46.348   2.965   7.254  0.00  0.00    +0.000 A 
ATOM     13  C   UNL     1      46.719   4.290   7.397  0.00  0.00    +0.000 A 
ATOM     14  N   UNL     1      46.384   5.060   8.459  0.00  0.00    +0.000 NA
BRANCH  12  15
ATOM     15  C   UNL     1      46.789   2.203   6.045  0.00  0.00    +0.000 C 
ATOM     16  F   UNL     1      48.076   2.457   5.679  0.00  0.00    +0.000 F 
ATOM     17  F   UNL     1      46.711   0.855   6.222  0.00  0.00    +0.000 F 
ATOM     18  F   UNL     1      46.029   2.477   4.948  0.00  0.00    +0.000 F 
ENDBRANCH  12  15
ENDBRANCH   6   9
BRANCH   1  19
ATOM     19  C   UNL     1      47.294   8.384  13.864  0.00  0.00    +0.000 C 
BRANCH  19  21
ATOM     20  C   UNL     1      49.831   8.340  13.765  0.00  0.00    +0.000 C 
ATOM     21  C   UNL     1      48.604   8.439  14.700  0.00  0.00    +0.000 C 
ATOM     22  C   UNL     1      48.663   9.827  15.383  0.00  0.00    +0.000 C 
BRANCH  21  23
ATOM     23  C   UNL     1      48.560   7.369  15.795  0.00  0.00    +0.000 A 
ATOM     24  C   UNL     1      48.762   7.654  17.144  0.00  0.00    +0.000 A 
ATOM     25  C   UNL     1      48.718   6.619  18.077  0.00  0.00    +0.000 A 
ATOM     26  C   UNL     1      48.475   5.322  17.651  0.00  0.00    +0.000 A 
ATOM     27  C   UNL     1      48.277   5.115  16.301  0.00  0.00    +0.000 A 
ATOM     28  N   UNL     1      48.306   6.101  15.378  0.00  0.00    +0.000 NA
ENDBRANCH  21  23
ENDBRANCH  19  21
ENDBRANCH   1  19
TORSDOF 5
ENDMDL
MODEL 5
REMARK VINA RESULT:    -6.467      3.329      5.428
REMARK INTER + INTRA:          -9.462
REMARK INTER:                  -8.453
REMARK INTRA:                  -1.009
REMARK UNBOUND:                -1.104
REMARK  Name = 
REMARK  7 active torsions:
REMARK  status: ('A' for Active; 'I' for Inactive)
REMARK    1  A    between atoms: C_1  and  C_2
REMARK    2  A    between atoms: C_2  and  C_3
REMARK    3  A    between atoms: C_2  and  C_4
REMARK    4  A    between atoms: C_2  and  C_22
REMARK    5  A    between atoms: C_4  and  N_5
REMARK    6  A    between atoms: C_10  and  C_11
REMARK    7  A    between atoms: C_14  and  C_15
REMARK                            x       y       z     vdW  Elec       q    Type
REMARK                         _______ _______ _______ _____ _____    ______ ____
ROOT
ATOM      1  N   UNL     1      46.545   4.053  14.204  0.00  0.00    +0.000 N 
ATOM      2  C   UNL     1      45.598   4.332  13.239  0.00  0.00    +0.000 A 
ATOM      3  C   UNL     1      44.492   5.137  13.477  0.00  0.00    +0.000 A 
ATOM      4  C   UNL     1      43.605   5.417  12.446  0.00  0.00    +0.000 A 
ATOM      5  C   UNL     1      43.879   4.931  11.178  0.00  0.00    +0.000 A 
ATOM      6  C   UNL     1      45.023   4.160  10.977  0.00  0.00    +0.000 A 
ATOM      7  N   UNL     1      45.853   3.833  12.011  0.00  0.00    +0.000 NA
ATOM      8  H   UNL     1      47.012   3.173  14.001  0.00  0.00    +0.000 HD
ENDROOT
BRANCH   6   9
ATOM      9  C   UNL     1      45.425   3.723   9.616  0.00  0.00    +0.000 A 
ATOM     10  C   UNL     1      45.437   2.385   9.227  0.00  0.00    +0.000 A 
ATOM     11  C   UNL     1      45.894   2.041   7.952  0.00  0.00    +0.000 A 
ATOM     12  C   UNL     1      46.335   3.038   7.080  0.00  0.00    +0.000 A 
ATOM     13  C   UNL     1      46.285   4.344   7.534  0.00  0.00    +0.000 A 
ATOM     14  N   UNL     1      45.843   4.703   8.762  0.00  0.00    +0.000 NA
BRANCH  12  15
ATOM     15  C   UNL     1      46.859   2.754   5.708  0.00  0.00    +0.000 C 
ATOM     16  F   UNL     1      47.083   3.874   4.967  0.00  0.00    +0.000 F 
ATOM     17  F   UNL     1      48.042   2.080   5.731  0.00  0.00    +0.000 F 
ATOM     18  F   UNL     1      46.008   1.985   4.972  0.00  0.00    +0.000 F 
ENDBRANCH  12  15
ENDBRANCH   6   9
BRANCH   1  19
ATOM     19  C   UNL     1      46.372   4.448  15.597  0.00  0.00    +0.000 C 
BRANCH  19  21
ATOM     20  C   UNL     1      47.236   4.095  17.958  0.00  0.00    +0.000 C 
ATOM     21  C   UNL     1      47.639   4.228  16.471  0.00  0.00    +0.000 C 
ATOM     22  C   UNL     1      48.268   2.878  16.049  0.00  0.00    +0.000 C 
BRANCH  21  23
ATOM     23  C   UNL     1      48.656   5.337  16.191  0.00  0.00    +0.000 A 
ATOM     24  C   UNL     1      49.730   5.614  17.035  0.00  0.00    +0.000 A 
ATOM     25  C   UNL     1      50.605   6.651  16.714  0.00  0.00    +0.000 A 
ATOM     26  C   UNL     1      50.394   7.393  15.561  0.00  0.00    +0.000 A 
ATOM     27  C   UNL     1      49.314   7.058  14.769  0.00  0.00    +0.000 A 
ATOM     28  N   UNL     1      48.457   6.054  15.054  0.00  0.00    +0.000 NA
ENDBRANCH  21  23
ENDBRANCH  19  21
ENDBRANCH   1  19
TORSDOF 5
ENDMDL
MODEL 6
REMARK VINA RESULT:    -6.310      4.363      6.241
REMARK INTER + INTRA:          -9.259
REMARK INTER:                  -8.200
REMARK INTRA:                  -1.059
REMARK UNBOUND:                -1.104
REMARK  Name = 
REMARK  7 active torsions:
REMARK  status: ('A' for Active; 'I' for Inactive)
REMARK    1  A    between atoms: C_1  and  C_2
REMARK    2  A    between atoms: C_2  and  C_3
REMARK    3  A    between atoms: C_2  and  C_4
REMARK    4  A    between atoms: C_2  and  C_22
REMARK    5  A    between atoms: C_4  and  N_5
REMARK    6  A    between atoms: C_10  and  C_11
REMARK    7  A    between atoms: C_14  and  C_15
REMARK                            x       y       z     vdW  Elec       q    Type
REMARK                         _______ _______ _______ _____ _____    ______ ____
ROOT
ATOM      1  N   UNL     1      47.256   7.390  12.795  0.00  0.00    +0.000 N 
ATOM      2  C   UNL     1      46.136   6.804  12.241  0.00  0.00    +0.000 A 
ATOM      3  C   UNL     1      44.842   7.184  12.572  0.00  0.00    +0.000 A 
ATOM      4  C   UNL     1      43.761   6.586  11.940  0.00  0.00    +0.000 A 
ATOM      5  C   UNL     1      44.002   5.656  10.941  0.00  0.00    +0.000 A 
ATOM      6  C   UNL     1      45.317   5.333  10.614  0.00  0.00    +0.000 A 
ATOM      7  N   UNL     1      46.374   5.877  11.288  0.00  0.00    +0.000 NA
ATOM      8  H   UNL     1      48.045   6.749  12.768  0.00  0.00    +0.000 HD
ENDROOT
BRANCH   6   9
ATOM      9  C   UNL     1      45.627   4.440   9.469  0.00  0.00    +0.000 A 
ATOM     10  C   UNL     1      45.304   3.084   9.462  0.00  0.00    +0.000 A 
ATOM     11  C   UNL     1      45.688   2.288   8.380  0.00  0.00    +0.000 A 
ATOM     12  C   UNL     1      46.394   2.855   7.318  0.00  0.00    +0.000 A 
ATOM     13  C   UNL     1      46.671   4.208   7.392  0.00  0.00    +0.000 A 
ATOM     14  N   UNL     1      46.306   5.001   8.426  0.00  0.00    +0.000 NA
BRANCH  12  15
ATOM     15  C   UNL     1      46.861   2.070   6.133  0.00  0.00    +0.000 C 
ATOM     16  F   UNL     1      46.745   0.722   6.291  0.00  0.00    +0.000 F 
ATOM     17  F   UNL     1      46.168   2.374   5.001  0.00  0.00    +0.000 F 
ATOM     18  F   UNL     1      48.172   2.298   5.838  0.00  0.00    +0.000 F 
ENDBRANCH  12  15
ENDBRANCH   6   9
BRANCH   1  19
ATOM     19  C   UNL     1      47.169   8.345  13.893  0.00  0.00    +0.000 C 
BRANCH  19  21
ATOM     20  C   UNL     1      48.259   9.432  15.912  0.00  0.00    +0.000 C 
ATOM     21  C   UNL     1      48.463   8.431  14.751  0.00  0.00    +0.000 C 
ATOM     22  C   UNL     1      48.696   7.039  15.386  0.00  0.00    +0.000 C 
BRANCH  21  23
ATOM     23  C   UNL     1      49.657   8.750  13.849  0.00  0.00    +0.000 A 
ATOM     24  C   UNL     1      50.971   8.424  14.182  0.00  0.00    +0.000 A 
ATOM     25  C   UNL     1      52.004   8.761  13.309  0.00  0.00    +0.000 A 
ATOM     26  C   UNL     1      51.712   9.417  12.123  0.00  0.00    +0.000 A 
ATOM     27  C   UNL     1      50.389   9.703  11.854  0.00  0.00    +0.000 A 
ATOM     28  N   UNL     1      49.368   9.380  12.679  0.00  0.00    +0.000 NA
ENDBRANCH  21  23
ENDBRANCH  19  21
ENDBRANCH   1  19
TORSDOF 5
ENDMDL
MODEL 7
REMARK VINA RESULT:    -6.108      1.409      2.157
REMARK INTER + INTRA:          -8.997
REMARK INTER:                  -7.858
REMARK INTRA:                  -1.139
REMARK UNBOUND:                -1.104
REMARK  Name = 
REMARK  7 active torsions:
REMARK  status: ('A' for Active; 'I' for Inactive)
REMARK    1  A    between atoms: C_1  and  C_2
REMARK    2  A    between atoms: C_2  and  C_3
REMARK    3  A    between atoms: C_2  and  C_4
REMARK    4  A    between atoms: C_2  and  C_22
REMARK    5  A    between atoms: C_4  and  N_5
REMARK    6  A    between atoms: C_10  and  C_11
REMARK    7  A    between atoms: C_14  and  C_15
REMARK                            x       y       z     vdW  Elec       q    Type
REMARK                         _______ _______ _______ _____ _____    ______ ____
ROOT
ATOM      1  N   UNL     1      50.524   7.003  15.280  0.00  0.00    +0.000 N 
ATOM      2  C   UNL     1      49.914   7.403  14.108  0.00  0.00    +0.000 A 
ATOM      3  C   UNL     1      50.482   8.322  13.236  0.00  0.00    +0.000 A 
ATOM      4  C   UNL     1      49.836   8.643  12.050  0.00  0.00    +0.000 A 
ATOM      5  C   UNL     1      48.657   7.988  11.733  0.00  0.00    +0.000 A 
ATOM      6  C   UNL     1      48.143   7.043  12.620  0.00  0.00    +0.000 A 
ATOM      7  N   UNL     1      48.750   6.783  13.816  0.00  0.00    +0.000 NA
ATOM      8  H   UNL     1      49.831   6.683  15.953  0.00  0.00    +0.000 HD
ENDROOT
BRANCH   6   9
ATOM      9  C   UNL     1      46.954   6.226  12.269  0.00  0.00    +0.000 A 
ATOM     10  C   UNL     1      46.325   6.306  11.027  0.00  0.00    +0.000 A 
ATOM     11  C   UNL     1      45.168   5.559  10.791  0.00  0.00    +0.000 A 
ATOM     12  C   UNL     1      44.651   4.742  11.797  0.00  0.00    +0.000 A 
ATOM     13  C   UNL     1      45.335   4.708  13.000  0.00  0.00    +0.000 A 
ATOM     14  N   UNL     1      46.459   5.419  13.252  0.00  0.00    +0.000 NA
BRANCH  12  15
ATOM     15  C   UNL     1      43.406   3.928  11.634  0.00  0.00    +0.000 C 
ATOM     16  F   UNL     1      42.275   4.678  11.521  0.00  0.00    +0.000 F 
ATOM     17  F   UNL     1      43.443   3.139  10.525  0.00  0.00    +0.000 F 
ATOM     18  F   UNL     1      43.192   3.085  12.683  0.00  0.00    +0.000 F 
ENDBRANCH  12  15
ENDBRANCH   6   9
BRANCH   1  19
ATOM     19  C   UNL     1      51.740   7.636  15.776  0.00  0.00    +0.000 C 
BRANCH  19  21
ATOM     20  C   UNL     1      53.785   6.274  16.418  0.00  0.00    +0.000 C 
ATOM     21  C   UNL     1      52.437   6.842  16.918  0.00  0.00    +0.000 C 
ATOM     22  C   UNL     1      52.759   7.845  18.053  0.00  0.00    +0.000 C 
BRANCH  21  23
ATOM     23  C   UNL     1      51.476   5.787  17.472  0.00  0.00    +0.000 A 
ATOM     24  C   UNL     1      51.714   4.417  17.375  0.00  0.00    +0.000 A 
ATOM     25  C   UNL     1      50.782   3.521  17.896  0.00  0.00    +0.000 A 
ATOM     26  C   UNL     1      49.631   4.004  18.499  0.00  0.00    +0.000 A 
ATOM     27  C   UNL     1      49.464   5.372  18.566  0.00  0.00    +0.000 A 
ATOM     28  N   UNL     1      50.356   6.262  18.077  0.00  0.00    +0.000 NA
ENDBRANCH  21  23
ENDBRANCH  19  21
ENDBRANCH   1  19
TORSDOF 5
ENDMDL
MODEL 8
REMARK VINA RESULT:    -6.081      4.284      8.416
REMARK INTER + INTRA:          -8.962
REMARK INTER:                  -7.892
REMARK INTRA:                  -1.070
REMARK UNBOUND:                -1.104
REMARK  Name = 
REMARK  7 active torsions:
REMARK  status: ('A' for Active; 'I' for Inactive)
REMARK    1  A    between atoms: C_1  and  C_2
REMARK    2  A    between atoms: C_2  and  C_3
REMARK    3  A    between atoms: C_2  and  C_4
REMARK    4  A    between atoms: C_2  and  C_22
REMARK    5  A    between atoms: C_4  and  N_5
REMARK    6  A    between atoms: C_10  and  C_11
REMARK    7  A    between atoms: C_14  and  C_15
REMARK                            x       y       z     vdW  Elec       q    Type
REMARK                         _______ _______ _______ _____ _____    ______ ____
ROOT
ATOM      1  N   UNL     1      48.099   7.225  14.428  0.00  0.00    +0.000 N 
ATOM      2  C   UNL     1      48.758   7.196  15.641  0.00  0.00    +0.000 A 
ATOM      3  C   UNL     1      48.619   8.190  16.600  0.00  0.00    +0.000 A 
ATOM      4  C   UNL     1      49.273   8.073  17.819  0.00  0.00    +0.000 A 
ATOM      5  C   UNL     1      50.010   6.928  18.074  0.00  0.00    +0.000 A 
ATOM      6  C   UNL     1      50.090   5.937  17.097  0.00  0.00    +0.000 A 
ATOM      7  N   UNL     1      49.499   6.091  15.875  0.00  0.00    +0.000 NA
ATOM      8  H   UNL     1      48.609   6.687  13.732  0.00  0.00    +0.000 HD
ENDROOT
BRANCH   6   9
ATOM      9  C   UNL     1      50.761   4.641  17.370  0.00  0.00    +0.000 A 
ATOM     10  C   UNL     1      52.041   4.555  17.916  0.00  0.00    +0.000 A 
ATOM     11  C   UNL     1      52.637   3.302  18.081  0.00  0.00    +0.000 A 
ATOM     12  C   UNL     1      51.950   2.149  17.698  0.00  0.00    +0.000 A 
ATOM     13  C   UNL     1      50.680   2.314  17.173  0.00  0.00    +0.000 A 
ATOM     14  N   UNL     1      50.079   3.515  17.007  0.00  0.00    +0.000 NA
BRANCH  12  15
ATOM     15  C   UNL     1      52.524   0.773  17.820  0.00  0.00    +0.000 C 
ATOM     16  F   UNL     1      52.959   0.256  16.637  0.00  0.00    +0.000 F 
ATOM     17  F   UNL     1      53.594   0.729  18.662  0.00  0.00    +0.000 F 
ATOM     18  F   UNL     1      51.627  -0.126  18.311  0.00  0.00    +0.000 F 
ENDBRANCH  12  15
ENDBRANCH   6   9
BRANCH   1  19
ATOM     19  C   UNL     1      47.330   8.383  13.991  0.00  0.00    +0.000 C 
BRANCH  19  21
ATOM     20  C   UNL     1      46.385   9.738  12.063  0.00  0.00    +0.000 C 
ATOM     21  C   UNL     1      47.008   8.383  12.470  0.00  0.00    +0.000 C 
ATOM     22  C   UNL     1      48.351   8.255  11.710  0.00  0.00    +0.000 C 
BRANCH  21  23
ATOM     23  C   UNL     1      46.147   7.166  12.126  0.00  0.00    +0.000 A 
ATOM     24  C   UNL     1      46.346   6.390  10.986  0.00  0.00    +0.000 A 
ATOM     25  C   UNL     1      45.508   5.303  10.740  0.00  0.00    +0.000 A 
ATOM     26  C   UNL     1      44.488   5.010  11.631  0.00  0.00    +0.000 A 
ATOM     27  C   UNL     1      44.353   5.817  12.743  0.00  0.00    +0.000 A 
ATOM     28  N   UNL     1      45.156   6.870  13.009  0.00  0.00    +0.000 NA
ENDBRANCH  21  23
ENDBRANCH  19  21
ENDBRANCH   1  19
TORSDOF 5
ENDMDL
MODEL 9
REMARK VINA RESULT:    -5.831      4.666      6.371
REMARK INTER + INTRA:          -8.639
REMARK INTER:                  -7.455
REMARK INTRA:                  -1.184
REMARK UNBOUND:                -1.104
REMARK  Name = 
REMARK  7 active torsions:
REMARK  status: ('A' for Active; 'I' for Inactive)
REMARK    1  A    between atoms: C_1  and  C_2
REMARK    2  A    between atoms: C_2  and  C_3
REMARK    3  A    between atoms: C_2  and  C_4
REMARK    4  A    between atoms: C_2  and  C_22
REMARK    5  A    between atoms: C_4  and  N_5
REMARK    6  A    between atoms: C_10  and  C_11
REMARK    7  A    between atoms: C_14  and  C_15
REMARK                            x       y       z     vdW  Elec       q    Type
REMARK                         _______ _______ _______ _____ _____    ______ ____
ROOT
ATOM      1  N   UNL     1      51.305   7.656  11.829  0.00  0.00    +0.000 N 
ATOM      2  C   UNL     1      50.089   8.023  12.368  0.00  0.00    +0.000 A 
ATOM      3  C   UNL     1      49.829   9.300  12.849  0.00  0.00    +0.000 A 
ATOM      4  C   UNL     1      48.567   9.614  13.333  0.00  0.00    +0.000 A 
ATOM      5  C   UNL     1      47.569   8.656  13.270  0.00  0.00    +0.000 A 
ATOM      6  C   UNL     1      47.863   7.400  12.742  0.00  0.00    +0.000 A 
ATOM      7  N   UNL     1      49.125   7.077  12.331  0.00  0.00    +0.000 NA
ATOM      8  H   UNL     1      51.447   6.652  11.919  0.00  0.00    +0.000 HD
ENDROOT
BRANCH   6   9
ATOM      9  C   UNL     1      46.800   6.384  12.537  0.00  0.00    +0.000 A 
ATOM     10  C   UNL     1      46.488   5.417  13.491  0.00  0.00    +0.000 A 
ATOM     11  C   UNL     1      45.522   4.449  13.202  0.00  0.00    +0.000 A 
ATOM     12  C   UNL     1      44.880   4.457  11.962  0.00  0.00    +0.000 A 
ATOM     13  C   UNL     1      45.236   5.454  11.071  0.00  0.00    +0.000 A 
ATOM     14  N   UNL     1      46.165   6.404  11.329  0.00  0.00    +0.000 NA
BRANCH  12  15
ATOM     15  C   UNL     1      43.852   3.445  11.565  0.00  0.00    +0.000 C 
ATOM     16  F   UNL     1      43.601   2.515  12.528  0.00  0.00    +0.000 F 
ATOM     17  F   UNL     1      42.649   4.013  11.273  0.00  0.00    +0.000 F 
ATOM     18  F   UNL     1      44.211   2.743  10.455  0.00  0.00    +0.000 F 
ENDBRANCH  12  15
ENDBRANCH   6   9
BRANCH   1  19
ATOM     19  C   UNL     1      52.468   8.533  11.871  0.00  0.00    +0.000 C 
BRANCH  19  21
ATOM     20  C   UNL     1      52.033  10.016   9.856  0.00  0.00    +0.000 C 
ATOM     21  C   UNL     1      52.982   8.958  10.466  0.00  0.00    +0.000 C 
ATOM     22  C   UNL     1      54.358   9.641  10.660  0.00  0.00    +0.000 C 
BRANCH  21  23
ATOM     23  C   UNL     1      53.183   7.716   9.594  0.00  0.00    +0.000 A 
ATOM     24  C   UNL     1      52.837   7.670   8.245  0.00  0.00    +0.000 A 
ATOM     25  C   UNL     1      53.042   6.494   7.524  0.00  0.00    +0.000 A 
ATOM     26  C   UNL     1      53.585   5.388   8.159  0.00  0.00    +0.000 A 
ATOM     27  C   UNL     1      53.910   5.507   9.495  0.00  0.00    +0.000 A 
ATOM     28  N   UNL     1      53.730   6.637  10.214  0.00  0.00    +0.000 NA
ENDBRANCH  21  23
ENDBRANCH  19  21
ENDBRANCH   1  19
TORSDOF 5
ENDMDL
