MODEL 1
REMARK VINA RESULT:    -8.827      0.000      0.000
REMARK INTER + INTRA:         -12.184
REMARK INTER:                 -11.923
REMARK INTRA:                  -0.261
REMARK UNBOUND:                -0.261
REMARK  Name = 
REMARK  7 active torsions:
REMARK  status: ('A' for Active; 'I' for Inactive)
REMARK    1  A    between atoms: C_1  and  C_2
REMARK    2  A    between atoms: C_2  and  N_3
REMARK    3  A    between atoms: C_2  and  C_16
REMARK    4  A    between atoms: C_4  and  C_6
REMARK    5  A    between atoms: C_19  and  O_20
REMARK    6  A    between atoms: O_20  and  C_21
REMARK    7  A    between atoms: C_21  and  C_22
REMARK                            x       y       z     vdW  Elec       q    Type
REMARK                         _______ _______ _______ _____ _____    ______ ____
ROOT
ATOM      1  C   UNL     1      47.468   8.722  12.112  0.00  0.00    +0.000 C 
ATOM      2  C   UNL     1      46.425   7.908  12.885  0.00  0.00    +0.000 C 
ENDROOT
BRANCH   2   3
ATOM      3  C   UNL     1      45.780   6.798  12.075  0.00  0.00    +0.000 A 
ATOM      4  C   UNL     1      46.218   6.551  10.764  0.00  0.00    +0.000 A 
ATOM      5  C   UNL     1      45.624   5.540   9.996  0.00  0.00    +0.000 A 
ATOM      6  C   UNL     1      44.596   4.770  10.526  0.00  0.00    +0.000 A 
ATOM      7  C   UNL     1      44.114   5.054  11.804  0.00  0.00    +0.000 A 
ATOM      8  C   UNL     1      44.705   6.052  12.573  0.00  0.00    +0.000 A 
BRANCH   6   9
ATOM      9  O   UNL     1      44.119   3.767   9.726  0.00  0.00    +0.000 OA
BRANCH   9  10
ATOM     10  C   UNL     1      44.868   2.544   9.791  0.00  0.00    +0.000 C 
BRANCH  10  11
ATOM     11  C   UNL     1      45.641   2.342   8.513  0.00  0.00    +0.000 A 
ATOM     12  C   UNL     1      45.697   3.366   7.568  0.00  0.00    +0.000 A 
ATOM     13  C   UNL     1      46.452   3.178   6.420  0.00  0.00    +0.000 A 
ATOM     14  C   UNL     1      47.133   1.980   6.241  0.00  0.00    +0.000 A 
ATOM     15  C   UNL     1      47.034   1.018   7.233  0.00  0.00    +0.000 A 
ATOM     16  N   UNL     1      46.314   1.173   8.364  0.00  0.00    +0.000 NA
ENDBRANCH  10  11
ENDBRANCH   9  10
ENDBRANCH   6   9
ENDBRANCH   2   3
BRANCH   2  17
ATOM     17  N   UNL     1      47.012   7.333  14.079  0.00  0.00    +0.000 N 
ATOM     18  C   UNL     1      48.223   6.696  14.056  0.00  0.00    +0.000 C 
ATOM     19  O   UNL     1      48.904   6.612  13.037  0.00  0.00    +0.000 OA
ATOM     20  H   UNL     1      46.411   7.244  14.893  0.00  0.00    +0.000 HD
BRANCH  18  21
ATOM     21  C   UNL     1      48.706   6.173  15.335  0.00  0.00    +0.000 A 
ATOM     22  C   UNL     1      49.808   6.756  15.945  0.00  0.00    +0.000 A 
ATOM     23  S   UNL     1      50.226   6.029  17.432  0.00  0.00    +0.000 S 
ATOM     24  C   UNL     1      48.979   4.883  17.279  0.00  0.00    +0.000 A 
ATOM     25  N   UNL     1      48.788   3.908  18.201  0.00  0.00    +0.000 NA
ATOM     26  N   UNL     1      47.880   3.058  18.019  0.00  0.00    +0.000 NA
ATOM     27  N   UNL     1      47.086   3.155  16.909  0.00  0.00    +0.000 N 
ATOM     28  C   UNL     1      47.163   4.130  15.941  0.00  0.00    +0.000 A 
ATOM     29  O   UNL     1      46.372   4.184  15.004  0.00  0.00    +0.000 OA
ATOM     30  C   UNL     1      48.236   5.074  16.137  0.00  0.00    +0.000 A 
ATOM     31  H   UNL     1      46.363   2.453  16.825  0.00  0.00    +0.000 HD
ENDBRANCH  18  21
ENDBRANCH   2  17
TORSDOF 6
ENDMDL
MODEL 2
REMARK VINA RESULT:    -8.352      1.875      2.539
REMARK INTER + INTRA:         -11.542
REMARK INTER:                 -10.846
REMARK INTRA:                  -0.696
REMARK UNBOUND:                -0.261
REMARK  Name = 
REMARK  7 active torsions:
REMARK  status: ('A' for Active; 'I' for Inactive)
REMARK    1  A    between atoms: C_1  and  C_2
REMARK    2  A    between atoms: C_2  and  N_3
REMARK    3  A    between atoms: C_2  and  C_16
REMARK    4  A    between atoms: C_4  and  C_6
REMARK    5  A    between atoms: C_19  and  O_20
REMARK    6  A    between atoms: O_20  and  C_21
REMARK    7  A    between atoms: C_21  and  C_22
REMARK                            x       y       z     vdW  Elec       q    Type
REMARK                         _______ _______ _______ _____ _____    ______ ____
ROOT
ATOM      1  C   UNL     1      48.452   7.776  12.833  0.00  0.00    +0.000 C 
ATOM      2  C   UNL     1      47.357   6.963  13.533  0.00  0.00    +0.000 C 
ENDROOT
BRANCH   2   3
ATOM      3  C   UNL     1      46.526   6.104  12.596  0.00  0.00    +0.000 A 
ATOM      4  C   UNL     1      46.278   6.547  11.286  0.00  0.00    +0.000 A 
ATOM      5  C   UNL     1      45.500   5.775  10.413  0.00  0.00    +0.000 A 
ATOM      6  C   UNL     1      44.968   4.563  10.834  0.00  0.00    +0.000 A 
ATOM      7  C   UNL     1      45.159   4.150  12.152  0.00  0.00    +0.000 A 
ATOM      8  C   UNL     1      45.936   4.909  13.022  0.00  0.00    +0.000 A 
BRANCH   6   9
ATOM      9  O   UNL     1      44.274   3.849   9.894  0.00  0.00    +0.000 OA
BRANCH   9  10
ATOM     10  C   UNL     1      44.698   2.485   9.747  0.00  0.00    +0.000 C 
BRANCH  10  11
ATOM     11  C   UNL     1      45.565   2.341   8.523  0.00  0.00    +0.000 A 
ATOM     12  C   UNL     1      45.713   3.418   7.650  0.00  0.00    +0.000 A 
ATOM     13  C   UNL     1      46.553   3.281   6.554  0.00  0.00    +0.000 A 
ATOM     14  C   UNL     1      47.225   2.081   6.356  0.00  0.00    +0.000 A 
ATOM     15  C   UNL     1      47.031   1.064   7.276  0.00  0.00    +0.000 A 
ATOM     16  N   UNL     1      46.227   1.168   8.356  0.00  0.00    +0.000 NA
ENDBRANCH  10  11
ENDBRANCH   9  10
ENDBRANCH   6   9
ENDBRANCH   2   3
BRANCH   2  17
ATOM     17  N   UNL     1      47.933   6.113  14.557  0.00  0.00    +0.000 N 
ATOM     18  C   UNL     1      48.512   6.628  15.685  0.00  0.00    +0.000 C 
ATOM     19  O   UNL     1      48.539   7.833  15.919  0.00  0.00    +0.000 OA
ATOM     20  H   UNL     1      48.070   5.134  14.321  0.00  0.00    +0.000 HD
BRANCH  18  21
ATOM     21  C   UNL     1      49.042   5.656  16.642  0.00  0.00    +0.000 A 
ATOM     22  C   UNL     1      48.174   4.807  17.315  0.00  0.00    +0.000 A 
ATOM     23  S   UNL     1      48.961   3.735  18.383  0.00  0.00    +0.000 S 
ATOM     24  C   UNL     1      50.480   4.407  18.018  0.00  0.00    +0.000 A 
ATOM     25  N   UNL     1      51.615   3.980  18.624  0.00  0.00    +0.000 NA
ATOM     26  N   UNL     1      52.706   4.541  18.351  0.00  0.00    +0.000 NA
ATOM     27  N   UNL     1      52.728   5.548  17.427  0.00  0.00    +0.000 N 
ATOM     28  C   UNL     1      51.647   6.024  16.720  0.00  0.00    +0.000 A 
ATOM     29  O   UNL     1      51.758   6.892  15.860  0.00  0.00    +0.000 OA
ATOM     30  C   UNL     1      50.393   5.403  17.073  0.00  0.00    +0.000 A 
ATOM     31  H   UNL     1      53.637   5.950  17.237  0.00  0.00    +0.000 HD
ENDBRANCH  18  21
ENDBRANCH   2  17
TORSDOF 6
ENDMDL
MODEL 3
REMARK VINA RESULT:    -8.209      1.974      2.342
REMARK INTER + INTRA:         -11.350
REMARK INTER:                 -10.509
REMARK INTRA:                  -0.841
REMARK UNBOUND:                -0.261
REMARK  Name = 
REMARK  7 active torsions:
REMARK  status: ('A' for Active; 'I' for Inactive)
REMARK    1  A    between atoms: C_1  and  C_2
REMARK    2  A    between atoms: C_2  and  N_3
REMARK    3  A    between atoms: C_2  and  C_16
REMARK    4  A    between atoms: C_4  and  C_6
REMARK    5  A    between atoms: C_19  and  O_20
REMARK    6  A    between atoms: O_20  and  C_21
REMARK    7  A    between atoms: C_21  and  C_22
REMARK                            x       y       z     vdW  Elec       q    Type
REMARK                         _______ _______ _______ _____ _____    ______ ____
ROOT
ATOM      1  C   UNL     1      49.427   7.345  12.974  0.00  0.00    +0.000 C 
ATOM      2  C   UNL     1      48.000   7.408  13.529  0.00  0.00    +0.000 C 
ENDROOT
BRANCH   2   3
ATOM      3  C   UNL     1      47.041   6.420  12.889  0.00  0.00    +0.000 A 
ATOM      4  C   UNL     1      46.324   6.794  11.740  0.00  0.00    +0.000 A 
ATOM      5  C   UNL     1      45.422   5.900  11.145  0.00  0.00    +0.000 A 
ATOM      6  C   UNL     1      45.232   4.635  11.684  0.00  0.00    +0.000 A 
ATOM      7  C   UNL     1      45.893   4.282  12.861  0.00  0.00    +0.000 A 
ATOM      8  C   UNL     1      46.794   5.163  13.452  0.00  0.00    +0.000 A 
BRANCH   6   9
ATOM      9  O   UNL     1      44.380   3.809  11.001  0.00  0.00    +0.000 OA
BRANCH   9  10
ATOM     10  C   UNL     1      44.198   4.151   9.619  0.00  0.00    +0.000 C 
BRANCH  10  11
ATOM     11  C   UNL     1      45.226   3.447   8.772  0.00  0.00    +0.000 A 
ATOM     12  C   UNL     1      45.381   2.065   8.877  0.00  0.00    +0.000 A 
ATOM     13  C   UNL     1      46.300   1.428   8.055  0.00  0.00    +0.000 A 
ATOM     14  C   UNL     1      47.038   2.181   7.149  0.00  0.00    +0.000 A 
ATOM     15  C   UNL     1      46.816   3.547   7.099  0.00  0.00    +0.000 A 
ATOM     16  N   UNL     1      45.925   4.194   7.880  0.00  0.00    +0.000 NA
ENDBRANCH  10  11
ENDBRANCH   9  10
ENDBRANCH   6   9
ENDBRANCH   2   3
BRANCH   2  17
ATOM     17  N   UNL     1      48.003   7.192  14.962  0.00  0.00    +0.000 N 
ATOM     18  C   UNL     1      48.562   8.092  15.829  0.00  0.00    +0.000 C 
ATOM     19  O   UNL     1      49.051   9.153  15.452  0.00  0.00    +0.000 OA
ATOM     20  H   UNL     1      47.755   6.263  15.290  0.00  0.00    +0.000 HD
BRANCH  18  21
ATOM     21  C   UNL     1      48.484   7.756  17.252  0.00  0.00    +0.000 A 
ATOM     22  C   UNL     1      48.250   8.758  18.184  0.00  0.00    +0.000 A 
ATOM     23  S   UNL     1      48.180   8.188  19.791  0.00  0.00    +0.000 S 
ATOM     24  C   UNL     1      48.511   6.596  19.294  0.00  0.00    +0.000 A 
ATOM     25  N   UNL     1      48.638   5.581  20.184  0.00  0.00    +0.000 NA
ATOM     26  N   UNL     1      48.927   4.431  19.768  0.00  0.00    +0.000 NA
ATOM     27  N   UNL     1      49.079   4.224  18.425  0.00  0.00    +0.000 N 
ATOM     28  C   UNL     1      48.924   5.169  17.437  0.00  0.00    +0.000 A 
ATOM     29  O   UNL     1      49.016   4.889  16.245  0.00  0.00    +0.000 OA
ATOM     30  C   UNL     1      48.635   6.494  17.928  0.00  0.00    +0.000 A 
ATOM     31  H   UNL     1      49.295   3.275  18.149  0.00  0.00    +0.000 HD
ENDBRANCH  18  21
ENDBRANCH   2  17
TORSDOF 6
ENDMDL
MODEL 4
REMARK VINA RESULT:    -8.172      2.080      2.488
REMARK INTER + INTRA:         -11.299
REMARK INTER:                 -10.154
REMARK INTRA:                  -1.145
REMARK UNBOUND:                -0.261
REMARK  Name = 
REMARK  7 active torsions:
REMARK  status: ('A' for Active; 'I' for Inactive)
REMARK    1  A    between atoms: C_1  and  C_2
REMARK    2  A    between atoms: C_2  and  N_3
REMARK    3  A    between atoms: C_2  and  C_16
REMARK    4  A    between atoms: C_4  and  C_6
REMARK    5  A    between atoms: C_19  and  O_20
REMARK    6  A    between atoms: O_20  and  C_21
REMARK    7  A    between atoms: C_21  and  C_22
REMARK                            x       y       z     vdW  Elec       q    Type
REMARK                         _______ _______ _______ _____ _____    ______ ____
ROOT
ATOM      1  C   UNL     1      48.058   7.978  13.759  0.00  0.00    +0.000 C 
ATOM      2  C   UNL     1      47.515   6.752  14.502  0.00  0.00    +0.000 C 
ENDROOT
BRANCH   2   3
ATOM      3  C   UNL     1      46.722   5.798  13.627  0.00  0.00    +0.000 A 
ATOM      4  C   UNL     1      45.840   6.311  12.662  0.00  0.00    +0.000 A 
ATOM      5  C   UNL     1      45.088   5.446  11.856  0.00  0.00    +0.000 A 
ATOM      6  C   UNL     1      45.210   4.070  12.002  0.00  0.00    +0.000 A 
ATOM      7  C   UNL     1      46.036   3.556  13.002  0.00  0.00    +0.000 A 
ATOM      8  C   UNL     1      46.790   4.411  13.801  0.00  0.00    +0.000 A 
BRANCH   6   9
ATOM      9  O   UNL     1      44.484   3.303  11.131  0.00  0.00    +0.000 OA
BRANCH   9  10
ATOM     10  C   UNL     1      44.291   3.891   9.836  0.00  0.00    +0.000 C 
BRANCH  10  11
ATOM     11  C   UNL     1      45.275   3.312   8.853  0.00  0.00    +0.000 A 
ATOM     12  C   UNL     1      45.546   1.945   8.868  0.00  0.00    +0.000 A 
ATOM     13  C   UNL     1      46.418   1.423   7.923  0.00  0.00    +0.000 A 
ATOM     14  C   UNL     1      46.996   2.273   6.988  0.00  0.00    +0.000 A 
ATOM     15  C   UNL     1      46.665   3.618   7.034  0.00  0.00    +0.000 A 
ATOM     16  N   UNL     1      45.815   4.154   7.935  0.00  0.00    +0.000 NA
ENDBRANCH  10  11
ENDBRANCH   9  10
ENDBRANCH   6   9
ENDBRANCH   2   3
BRANCH   2  17
ATOM     17  N   UNL     1      48.597   6.019  15.130  0.00  0.00    +0.000 N 
ATOM     18  C   UNL     1      48.847   6.106  16.473  0.00  0.00    +0.000 C 
ATOM     19  O   UNL     1      48.148   6.772  17.231  0.00  0.00    +0.000 OA
ATOM     20  H   UNL     1      49.284   5.593  14.515  0.00  0.00    +0.000 HD
BRANCH  18  21
ATOM     21  C   UNL     1      49.962   5.303  16.977  0.00  0.00    +0.000 A 
ATOM     22  C   UNL     1      51.098   5.932  17.467  0.00  0.00    +0.000 A 
ATOM     23  S   UNL     1      52.291   4.846  18.022  0.00  0.00    +0.000 S 
ATOM     24  C   UNL     1      51.347   3.503  17.578  0.00  0.00    +0.000 A 
ATOM     25  N   UNL     1      51.792   2.232  17.736  0.00  0.00    +0.000 NA
ATOM     26  N   UNL     1      51.074   1.277  17.350  0.00  0.00    +0.000 NA
ATOM     27  N   UNL     1      49.847   1.539  16.806  0.00  0.00    +0.000 N 
ATOM     28  C   UNL     1      49.281   2.783  16.645  0.00  0.00    +0.000 A 
ATOM     29  O   UNL     1      48.145   2.932  16.204  0.00  0.00    +0.000 OA
ATOM     30  C   UNL     1      50.132   3.875  17.051  0.00  0.00    +0.000 A 
ATOM     31  H   UNL     1      49.307   0.729  16.529  0.00  0.00    +0.000 HD
ENDBRANCH  18  21
ENDBRANCH   2  17
TORSDOF 6
ENDMDL
MODEL 5
REMARK VINA RESULT:    -8.138      2.912      3.691
REMARK INTER + INTRA:         -11.254
REMARK INTER:                 -10.046
REMARK INTRA:                  -1.208
REMARK UNBOUND:                -0.261
REMARK  Name = 
REMARK  7 active torsions:
REMARK  status: ('A' for Active; 'I' for Inactive)
REMARK    1  A    between atoms: C_1  and  C_2
REMARK    2  A    between atoms: C_2  and  N_3
REMARK    3  A    between atoms: C_2  and  C_16
REMARK    4  A    between atoms: C_4  and  C_6
REMARK    5  A    between atoms: C_19  and  O_20
REMARK    6  A    between atoms: O_20  and  C_21
REMARK    7  A    between atoms: C_21  and  C_22
REMARK                            x       y       z     vdW  Elec       q    Type
REMARK                         _______ _______ _______ _____ _____    ______ ____
ROOT
ATOM      1  C   UNL     1      47.429   3.819  16.310  0.00  0.00    +0.000 C 
ATOM      2  C   UNL     1      47.837   4.768  15.177  0.00  0.00    +0.000 C 
ENDROOT
BRANCH   2   3
ATOM      3  C   UNL     1      46.970   4.660  13.936  0.00  0.00    +0.000 A 
ATOM      4  C   UNL     1      46.691   5.812  13.182  0.00  0.00    +0.000 A 
ATOM      5  C   UNL     1      45.879   5.734  12.042  0.00  0.00    +0.000 A 
ATOM      6  C   UNL     1      45.344   4.516  11.645  0.00  0.00    +0.000 A 
ATOM      7  C   UNL     1      45.566   3.381  12.426  0.00  0.00    +0.000 A 
ATOM      8  C   UNL     1      46.376   3.451  13.555  0.00  0.00    +0.000 A 
BRANCH   6   9
ATOM      9  O   UNL     1      44.615   4.524  10.486  0.00  0.00    +0.000 OA
BRANCH   9  10
ATOM     10  C   UNL     1      44.297   3.223   9.972  0.00  0.00    +0.000 C 
BRANCH  10  11
ATOM     11  C   UNL     1      45.235   2.866   8.848  0.00  0.00    +0.000 A 
ATOM     12  C   UNL     1      45.617   3.843   7.929  0.00  0.00    +0.000 A 
ATOM     13  C   UNL     1      46.518   3.507   6.929  0.00  0.00    +0.000 A 
ATOM     14  C   UNL     1      47.018   2.212   6.870  0.00  0.00    +0.000 A 
ATOM     15  C   UNL     1      46.596   1.304   7.827  0.00  0.00    +0.000 A 
ATOM     16  N   UNL     1      45.727   1.602   8.816  0.00  0.00    +0.000 NA
ENDBRANCH  10  11
ENDBRANCH   9  10
ENDBRANCH   6   9
ENDBRANCH   2   3
BRANCH   2  17
ATOM     17  N   UNL     1      47.826   6.142  15.637  0.00  0.00    +0.000 N 
ATOM     18  C   UNL     1      48.980   6.825  15.908  0.00  0.00    +0.000 C 
ATOM     19  O   UNL     1      50.092   6.333  15.737  0.00  0.00    +0.000 OA
ATOM     20  H   UNL     1      46.933   6.520  15.939  0.00  0.00    +0.000 HD
BRANCH  18  21
ATOM     21  C   UNL     1      48.824   8.212  16.352  0.00  0.00    +0.000 A 
ATOM     22  C   UNL     1      49.310   9.246  15.563  0.00  0.00    +0.000 A 
ATOM     23  S   UNL     1      49.034  10.793  16.226  0.00  0.00    +0.000 S 
ATOM     24  C   UNL     1      48.304  10.126  17.609  0.00  0.00    +0.000 A 
ATOM     25  N   UNL     1      47.863  10.902  18.630  0.00  0.00    +0.000 NA
ATOM     26  N   UNL     1      47.372  10.356  19.650  0.00  0.00    +0.000 NA
ATOM     27  N   UNL     1      47.266   8.993  19.694  0.00  0.00    +0.000 N 
ATOM     28  C   UNL     1      47.635   8.119  18.698  0.00  0.00    +0.000 A 
ATOM     29  O   UNL     1      47.451   6.909  18.788  0.00  0.00    +0.000 OA
ATOM     30  C   UNL     1      48.238   8.753  17.550  0.00  0.00    +0.000 A 
ATOM     31  H   UNL     1      46.847   8.613  20.532  0.00  0.00    +0.000 HD
ENDBRANCH  18  21
ENDBRANCH   2  17
TORSDOF 6
ENDMDL
MODEL 6
REMARK VINA RESULT:    -7.786      2.803      3.991
REMARK INTER + INTRA:         -10.778
REMARK INTER:                  -9.723
REMARK INTRA:                  -1.055
REMARK UNBOUND:                -0.261
REMARK  Name = 
REMARK  7 active torsions:
REMARK  status: ('A' for Active; 'I' for Inactive)
REMARK    1  A    between atoms: C_1  and  C_2
REMARK    2  A    between atoms: C_2  and  N_3
REMARK    3  A    between atoms: C_2  and  C_16
REMARK    4  A    between atoms: C_4  and  C_6
REMARK    5  A    between atoms: C_19  and  O_20
REMARK    6  A    between atoms: O_20  and  C_21
REMARK    7  A    between atoms: C_21  and  C_22
REMARK                            x       y       z     vdW  Elec       q    Type
REMARK                         _______ _______ _______ _____ _____    ______ ____
ROOT
ATOM      1  C   UNL     1      49.976   8.050  14.945  0.00  0.00    +0.000 C 
ATOM      2  C   UNL     1      49.300   6.936  15.752  0.00  0.00    +0.000 C 
ENDROOT
BRANCH   2   3
ATOM      3  C   UNL     1      48.283   6.128  14.965  0.00  0.00    +0.000 A 
ATOM      4  C   UNL     1      47.672   5.012  15.559  0.00  0.00    +0.000 A 
ATOM      5  C   UNL     1      46.743   4.246  14.842  0.00  0.00    +0.000 A 
ATOM      6  C   UNL     1      46.416   4.585  13.536  0.00  0.00    +0.000 A 
ATOM      7  C   UNL     1      47.067   5.654  12.919  0.00  0.00    +0.000 A 
ATOM      8  C   UNL     1      47.985   6.422  13.629  0.00  0.00    +0.000 A 
BRANCH   6   9
ATOM      9  O   UNL     1      45.454   3.818  12.935  0.00  0.00    +0.000 OA
BRANCH   9  10
ATOM     10  C   UNL     1      44.588   4.536  12.044  0.00  0.00    +0.000 C 
BRANCH  10  11
ATOM     11  C   UNL     1      44.785   4.053  10.630  0.00  0.00    +0.000 A 
ATOM     12  C   UNL     1      45.393   4.887   9.692  0.00  0.00    +0.000 A 
ATOM     13  C   UNL     1      45.608   4.408   8.408  0.00  0.00    +0.000 A 
ATOM     14  C   UNL     1      45.217   3.112   8.090  0.00  0.00    +0.000 A 
ATOM     15  C   UNL     1      44.630   2.345   9.083  0.00  0.00    +0.000 A 
ATOM     16  N   UNL     1      44.414   2.780  10.342  0.00  0.00    +0.000 NA
ENDBRANCH  10  11
ENDBRANCH   9  10
ENDBRANCH   6   9
ENDBRANCH   2   3
BRANCH   2  17
ATOM     17  N   UNL     1      50.292   6.031  16.298  0.00  0.00    +0.000 N 
ATOM     18  C   UNL     1      50.410   5.813  17.644  0.00  0.00    +0.000 C 
ATOM     19  O   UNL     1      49.658   6.332  18.464  0.00  0.00    +0.000 OA
ATOM     20  H   UNL     1      51.024   5.715  15.669  0.00  0.00    +0.000 HD
BRANCH  18  21
ATOM     21  C   UNL     1      51.445   4.864  18.058  0.00  0.00    +0.000 A 
ATOM     22  C   UNL     1      52.592   5.328  18.688  0.00  0.00    +0.000 A 
ATOM     23  S   UNL     1      53.685   4.087  19.109  0.00  0.00    +0.000 S 
ATOM     24  C   UNL     1      52.684   2.901  18.417  0.00  0.00    +0.000 A 
ATOM     25  N   UNL     1      53.040   1.593  18.387  0.00  0.00    +0.000 NA
ATOM     26  N   UNL     1      52.285   0.762  17.823  0.00  0.00    +0.000 NA
ATOM     27  N   UNL     1      51.106   1.191  17.279  0.00  0.00    +0.000 N 
ATOM     28  C   UNL     1      50.627   2.481  17.298  0.00  0.00    +0.000 A 
ATOM     29  O   UNL     1      49.527   2.777  16.840  0.00  0.00    +0.000 OA
ATOM     30  C   UNL     1      51.523   3.434  17.908  0.00  0.00    +0.000 A 
ATOM     31  H   UNL     1      50.532   0.475  16.854  0.00  0.00    +0.000 HD
ENDBRANCH  18  21
ENDBRANCH   2  17
TORSDOF 6
ENDMDL
MODEL 7
REMARK VINA RESULT:    -7.714      2.594      3.377
REMARK INTER + INTRA:         -10.681
REMARK INTER:                  -9.603
REMARK INTRA:                  -1.078
REMARK UNBOUND:                -0.261
REMARK  Name = 
REMARK  7 active torsions:
REMARK  status: ('A' for Active; 'I' for Inactive)
REMARK    1  A    between atoms: C_1  and  C_2
REMARK    2  A    between atoms: C_2  and  N_3
REMARK    3  A    between atoms: C_2  and  C_16
REMARK    4  A    between atoms: C_4  and  C_6
REMARK    5  A    between atoms: C_19  and  O_20
REMARK    6  A    between atoms: O_20  and  C_21
REMARK    7  A    between atoms: C_21  and  C_22
REMARK                            x       y       z     vdW  Elec       q    Type
REMARK                         _______ _______ _______ _____ _____    ______ ____
ROOT
ATOM      1  C   UNL     1      49.600   8.405  14.728  0.00  0.00    +0.000 C 
ATOM      2  C   UNL     1      48.889   7.222  15.395  0.00  0.00    +0.000 C 
ENDROOT
BRANCH   2   3
ATOM      3  C   UNL     1      47.899   6.505  14.494  0.00  0.00    +0.000 A 
ATOM      4  C   UNL     1      47.376   7.167  13.371  0.00  0.00    +0.000 A 
ATOM      5  C   UNL     1      46.450   6.527  12.537  0.00  0.00    +0.000 A 
ATOM      6  C   UNL     1      46.041   5.228  12.812  0.00  0.00    +0.000 A 
ATOM      7  C   UNL     1      46.508   4.589  13.961  0.00  0.00    +0.000 A 
ATOM      8  C   UNL     1      47.433   5.219  14.789  0.00  0.00    +0.000 A 
BRANCH   6   9
ATOM      9  O   UNL     1      45.182   4.661  11.909  0.00  0.00    +0.000 OA
BRANCH   9  10
ATOM     10  C   UNL     1      45.095   5.351  10.653  0.00  0.00    +0.000 C 
BRANCH  10  11
ATOM     11  C   UNL     1      45.457   4.421   9.525  0.00  0.00    +0.000 A 
ATOM     12  C   UNL     1      45.052   3.087   9.570  0.00  0.00    +0.000 A 
ATOM     13  C   UNL     1      45.354   2.258   8.500  0.00  0.00    +0.000 A 
ATOM     14  C   UNL     1      46.048   2.775   7.412  0.00  0.00    +0.000 A 
ATOM     15  C   UNL     1      46.405   4.113   7.441  0.00  0.00    +0.000 A 
ATOM     16  N   UNL     1      46.119   4.947   8.463  0.00  0.00    +0.000 NA
ENDBRANCH  10  11
ENDBRANCH   9  10
ENDBRANCH   6   9
ENDBRANCH   2   3
BRANCH   2  17
ATOM     17  N   UNL     1      49.855   6.259  15.885  0.00  0.00    +0.000 N 
ATOM     18  C   UNL     1      50.110   6.105  17.221  0.00  0.00    +0.000 C 
ATOM     19  O   UNL     1      49.508   6.738  18.084  0.00  0.00    +0.000 OA
ATOM     20  H   UNL     1      50.478   5.841  15.200  0.00  0.00    +0.000 HD
BRANCH  18  21
ATOM     21  C   UNL     1      51.100   5.087  17.578  0.00  0.00    +0.000 A 
ATOM     22  C   UNL     1      52.338   5.474  18.072  0.00  0.00    +0.000 A 
ATOM     23  S   UNL     1      53.362   4.162  18.445  0.00  0.00    +0.000 S 
ATOM     24  C   UNL     1      52.202   3.040  17.910  0.00  0.00    +0.000 A 
ATOM     25  N   UNL     1      52.445   1.706  17.909  0.00  0.00    +0.000 NA
ATOM     26  N   UNL     1      51.570   0.922  17.461  0.00  0.00    +0.000 NA
ATOM     27  N   UNL     1      50.382   1.430  17.013  0.00  0.00    +0.000 N 
ATOM     28  C   UNL     1      50.016   2.757  17.015  0.00  0.00    +0.000 A 
ATOM     29  O   UNL     1      48.904   3.128  16.653  0.00  0.00    +0.000 OA
ATOM     30  C   UNL     1      51.043   3.652  17.491  0.00  0.00    +0.000 A 
ATOM     31  H   UNL     1      49.712   0.750  16.680  0.00  0.00    +0.000 HD
ENDBRANCH  18  21
ENDBRANCH   2  17
TORSDOF 6
ENDMDL
MODEL 8
REMARK VINA RESULT:    -7.269      1.965      2.816
REMARK INTER + INTRA:         -10.079
REMARK INTER:                  -8.866
REMARK INTRA:                  -1.213
REMARK UNBOUND:                -0.261
REMARK  Name = 
REMARK  7 active torsions:
REMARK  status: ('A' for Active; 'I' for Inactive)
REMARK    1  A    between atoms: C_1  and  C_2
REMARK    2  A    between atoms: C_2  and  N_3
REMARK    3  A    between atoms: C_2  and  C_16
REMARK    4  A    between atoms: C_4  and  C_6
REMARK    5  A    between atoms: C_19  and  O_20
REMARK    6  A    between atoms: O_20  and  C_21
REMARK    7  A    between atoms: C_21  and  C_22
REMARK                            x       y       z     vdW  Elec       q    Type
REMARK                         _______ _______ _______ _____ _____    ______ ____
ROOT
ATOM      1  C   UNL     1      50.458   8.586  13.558  0.00  0.00    +0.000 C 
ATOM      2  C   UNL     1      49.106   8.515  14.278  0.00  0.00    +0.000 C 
ENDROOT
BRANCH   2   3
ATOM      3  C   UNL     1      47.959   8.047  13.400  0.00  0.00    +0.000 A 
ATOM      4  C   UNL     1      48.151   6.966  12.524  0.00  0.00    +0.000 A 
ATOM      5  C   UNL     1      47.109   6.530  11.695  0.00  0.00    +0.000 A 
ATOM      6  C   UNL     1      45.873   7.163  11.733  0.00  0.00    +0.000 A 
ATOM      7  C   UNL     1      45.696   8.277  12.555  0.00  0.00    +0.000 A 
ATOM      8  C   UNL     1      46.727   8.709  13.384  0.00  0.00    +0.000 A 
BRANCH   6   9
ATOM      9  O   UNL     1      44.897   6.631  10.935  0.00  0.00    +0.000 OA
BRANCH   9  10
ATOM     10  C   UNL     1      44.516   5.288  11.270  0.00  0.00    +0.000 C 
BRANCH  10  11
ATOM     11  C   UNL     1      44.888   4.350  10.152  0.00  0.00    +0.000 A 
ATOM     12  C   UNL     1      44.603   2.989  10.266  0.00  0.00    +0.000 A 
ATOM     13  C   UNL     1      44.910   2.149   9.206  0.00  0.00    +0.000 A 
ATOM     14  C   UNL     1      45.489   2.681   8.060  0.00  0.00    +0.000 A 
ATOM     15  C   UNL     1      45.730   4.045   8.023  0.00  0.00    +0.000 A 
ATOM     16  N   UNL     1      45.436   4.889   9.034  0.00  0.00    +0.000 NA
ENDBRANCH  10  11
ENDBRANCH   9  10
ENDBRANCH   6   9
ENDBRANCH   2   3
BRANCH   2  17
ATOM     17  N   UNL     1      49.193   7.645  15.434  0.00  0.00    +0.000 N 
ATOM     18  C   UNL     1      48.635   7.983  16.638  0.00  0.00    +0.000 C 
ATOM     19  O   UNL     1      47.993   9.017  16.799  0.00  0.00    +0.000 OA
ATOM     20  H   UNL     1      49.846   6.869  15.381  0.00  0.00    +0.000 HD
BRANCH  18  21
ATOM     21  C   UNL     1      48.785   7.007  17.718  0.00  0.00    +0.000 A 
ATOM     22  C   UNL     1      49.219   7.425  18.969  0.00  0.00    +0.000 A 
ATOM     23  S   UNL     1      49.327   6.160  20.109  0.00  0.00    +0.000 S 
ATOM     24  C   UNL     1      48.848   5.010  18.953  0.00  0.00    +0.000 A 
ATOM     25  N   UNL     1      48.770   3.689  19.249  0.00  0.00    +0.000 NA
ATOM     26  N   UNL     1      48.454   2.874  18.346  0.00  0.00    +0.000 NA
ATOM     27  N   UNL     1      48.167   3.341  17.093  0.00  0.00    +0.000 N 
ATOM     28  C   UNL     1      48.169   4.660  16.700  0.00  0.00    +0.000 A 
ATOM     29  O   UNL     1      47.839   5.006  15.570  0.00  0.00    +0.000 OA
ATOM     30  C   UNL     1      48.575   5.583  17.733  0.00  0.00    +0.000 A 
ATOM     31  H   UNL     1      47.903   2.640  16.413  0.00  0.00    +0.000 HD
ENDBRANCH  18  21
ENDBRANCH   2  17
TORSDOF 6
ENDMDL
MODEL 9
REMARK VINA RESULT:    -7.186      3.994      8.339
REMARK INTER + INTRA:          -9.968
REMARK INTER:                  -8.700
REMARK INTRA:                  -1.268
REMARK UNBOUND:                -0.261
REMARK  Name = 
REMARK  7 active torsions:
REMARK  status: ('A' for Active; 'I' for Inactive)
REMARK    1  A    between atoms: C_1  and  C_2
REMARK    2  A    between atoms: C_2  and  N_3
REMARK    3  A    between atoms: C_2  and  C_16
REMARK    4  A    between atoms: C_4  and  C_6
REMARK    5  A    between atoms: C_19  and  O_20
REMARK    6  A    between atoms: O_20  and  C_21
REMARK    7  A    between atoms: C_21  and  C_22
REMARK                            x       y       z     vdW  Elec       q    Type
REMARK                         _______ _______ _______ _____ _____    ______ ____
ROOT
ATOM      1  C   UNL     1      48.294   8.975  15.839  0.00  0.00    +0.000 C 
ATOM      2  C   UNL     1      48.677   7.697  15.084  0.00  0.00    +0.000 C 
ENDROOT
BRANCH   2   3
ATOM      3  C   UNL     1      49.331   6.636  15.952  0.00  0.00    +0.000 A 
ATOM      4  C   UNL     1      50.713   6.692  16.194  0.00  0.00    +0.000 A 
ATOM      5  C   UNL     1      51.336   5.713  16.980  0.00  0.00    +0.000 A 
ATOM      6  C   UNL     1      50.591   4.678  17.530  0.00  0.00    +0.000 A 
ATOM      7  C   UNL     1      49.230   4.582  17.241  0.00  0.00    +0.000 A 
ATOM      8  C   UNL     1      48.605   5.556  16.467  0.00  0.00    +0.000 A 
BRANCH   6   9
ATOM      9  O   UNL     1      51.273   3.804  18.334  0.00  0.00    +0.000 OA
BRANCH   9  10
ATOM     10  C   UNL     1      51.542   2.528  17.733  0.00  0.00    +0.000 C 
BRANCH  10  11
ATOM     11  C   UNL     1      52.981   2.144  17.957  0.00  0.00    +0.000 A 
ATOM     12  C   UNL     1      53.987   3.094  17.784  0.00  0.00    +0.000 A 
ATOM     13  C   UNL     1      55.302   2.734  18.041  0.00  0.00    +0.000 A 
ATOM     14  C   UNL     1      55.583   1.440  18.465  0.00  0.00    +0.000 A 
ATOM     15  C   UNL     1      54.525   0.560  18.623  0.00  0.00    +0.000 A 
ATOM     16  N   UNL     1      53.236   0.882  18.388  0.00  0.00    +0.000 NA
ENDBRANCH  10  11
ENDBRANCH   9  10
ENDBRANCH   6   9
ENDBRANCH   2   3
BRANCH   2  17
ATOM     17  N   UNL     1      47.513   7.119  14.440  0.00  0.00    +0.000 N 
ATOM     18  C   UNL     1      47.279   7.269  13.100  0.00  0.00    +0.000 C 
ATOM     19  O   UNL     1      48.057   7.860  12.357  0.00  0.00    +0.000 OA
ATOM     20  H   UNL     1      46.778   6.768  15.046  0.00  0.00    +0.000 HD
BRANCH  18  21
ATOM     21  C   UNL     1      46.073   6.623  12.578  0.00  0.00    +0.000 A 
ATOM     22  C   UNL     1      45.080   7.393  11.988  0.00  0.00    +0.000 A 
ATOM     23  S   UNL     1      43.754   6.478  11.426  0.00  0.00    +0.000 S 
ATOM     24  C   UNL     1      44.443   5.034  12.000  0.00  0.00    +0.000 A 
ATOM     25  N   UNL     1      43.805   3.843  11.888  0.00  0.00    +0.000 NA
ATOM     26  N   UNL     1      44.338   2.812  12.369  0.00  0.00    +0.000 NA
ATOM     27  N   UNL     1      45.563   2.909  12.968  0.00  0.00    +0.000 N 
ATOM     28  C   UNL     1      46.316   4.054  13.091  0.00  0.00    +0.000 A 
ATOM     29  O   UNL     1      47.439   4.048  13.588  0.00  0.00    +0.000 OA
ATOM     30  C   UNL     1      45.676   5.240  12.575  0.00  0.00    +0.000 A 
ATOM     31  H   UNL     1      45.949   2.043  13.321  0.00  0.00    +0.000 HD
ENDBRANCH  18  21
ENDBRANCH   2  17
TORSDOF 6
ENDMDL
