MODEL 1
REMARK VINA RESULT:    -7.913      0.000      0.000
REMARK INTER + INTRA:         -11.040
REMARK INTER:                 -10.457
REMARK INTRA:                  -0.584
REMARK UNBOUND:                -0.584
REMARK  Name = 
REMARK  6 active torsions:
REMARK  status: ('A' for Active; 'I' for Inactive)
REMARK    1  A    between atoms: N_1  and  C_2
REMARK    2  A    between atoms: C_2  and  C_3
REMARK    3  A    between atoms: C_7  and  C_8
REMARK    4  A    between atoms: C_8  and  C_9
REMARK    5  A    between atoms: C_9  and  N_10
REMARK    6  A    between atoms: C_15  and  C_16
REMARK                            x       y       z     vdW  Elec       q    Type
REMARK                         _______ _______ _______ _____ _____    ______ ____
ROOT
ATOM      1  N   UNL     1      44.317   2.876  12.490  0.00  0.00    +0.000 N 
ATOM      2  C   UNL     1      45.125   3.970  12.776  0.00  0.00    +0.000 A 
ATOM      3  N   UNL     1      46.284   3.692  13.387  0.00  0.00    +0.000 NA
ATOM      4  C   UNL     1      47.092   4.729  13.691  0.00  0.00    +0.000 A 
ATOM      5  C   UNL     1      46.793   6.030  13.395  0.00  0.00    +0.000 A 
ATOM      6  C   UNL     1      45.588   6.206  12.762  0.00  0.00    +0.000 A 
ATOM      7  N   UNL     1      44.736   5.203  12.442  0.00  0.00    +0.000 NA
ATOM      8  H   UNL     1      44.925   2.064  12.526  0.00  0.00    +0.000 HD
ENDROOT
BRANCH   6   9
ATOM      9  C   UNL     1      45.151   7.586  12.385  0.00  0.00    +0.000 C 
ATOM     10  N   UNL     1      44.233   7.659  11.374  0.00  0.00    +0.000 N 
ATOM     11  O   UNL     1      45.585   8.588  12.940  0.00  0.00    +0.000 OA
ATOM     12  H   UNL     1      43.875   6.808  10.955  0.00  0.00    +0.000 HD
ATOM     13  H   UNL     1      43.873   8.560  11.092  0.00  0.00    +0.000 HD
ENDBRANCH   6   9
BRANCH   1  14
ATOM     14  C   UNL     1      43.517   3.020  11.283  0.00  0.00    +0.000 C 
BRANCH  14  15
ATOM     15  C   UNL     1      43.918   1.970  10.239  0.00  0.00    +0.000 C 
BRANCH  15  20
ATOM     16  C   UNL     1      46.662   2.183   7.586  0.00  0.00    +0.000 A 
ATOM     17  C   UNL     1      46.660   3.559   7.318  0.00  0.00    +0.000 A 
ATOM     18  C   UNL     1      45.813   4.419   8.017  0.00  0.00    +0.000 A 
ATOM     19  C   UNL     1      44.943   3.912   8.982  0.00  0.00    +0.000 A 
ATOM     20  C   UNL     1      44.924   2.541   9.266  0.00  0.00    +0.000 A 
ATOM     21  C   UNL     1      45.794   1.687   8.572  0.00  0.00    +0.000 A 
BRANCH  16  22
ATOM     22  C   UNL     1      47.531   1.245   6.786  0.00  0.00    +0.000 C 
BRANCH  22  23
ATOM     23  N   UNL     1      48.398   1.957   5.856  0.00  0.00    +0.000 NA
ATOM     24  H   UNL     1      49.259   1.428   5.734  0.00  0.00    +0.000 HD
ATOM     25  H   UNL     1      48.663   2.848   6.274  0.00  0.00    +0.000 HD
ENDBRANCH  22  23
ENDBRANCH  16  22
ENDBRANCH  15  20
ENDBRANCH  14  15
ENDBRANCH   1  14
TORSDOF 6
ENDMDL
MODEL 2
REMARK VINA RESULT:    -7.109      1.942      3.044
REMARK INTER + INTRA:          -9.979
REMARK INTER:                  -9.529
REMARK INTRA:                  -0.450
REMARK UNBOUND:                -0.584
REMARK  Name = 
REMARK  6 active torsions:
REMARK  status: ('A' for Active; 'I' for Inactive)
REMARK    1  A    between atoms: N_1  and  C_2
REMARK    2  A    between atoms: C_2  and  C_3
REMARK    3  A    between atoms: C_7  and  C_8
REMARK    4  A    between atoms: C_8  and  C_9
REMARK    5  A    between atoms: C_9  and  N_10
REMARK    6  A    between atoms: C_15  and  C_16
REMARK                            x       y       z     vdW  Elec       q    Type
REMARK                         _______ _______ _______ _____ _____    ______ ____
ROOT
ATOM      1  N   UNL     1      45.745   5.816  10.460  0.00  0.00    +0.000 N 
ATOM      2  C   UNL     1      46.359   6.052  11.684  0.00  0.00    +0.000 A 
ATOM      3  N   UNL     1      46.823   7.294  11.872  0.00  0.00    +0.000 NA
ATOM      4  C   UNL     1      47.434   7.560  13.045  0.00  0.00    +0.000 A 
ATOM      5  C   UNL     1      47.587   6.637  14.042  0.00  0.00    +0.000 A 
ATOM      6  C   UNL     1      47.070   5.399  13.754  0.00  0.00    +0.000 A 
ATOM      7  N   UNL     1      46.455   5.076  12.591  0.00  0.00    +0.000 NA
ATOM      8  H   UNL     1      45.502   6.730  10.090  0.00  0.00    +0.000 HD
ENDROOT
BRANCH   6   9
ATOM      9  C   UNL     1      47.175   4.305  14.769  0.00  0.00    +0.000 C 
ATOM     10  N   UNL     1      47.178   3.032  14.266  0.00  0.00    +0.000 N 
ATOM     11  O   UNL     1      47.251   4.527  15.970  0.00  0.00    +0.000 OA
ATOM     12  H   UNL     1      47.140   2.885  13.264  0.00  0.00    +0.000 HD
ATOM     13  H   UNL     1      47.277   2.249  14.896  0.00  0.00    +0.000 HD
ENDBRANCH   6   9
BRANCH   1  14
ATOM     14  C   UNL     1      44.668   4.840  10.506  0.00  0.00    +0.000 C 
BRANCH  14  15
ATOM     15  C   UNL     1      44.169   4.515   9.092  0.00  0.00    +0.000 C 
BRANCH  15  20
ATOM     16  C   UNL     1      46.611   2.586   6.872  0.00  0.00    +0.000 A 
ATOM     17  C   UNL     1      46.591   1.329   7.492  0.00  0.00    +0.000 A 
ATOM     18  C   UNL     1      45.765   1.090   8.590  0.00  0.00    +0.000 A 
ATOM     19  C   UNL     1      44.959   2.111   9.095  0.00  0.00    +0.000 A 
ATOM     20  C   UNL     1      44.964   3.376   8.495  0.00  0.00    +0.000 A 
ATOM     21  C   UNL     1      45.783   3.600   7.378  0.00  0.00    +0.000 A 
BRANCH  16  22
ATOM     22  C   UNL     1      47.550   2.863   5.725  0.00  0.00    +0.000 C 
BRANCH  22  23
ATOM     23  N   UNL     1      48.574   1.834   5.591  0.00  0.00    +0.000 NA
ATOM     24  H   UNL     1      48.945   1.613   6.513  0.00  0.00    +0.000 HD
ATOM     25  H   UNL     1      49.349   2.213   5.051  0.00  0.00    +0.000 HD
ENDBRANCH  22  23
ENDBRANCH  16  22
ENDBRANCH  15  20
ENDBRANCH  14  15
ENDBRANCH   1  14
TORSDOF 6
ENDMDL
MODEL 3
REMARK VINA RESULT:    -6.973      1.607      2.204
REMARK INTER + INTRA:          -9.799
REMARK INTER:                  -9.441
REMARK INTRA:                  -0.358
REMARK UNBOUND:                -0.584
REMARK  Name = 
REMARK  6 active torsions:
REMARK  status: ('A' for Active; 'I' for Inactive)
REMARK    1  A    between atoms: N_1  and  C_2
REMARK    2  A    between atoms: C_2  and  C_3
REMARK    3  A    between atoms: C_7  and  C_8
REMARK    4  A    between atoms: C_8  and  C_9
REMARK    5  A    between atoms: C_9  and  N_10
REMARK    6  A    between atoms: C_15  and  C_16
REMARK                            x       y       z     vdW  Elec       q    Type
REMARK                         _______ _______ _______ _____ _____    ______ ____
ROOT
ATOM      1  N   UNL     1      44.953   4.506  11.595  0.00  0.00    +0.000 N 
ATOM      2  C   UNL     1      45.837   4.913  12.587  0.00  0.00    +0.000 A 
ATOM      3  N   UNL     1      46.140   3.990  13.509  0.00  0.00    +0.000 NA
ATOM      4  C   UNL     1      46.987   4.349  14.495  0.00  0.00    +0.000 A 
ATOM      5  C   UNL     1      47.555   5.589  14.587  0.00  0.00    +0.000 A 
ATOM      6  C   UNL     1      47.188   6.458  13.589  0.00  0.00    +0.000 A 
ATOM      7  N   UNL     1      46.335   6.152  12.582  0.00  0.00    +0.000 NA
ATOM      8  H   UNL     1      44.969   3.491  11.607  0.00  0.00    +0.000 HD
ENDROOT
BRANCH   6   9
ATOM      9  C   UNL     1      47.745   7.846  13.581  0.00  0.00    +0.000 C 
ATOM     10  N   UNL     1      46.908   8.820  14.052  0.00  0.00    +0.000 N 
ATOM     11  O   UNL     1      48.873   8.099  13.179  0.00  0.00    +0.000 OA
ATOM     12  H   UNL     1      45.990   8.571  14.402  0.00  0.00    +0.000 HD
ATOM     13  H   UNL     1      47.234   9.775  14.102  0.00  0.00    +0.000 HD
ENDBRANCH   6   9
BRANCH   1  14
ATOM     14  C   UNL     1      45.175   5.131  10.300  0.00  0.00    +0.000 C 
BRANCH  14  15
ATOM     15  C   UNL     1      44.335   4.445   9.215  0.00  0.00    +0.000 C 
BRANCH  15  20
ATOM     16  C   UNL     1      46.775   2.659   6.877  0.00  0.00    +0.000 A 
ATOM     17  C   UNL     1      46.746   1.362   7.410  0.00  0.00    +0.000 A 
ATOM     18  C   UNL     1      45.914   1.054   8.486  0.00  0.00    +0.000 A 
ATOM     19  C   UNL     1      45.111   2.042   9.056  0.00  0.00    +0.000 A 
ATOM     20  C   UNL     1      45.125   3.345   8.545  0.00  0.00    +0.000 A 
ATOM     21  C   UNL     1      45.951   3.641   7.449  0.00  0.00    +0.000 A 
BRANCH  16  22
ATOM     22  C   UNL     1      47.721   3.008   5.756  0.00  0.00    +0.000 C 
BRANCH  22  23
ATOM     23  N   UNL     1      48.558   1.878   5.370  0.00  0.00    +0.000 NA
ATOM     24  H   UNL     1      49.529   2.100   5.577  0.00  0.00    +0.000 HD
ATOM     25  H   UNL     1      48.497   1.758   4.360  0.00  0.00    +0.000 HD
ENDBRANCH  22  23
ENDBRANCH  16  22
ENDBRANCH  15  20
ENDBRANCH  14  15
ENDBRANCH   1  14
TORSDOF 6
ENDMDL
MODEL 4
REMARK VINA RESULT:    -6.651      2.732      4.179
REMARK INTER + INTRA:          -9.373
REMARK INTER:                  -9.044
REMARK INTRA:                  -0.329
REMARK UNBOUND:                -0.584
REMARK  Name = 
REMARK  6 active torsions:
REMARK  status: ('A' for Active; 'I' for Inactive)
REMARK    1  A    between atoms: N_1  and  C_2
REMARK    2  A    between atoms: C_2  and  C_3
REMARK    3  A    between atoms: C_7  and  C_8
REMARK    4  A    between atoms: C_8  and  C_9
REMARK    5  A    between atoms: C_9  and  N_10
REMARK    6  A    between atoms: C_15  and  C_16
REMARK                            x       y       z     vdW  Elec       q    Type
REMARK                         _______ _______ _______ _____ _____    ______ ____
ROOT
ATOM      1  N   UNL     1      47.191   6.165  12.817  0.00  0.00    +0.000 N 
ATOM      2  C   UNL     1      47.658   5.957  14.109  0.00  0.00    +0.000 A 
ATOM      3  N   UNL     1      48.373   6.958  14.637  0.00  0.00    +0.000 NA
ATOM      4  C   UNL     1      48.853   6.791  15.887  0.00  0.00    +0.000 A 
ATOM      5  C   UNL     1      48.633   5.666  16.634  0.00  0.00    +0.000 A 
ATOM      6  C   UNL     1      47.882   4.704  16.006  0.00  0.00    +0.000 A 
ATOM      7  N   UNL     1      47.384   4.818  14.751  0.00  0.00    +0.000 NA
ATOM      8  H   UNL     1      47.230   7.168  12.665  0.00  0.00    +0.000 HD
ENDROOT
BRANCH   6   9
ATOM      9  C   UNL     1      47.573   3.429  16.723  0.00  0.00    +0.000 C 
ATOM     10  N   UNL     1      48.596   2.522  16.782  0.00  0.00    +0.000 N 
ATOM     11  O   UNL     1      46.480   3.205  17.225  0.00  0.00    +0.000 OA
ATOM     12  H   UNL     1      49.498   2.751  16.379  0.00  0.00    +0.000 HD
ATOM     13  H   UNL     1      48.463   1.653  17.278  0.00  0.00    +0.000 HD
ENDBRANCH   6   9
BRANCH   1  14
ATOM     14  C   UNL     1      45.916   5.526  12.529  0.00  0.00    +0.000 C 
BRANCH  14  15
ATOM     15  C   UNL     1      45.395   5.953  11.151  0.00  0.00    +0.000 C 
BRANCH  15  20
ATOM     16  C   UNL     1      45.625   3.573   8.168  0.00  0.00    +0.000 A 
ATOM     17  C   UNL     1      44.957   2.451   8.677  0.00  0.00    +0.000 A 
ATOM     18  C   UNL     1      44.398   2.475   9.955  0.00  0.00    +0.000 A 
ATOM     19  C   UNL     1      44.514   3.615  10.749  0.00  0.00    +0.000 A 
ATOM     20  C   UNL     1      45.179   4.748  10.264  0.00  0.00    +0.000 A 
ATOM     21  C   UNL     1      45.721   4.722   8.970  0.00  0.00    +0.000 A 
BRANCH  16  22
ATOM     22  C   UNL     1      46.285   3.526   6.813  0.00  0.00    +0.000 C 
BRANCH  22  23
ATOM     23  N   UNL     1      47.705   3.213   6.903  0.00  0.00    +0.000 NA
ATOM     24  H   UNL     1      48.140   3.838   7.578  0.00  0.00    +0.000 HD
ATOM     25  H   UNL     1      48.140   3.410   6.003  0.00  0.00    +0.000 HD
ENDBRANCH  22  23
ENDBRANCH  16  22
ENDBRANCH  15  20
ENDBRANCH  14  15
ENDBRANCH   1  14
TORSDOF 6
ENDMDL
MODEL 5
REMARK VINA RESULT:    -6.643      4.167      7.640
REMARK INTER + INTRA:          -9.363
REMARK INTER:                  -9.008
REMARK INTRA:                  -0.354
REMARK UNBOUND:                -0.584
REMARK  Name = 
REMARK  6 active torsions:
REMARK  status: ('A' for Active; 'I' for Inactive)
REMARK    1  A    between atoms: N_1  and  C_2
REMARK    2  A    between atoms: C_2  and  C_3
REMARK    3  A    between atoms: C_7  and  C_8
REMARK    4  A    between atoms: C_8  and  C_9
REMARK    5  A    between atoms: C_9  and  N_10
REMARK    6  A    between atoms: C_15  and  C_16
REMARK                            x       y       z     vdW  Elec       q    Type
REMARK                         _______ _______ _______ _____ _____    ______ ____
ROOT
ATOM      1  N   UNL     1      46.995   5.040  14.886  0.00  0.00    +0.000 N 
ATOM      2  C   UNL     1      46.374   5.099  13.644  0.00  0.00    +0.000 A 
ATOM      3  N   UNL     1      46.687   6.159  12.887  0.00  0.00    +0.000 NA
ATOM      4  C   UNL     1      46.097   6.258  11.678  0.00  0.00    +0.000 A 
ATOM      5  C   UNL     1      45.217   5.332  11.191  0.00  0.00    +0.000 A 
ATOM      6  C   UNL     1      44.970   4.281  12.038  0.00  0.00    +0.000 A 
ATOM      7  N   UNL     1      45.528   4.138  13.265  0.00  0.00    +0.000 NA
ATOM      8  H   UNL     1      47.799   5.658  14.824  0.00  0.00    +0.000 HD
ENDROOT
BRANCH   6   9
ATOM      9  C   UNL     1      44.025   3.202  11.615  0.00  0.00    +0.000 C 
ATOM     10  N   UNL     1      43.757   2.249  12.559  0.00  0.00    +0.000 N 
ATOM     11  O   UNL     1      43.523   3.168  10.499  0.00  0.00    +0.000 OA
ATOM     12  H   UNL     1      44.169   2.322  13.482  0.00  0.00    +0.000 HD
ATOM     13  H   UNL     1      43.103   1.509  12.347  0.00  0.00    +0.000 HD
ENDBRANCH   6   9
BRANCH   1  14
ATOM     14  C   UNL     1      47.263   3.691  15.359  0.00  0.00    +0.000 C 
BRANCH  14  15
ATOM     15  C   UNL     1      47.425   3.673  16.884  0.00  0.00    +0.000 C 
BRANCH  15  20
ATOM     16  C   UNL     1      51.041   2.580  17.471  0.00  0.00    +0.000 A 
ATOM     17  C   UNL     1      51.639   3.809  17.781  0.00  0.00    +0.000 A 
ATOM     18  C   UNL     1      50.876   4.976  17.844  0.00  0.00    +0.000 A 
ATOM     19  C   UNL     1      49.507   4.932  17.581  0.00  0.00    +0.000 A 
ATOM     20  C   UNL     1      48.887   3.717  17.266  0.00  0.00    +0.000 A 
ATOM     21  C   UNL     1      49.659   2.545  17.225  0.00  0.00    +0.000 A 
BRANCH  16  22
ATOM     22  C   UNL     1      51.875   1.331  17.340  0.00  0.00    +0.000 C 
BRANCH  22  23
ATOM     23  N   UNL     1      51.387   0.251  18.189  0.00  0.00    +0.000 NA
ATOM     24  H   UNL     1      50.767   0.640  18.896  0.00  0.00    +0.000 HD
ATOM     25  H   UNL     1      52.177  -0.154  18.688  0.00  0.00    +0.000 HD
ENDBRANCH  22  23
ENDBRANCH  16  22
ENDBRANCH  15  20
ENDBRANCH  14  15
ENDBRANCH   1  14
TORSDOF 6
ENDMDL
MODEL 6
REMARK VINA RESULT:    -6.590      3.434      4.648
REMARK INTER + INTRA:          -9.293
REMARK INTER:                  -8.947
REMARK INTRA:                  -0.346
REMARK UNBOUND:                -0.584
REMARK  Name = 
REMARK  6 active torsions:
REMARK  status: ('A' for Active; 'I' for Inactive)
REMARK    1  A    between atoms: N_1  and  C_2
REMARK    2  A    between atoms: C_2  and  C_3
REMARK    3  A    between atoms: C_7  and  C_8
REMARK    4  A    between atoms: C_8  and  C_9
REMARK    5  A    between atoms: C_9  and  N_10
REMARK    6  A    between atoms: C_15  and  C_16
REMARK                            x       y       z     vdW  Elec       q    Type
REMARK                         _______ _______ _______ _____ _____    ______ ____
ROOT
ATOM      1  N   UNL     1      46.904   3.489  14.379  0.00  0.00    +0.000 N 
ATOM      2  C   UNL     1      47.587   3.490  15.589  0.00  0.00    +0.000 A 
ATOM      3  N   UNL     1      48.474   2.500  15.756  0.00  0.00    +0.000 NA
ATOM      4  C   UNL     1      49.151   2.460  16.922  0.00  0.00    +0.000 A 
ATOM      5  C   UNL     1      48.985   3.379  17.922  0.00  0.00    +0.000 A 
ATOM      6  C   UNL     1      48.061   4.356  17.648  0.00  0.00    +0.000 A 
ATOM      7  N   UNL     1      47.349   4.438  16.499  0.00  0.00    +0.000 NA
ATOM      8  H   UNL     1      47.454   2.913  13.749  0.00  0.00    +0.000 HD
ENDROOT
BRANCH   6   9
ATOM      9  C   UNL     1      47.794   5.420  18.665  0.00  0.00    +0.000 C 
ATOM     10  N   UNL     1      46.475   5.653  18.943  0.00  0.00    +0.000 N 
ATOM     11  O   UNL     1      48.691   6.045  19.215  0.00  0.00    +0.000 OA
ATOM     12  H   UNL     1      45.757   5.098  18.489  0.00  0.00    +0.000 HD
ATOM     13  H   UNL     1      46.226   6.337  19.643  0.00  0.00    +0.000 HD
ENDBRANCH   6   9
BRANCH   1  14
ATOM     14  C   UNL     1      46.551   4.813  13.888  0.00  0.00    +0.000 C 
BRANCH  14  15
ATOM     15  C   UNL     1      45.175   4.791  13.211  0.00  0.00    +0.000 C 
BRANCH  15  20
ATOM     16  C   UNL     1      45.010   3.276   9.705  0.00  0.00    +0.000 A 
ATOM     17  C   UNL     1      45.393   4.377   8.926  0.00  0.00    +0.000 A 
ATOM     18  C   UNL     1      45.744   5.586   9.527  0.00  0.00    +0.000 A 
ATOM     19  C   UNL     1      45.701   5.716  10.915  0.00  0.00    +0.000 A 
ATOM     20  C   UNL     1      45.319   4.632  11.714  0.00  0.00    +0.000 A 
ATOM     21  C   UNL     1      44.987   3.414  11.101  0.00  0.00    +0.000 A 
BRANCH  16  22
ATOM     22  C   UNL     1      44.569   1.990   9.053  0.00  0.00    +0.000 C 
BRANCH  22  23
ATOM     23  N   UNL     1      45.698   1.145   8.683  0.00  0.00    +0.000 NA
ATOM     24  H   UNL     1      45.462   0.174   8.874  0.00  0.00    +0.000 HD
ATOM     25  H   UNL     1      46.488   1.375   9.284  0.00  0.00    +0.000 HD
ENDBRANCH  22  23
ENDBRANCH  16  22
ENDBRANCH  15  20
ENDBRANCH  14  15
ENDBRANCH   1  14
TORSDOF 6
ENDMDL
MODEL 7
REMARK VINA RESULT:    -6.486      3.991      7.346
REMARK INTER + INTRA:          -9.156
REMARK INTER:                  -8.787
REMARK INTRA:                  -0.369
REMARK UNBOUND:                -0.584
REMARK  Name = 
REMARK  6 active torsions:
REMARK  status: ('A' for Active; 'I' for Inactive)
REMARK    1  A    between atoms: N_1  and  C_2
REMARK    2  A    between atoms: C_2  and  C_3
REMARK    3  A    between atoms: C_7  and  C_8
REMARK    4  A    between atoms: C_8  and  C_9
REMARK    5  A    between atoms: C_9  and  N_10
REMARK    6  A    between atoms: C_15  and  C_16
REMARK                            x       y       z     vdW  Elec       q    Type
REMARK                         _______ _______ _______ _____ _____    ______ ____
ROOT
ATOM      1  N   UNL     1      47.193   3.487  14.609  0.00  0.00    +0.000 N 
ATOM      2  C   UNL     1      46.348   3.944  13.605  0.00  0.00    +0.000 A 
ATOM      3  N   UNL     1      45.812   2.999  12.821  0.00  0.00    +0.000 NA
ATOM      4  C   UNL     1      44.993   3.403  11.828  0.00  0.00    +0.000 A 
ATOM      5  C   UNL     1      44.679   4.714  11.597  0.00  0.00    +0.000 A 
ATOM      6  C   UNL     1      45.273   5.602  12.459  0.00  0.00    +0.000 A 
ATOM      7  N   UNL     1      46.108   5.250  13.466  0.00  0.00    +0.000 NA
ATOM      8  H   UNL     1      46.975   2.502  14.729  0.00  0.00    +0.000 HD
ENDROOT
BRANCH   6   9
ATOM      9  C   UNL     1      45.004   7.065  12.307  0.00  0.00    +0.000 C 
ATOM     10  N   UNL     1      44.034   7.396  11.402  0.00  0.00    +0.000 N 
ATOM     11  O   UNL     1      45.611   7.915  12.947  0.00  0.00    +0.000 OA
ATOM     12  H   UNL     1      43.533   6.666  10.909  0.00  0.00    +0.000 HD
ATOM     13  H   UNL     1      43.783   8.366  11.273  0.00  0.00    +0.000 HD
ENDBRANCH   6   9
BRANCH   1  14
ATOM     14  C   UNL     1      47.181   4.295  15.818  0.00  0.00    +0.000 C 
BRANCH  14  15
ATOM     15  C   UNL     1      47.519   3.439  17.046  0.00  0.00    +0.000 C 
BRANCH  15  20
ATOM     16  C   UNL     1      51.166   2.360  17.431  0.00  0.00    +0.000 A 
ATOM     17  C   UNL     1      51.778   3.594  17.691  0.00  0.00    +0.000 A 
ATOM     18  C   UNL     1      51.017   4.760  17.784  0.00  0.00    +0.000 A 
ATOM     19  C   UNL     1      49.635   4.709  17.603  0.00  0.00    +0.000 A 
ATOM     20  C   UNL     1      49.001   3.490  17.340  0.00  0.00    +0.000 A 
ATOM     21  C   UNL     1      49.772   2.319  17.268  0.00  0.00    +0.000 A 
BRANCH  16  22
ATOM     22  C   UNL     1      51.994   1.110  17.267  0.00  0.00    +0.000 C 
BRANCH  22  23
ATOM     23  N   UNL     1      51.652   0.089  18.248  0.00  0.00    +0.000 NA
ATOM     24  H   UNL     1      51.744   0.483  19.182  0.00  0.00    +0.000 HD
ATOM     25  H   UNL     1      52.333  -0.666  18.184  0.00  0.00    +0.000 HD
ENDBRANCH  22  23
ENDBRANCH  16  22
ENDBRANCH  15  20
ENDBRANCH  14  15
ENDBRANCH   1  14
TORSDOF 6
ENDMDL
MODEL 8
REMARK VINA RESULT:    -6.232      3.777      5.567
REMARK INTER + INTRA:          -8.820
REMARK INTER:                  -8.533
REMARK INTRA:                  -0.286
REMARK UNBOUND:                -0.584
REMARK  Name = 
REMARK  6 active torsions:
REMARK  status: ('A' for Active; 'I' for Inactive)
REMARK    1  A    between atoms: N_1  and  C_2
REMARK    2  A    between atoms: C_2  and  C_3
REMARK    3  A    between atoms: C_7  and  C_8
REMARK    4  A    between atoms: C_8  and  C_9
REMARK    5  A    between atoms: C_9  and  N_10
REMARK    6  A    between atoms: C_15  and  C_16
REMARK                            x       y       z     vdW  Elec       q    Type
REMARK                         _______ _______ _______ _____ _____    ______ ____
ROOT
ATOM      1  N   UNL     1      46.464   4.577  15.105  0.00  0.00    +0.000 N 
ATOM      2  C   UNL     1      47.303   4.182  16.140  0.00  0.00    +0.000 A 
ATOM      3  N   UNL     1      46.797   3.274  16.984  0.00  0.00    +0.000 NA
ATOM      4  C   UNL     1      47.578   2.873  18.008  0.00  0.00    +0.000 A 
ATOM      5  C   UNL     1      48.849   3.333  18.213  0.00  0.00    +0.000 A 
ATOM      6  C   UNL     1      49.276   4.254  17.288  0.00  0.00    +0.000 A 
ATOM      7  N   UNL     1      48.530   4.697  16.247  0.00  0.00    +0.000 NA
ATOM      8  H   UNL     1      45.755   3.853  15.030  0.00  0.00    +0.000 HD
ENDROOT
BRANCH   6   9
ATOM      9  C   UNL     1      50.651   4.830  17.406  0.00  0.00    +0.000 C 
ATOM     10  N   UNL     1      50.867   5.987  16.710  0.00  0.00    +0.000 N 
ATOM     11  O   UNL     1      51.529   4.304  18.078  0.00  0.00    +0.000 OA
ATOM     12  H   UNL     1      50.110   6.410  16.185  0.00  0.00    +0.000 HD
ATOM     13  H   UNL     1      51.766   6.445  16.771  0.00  0.00    +0.000 HD
ENDBRANCH   6   9
BRANCH   1  14
ATOM     14  C   UNL     1      47.153   4.922  13.871  0.00  0.00    +0.000 C 
BRANCH  14  15
ATOM     15  C   UNL     1      46.489   6.131  13.199  0.00  0.00    +0.000 C 
BRANCH  15  20
ATOM     16  C   UNL     1      44.343   4.760  10.349  0.00  0.00    +0.000 A 
ATOM     17  C   UNL     1      43.085   4.716  10.966  0.00  0.00    +0.000 A 
ATOM     18  C   UNL     1      42.920   5.166  12.277  0.00  0.00    +0.000 A 
ATOM     19  C   UNL     1      44.013   5.650  12.993  0.00  0.00    +0.000 A 
ATOM     20  C   UNL     1      45.280   5.701  12.400  0.00  0.00    +0.000 A 
ATOM     21  C   UNL     1      45.433   5.265  11.075  0.00  0.00    +0.000 A 
BRANCH  16  22
ATOM     22  C   UNL     1      44.535   4.214   8.956  0.00  0.00    +0.000 C 
BRANCH  22  23
ATOM     23  N   UNL     1      45.661   4.836   8.272  0.00  0.00    +0.000 NA
ATOM     24  H   UNL     1      46.487   4.255   8.398  0.00  0.00    +0.000 HD
ATOM     25  H   UNL     1      45.863   5.728   8.721  0.00  0.00    +0.000 HD
ENDBRANCH  22  23
ENDBRANCH  16  22
ENDBRANCH  15  20
ENDBRANCH  14  15
ENDBRANCH   1  14
TORSDOF 6
ENDMDL
MODEL 9
REMARK VINA RESULT:    -6.158      3.286      5.188
REMARK INTER + INTRA:          -8.722
REMARK INTER:                  -8.322
REMARK INTRA:                  -0.400
REMARK UNBOUND:                -0.584
REMARK  Name = 
REMARK  6 active torsions:
REMARK  status: ('A' for Active; 'I' for Inactive)
REMARK    1  A    between atoms: N_1  and  C_2
REMARK    2  A    between atoms: C_2  and  C_3
REMARK    3  A    between atoms: C_7  and  C_8
REMARK    4  A    between atoms: C_8  and  C_9
REMARK    5  A    between atoms: C_9  and  N_10
REMARK    6  A    between atoms: C_15  and  C_16
REMARK                            x       y       z     vdW  Elec       q    Type
REMARK                         _______ _______ _______ _____ _____    ______ ____
ROOT
ATOM      1  N   UNL     1      47.678   6.883  13.515  0.00  0.00    +0.000 N 
ATOM      2  C   UNL     1      48.100   6.360  14.731  0.00  0.00    +0.000 A 
ATOM      3  N   UNL     1      48.778   7.201  15.523  0.00  0.00    +0.000 NA
ATOM      4  C   UNL     1      49.214   6.727  16.708  0.00  0.00    +0.000 A 
ATOM      5  C   UNL     1      48.986   5.450  17.139  0.00  0.00    +0.000 A 
ATOM      6  C   UNL     1      48.276   4.671  16.260  0.00  0.00    +0.000 A 
ATOM      7  N   UNL     1      47.822   5.094  15.055  0.00  0.00    +0.000 NA
ATOM      8  H   UNL     1      47.705   7.893  13.623  0.00  0.00    +0.000 HD
ENDROOT
BRANCH   6   9
ATOM      9  C   UNL     1      47.962   3.254  16.620  0.00  0.00    +0.000 C 
ATOM     10  N   UNL     1      46.872   3.078  17.428  0.00  0.00    +0.000 N 
ATOM     11  O   UNL     1      48.634   2.311  16.224  0.00  0.00    +0.000 OA
ATOM     12  H   UNL     1      46.322   3.879  17.716  0.00  0.00    +0.000 HD
ATOM     13  H   UNL     1      46.589   2.143  17.684  0.00  0.00    +0.000 HD
ENDBRANCH   6   9
BRANCH   1  14
ATOM     14  C   UNL     1      46.425   6.328  13.025  0.00  0.00    +0.000 C 
BRANCH  14  15
ATOM     15  C   UNL     1      46.210   6.695  11.551  0.00  0.00    +0.000 C 
BRANCH  15  20
ATOM     16  C   UNL     1      44.231   3.531  10.724  0.00  0.00    +0.000 A 
ATOM     17  C   UNL     1      44.453   3.436   9.343  0.00  0.00    +0.000 A 
ATOM     18  C   UNL     1      45.270   4.360   8.690  0.00  0.00    +0.000 A 
ATOM     19  C   UNL     1      45.862   5.400   9.405  0.00  0.00    +0.000 A 
ATOM     20  C   UNL     1      45.653   5.517  10.784  0.00  0.00    +0.000 A 
ATOM     21  C   UNL     1      44.846   4.572  11.437  0.00  0.00    +0.000 A 
BRANCH  16  22
ATOM     22  C   UNL     1      43.297   2.572  11.420  0.00  0.00    +0.000 C 
BRANCH  22  23
ATOM     23  N   UNL     1      43.590   2.453  12.843  0.00  0.00    +0.000 NA
ATOM     24  H   UNL     1      43.719   1.471  13.074  0.00  0.00    +0.000 HD
ATOM     25  H   UNL     1      42.778   2.771  13.370  0.00  0.00    +0.000 HD
ENDBRANCH  22  23
ENDBRANCH  16  22
ENDBRANCH  15  20
ENDBRANCH  14  15
ENDBRANCH   1  14
TORSDOF 6
ENDMDL
