MODEL 1
REMARK VINA RESULT:    -8.918      0.000      0.000
REMARK INTER + INTRA:         -12.816
REMARK INTER:                 -12.046
REMARK INTRA:                  -0.770
REMARK UNBOUND:                -0.770
REMARK  Name = 
REMARK  7 active torsions:
REMARK  status: ('A' for Active; 'I' for Inactive)
REMARK    1  A    between atoms: C_1  and  C_2
REMARK    2  A    between atoms: C_2  and  N_3
REMARK    3  A    between atoms: C_2  and  C_16
REMARK    4  A    between atoms: C_4  and  C_6
REMARK    5  A    between atoms: C_19  and  O_20
REMARK    6  A    between atoms: O_20  and  C_21
REMARK    7  A    between atoms: C_21  and  C_22
REMARK                            x       y       z     vdW  Elec       q    Type
REMARK                         _______ _______ _______ _____ _____    ______ ____
ROOT
ATOM      1  C   UNL     1      45.654   8.802  12.876  0.00  0.00    +0.000 C 
ATOM      2  C   UNL     1      46.660   7.648  12.838  0.00  0.00    +0.000 C 
ENDROOT
BRANCH   2   3
ATOM      3  C   UNL     1      46.017   6.430  12.192  0.00  0.00    +0.000 A 
ATOM      4  C   UNL     1      45.832   6.345  10.805  0.00  0.00    +0.000 A 
ATOM      5  C   UNL     1      45.339   5.168  10.231  0.00  0.00    +0.000 A 
ATOM      6  C   UNL     1      45.039   4.066  11.034  0.00  0.00    +0.000 A 
ATOM      7  C   UNL     1      45.141   4.173  12.419  0.00  0.00    +0.000 A 
ATOM      8  C   UNL     1      45.642   5.337  12.990  0.00  0.00    +0.000 A 
BRANCH   6   9
ATOM      9  O   UNL     1      44.678   2.915  10.380  0.00  0.00    +0.000 OA
BRANCH   9  10
ATOM     10  C   UNL     1      44.448   3.093   8.974  0.00  0.00    +0.000 C 
BRANCH  10  11
ATOM     11  C   UNL     1      45.591   2.566   8.143  0.00  0.00    +0.000 A 
ATOM     12  C   UNL     1      46.167   3.337   7.138  0.00  0.00    +0.000 A 
ATOM     13  C   UNL     1      47.210   2.797   6.394  0.00  0.00    +0.000 A 
ATOM     14  C   UNL     1      47.637   1.500   6.659  0.00  0.00    +0.000 A 
ATOM     15  C   UNL     1      46.997   0.790   7.658  0.00  0.00    +0.000 A 
ATOM     16  N   UNL     1      45.985   1.290   8.399  0.00  0.00    +0.000 NA
ENDBRANCH  10  11
ENDBRANCH   9  10
ENDBRANCH   6   9
ENDBRANCH   2   3
BRANCH   2  17
ATOM     17  N   UNL     1      47.128   7.259  14.163  0.00  0.00    +0.000 N 
ATOM     18  C   UNL     1      48.298   6.588  14.397  0.00  0.00    +0.000 C 
ATOM     19  O   UNL     1      49.084   6.285  13.502  0.00  0.00    +0.000 OA
ATOM     20  H   UNL     1      46.408   7.199  14.875  0.00  0.00    +0.000 HD
BRANCH  18  21
ATOM     21  C   UNL     1      48.613   6.321  15.805  0.00  0.00    +0.000 A 
ATOM     22  C   UNL     1      49.187   7.317  16.583  0.00  0.00    +0.000 A 
ATOM     23  S   UNL     1      49.446   6.853  18.204  0.00  0.00    +0.000 S 
ATOM     24  C   UNL     1      48.846   5.289  17.911  0.00  0.00    +0.000 A 
ATOM     25  N   UNL     1      48.813   4.353  18.898  0.00  0.00    +0.000 NA
ATOM     26  C   UNL     1      48.362   3.202  18.525  0.00  0.00    +0.000 A 
ATOM     27  N   UNL     1      47.933   2.902  17.257  0.00  0.00    +0.000 N 
ATOM     28  C   UNL     1      47.916   3.824  16.239  0.00  0.00    +0.000 A 
ATOM     29  O   UNL     1      47.475   3.546  15.128  0.00  0.00    +0.000 OA
ATOM     30  C   UNL     1      48.431   5.132  16.600  0.00  0.00    +0.000 A 
ATOM     31  H   UNL     1      47.579   1.983  17.033  0.00  0.00    +0.000 HD
ENDBRANCH  18  21
ENDBRANCH   2  17
TORSDOF 6
ENDMDL
MODEL 2
REMARK VINA RESULT:    -8.498      1.523      1.882
REMARK INTER + INTRA:         -12.249
REMARK INTER:                 -11.226
REMARK INTRA:                  -1.024
REMARK UNBOUND:                -0.770
REMARK  Name = 
REMARK  7 active torsions:
REMARK  status: ('A' for Active; 'I' for Inactive)
REMARK    1  A    between atoms: C_1  and  C_2
REMARK    2  A    between atoms: C_2  and  N_3
REMARK    3  A    between atoms: C_2  and  C_16
REMARK    4  A    between atoms: C_4  and  C_6
REMARK    5  A    between atoms: C_19  and  O_20
REMARK    6  A    between atoms: O_20  and  C_21
REMARK    7  A    between atoms: C_21  and  C_22
REMARK                            x       y       z     vdW  Elec       q    Type
REMARK                         _______ _______ _______ _____ _____    ______ ____
ROOT
ATOM      1  C   UNL     1      48.248   8.361  12.868  0.00  0.00    +0.000 C 
ATOM      2  C   UNL     1      48.255   6.941  13.444  0.00  0.00    +0.000 C 
ENDROOT
BRANCH   2   3
ATOM      3  C   UNL     1      47.100   6.146  12.857  0.00  0.00    +0.000 A 
ATOM      4  C   UNL     1      46.364   6.617  11.761  0.00  0.00    +0.000 A 
ATOM      5  C   UNL     1      45.379   5.813  11.176  0.00  0.00    +0.000 A 
ATOM      6  C   UNL     1      45.131   4.532  11.671  0.00  0.00    +0.000 A 
ATOM      7  C   UNL     1      45.800   4.092  12.810  0.00  0.00    +0.000 A 
ATOM      8  C   UNL     1      46.787   4.883  13.386  0.00  0.00    +0.000 A 
BRANCH   6   9
ATOM      9  O   UNL     1      44.238   3.767  10.965  0.00  0.00    +0.000 OA
BRANCH   9  10
ATOM     10  C   UNL     1      44.124   4.135   9.581  0.00  0.00    +0.000 C 
BRANCH  10  11
ATOM     11  C   UNL     1      45.134   3.420   8.720  0.00  0.00    +0.000 A 
ATOM     12  C   UNL     1      45.377   2.058   8.872  0.00  0.00    +0.000 A 
ATOM     13  C   UNL     1      46.329   1.452   8.059  0.00  0.00    +0.000 A 
ATOM     14  C   UNL     1      47.023   2.222   7.131  0.00  0.00    +0.000 A 
ATOM     15  C   UNL     1      46.741   3.573   7.058  0.00  0.00    +0.000 A 
ATOM     16  N   UNL     1      45.820   4.187   7.831  0.00  0.00    +0.000 NA
ENDBRANCH  10  11
ENDBRANCH   9  10
ENDBRANCH   6   9
ENDBRANCH   2   3
BRANCH   2  17
ATOM     17  N   UNL     1      48.127   6.918  14.896  0.00  0.00    +0.000 N 
ATOM     18  C   UNL     1      49.180   6.770  15.757  0.00  0.00    +0.000 C 
ATOM     19  O   UNL     1      50.345   6.682  15.377  0.00  0.00    +0.000 OA
ATOM     20  H   UNL     1      47.204   6.675  15.244  0.00  0.00    +0.000 HD
BRANCH  18  21
ATOM     21  C   UNL     1      48.850   6.809  17.187  0.00  0.00    +0.000 A 
ATOM     22  C   UNL     1      48.489   8.012  17.776  0.00  0.00    +0.000 A 
ATOM     23  S   UNL     1      48.096   7.871  19.431  0.00  0.00    +0.000 S 
ATOM     24  C   UNL     1      48.441   6.206  19.428  0.00  0.00    +0.000 A 
ATOM     25  N   UNL     1      48.333   5.464  20.563  0.00  0.00    +0.000 NA
ATOM     26  C   UNL     1      48.656   4.223  20.420  0.00  0.00    +0.000 A 
ATOM     27  N   UNL     1      49.070   3.651  19.245  0.00  0.00    +0.000 N 
ATOM     28  C   UNL     1      49.162   4.353  18.068  0.00  0.00    +0.000 A 
ATOM     29  O   UNL     1      49.482   3.805  17.017  0.00  0.00    +0.000 OA
ATOM     30  C   UNL     1      48.827   5.760  18.175  0.00  0.00    +0.000 A 
ATOM     31  H   UNL     1      49.298   2.668  19.197  0.00  0.00    +0.000 HD
ENDBRANCH  18  21
ENDBRANCH   2  17
TORSDOF 6
ENDMDL
MODEL 3
REMARK VINA RESULT:    -8.162      2.254      3.008
REMARK INTER + INTRA:         -11.795
REMARK INTER:                 -10.608
REMARK INTRA:                  -1.187
REMARK UNBOUND:                -0.770
REMARK  Name = 
REMARK  7 active torsions:
REMARK  status: ('A' for Active; 'I' for Inactive)
REMARK    1  A    between atoms: C_1  and  C_2
REMARK    2  A    between atoms: C_2  and  N_3
REMARK    3  A    between atoms: C_2  and  C_16
REMARK    4  A    between atoms: C_4  and  C_6
REMARK    5  A    between atoms: C_19  and  O_20
REMARK    6  A    between atoms: O_20  and  C_21
REMARK    7  A    between atoms: C_21  and  C_22
REMARK                            x       y       z     vdW  Elec       q    Type
REMARK                         _______ _______ _______ _____ _____    ______ ____
ROOT
ATOM      1  C   UNL     1      48.104   8.504  13.204  0.00  0.00    +0.000 C 
ATOM      2  C   UNL     1      48.157   7.047  13.673  0.00  0.00    +0.000 C 
ENDROOT
BRANCH   2   3
ATOM      3  C   UNL     1      47.050   6.253  12.998  0.00  0.00    +0.000 A 
ATOM      4  C   UNL     1      46.477   6.671  11.789  0.00  0.00    +0.000 A 
ATOM      5  C   UNL     1      45.539   5.862  11.138  0.00  0.00    +0.000 A 
ATOM      6  C   UNL     1      45.176   4.628  11.679  0.00  0.00    +0.000 A 
ATOM      7  C   UNL     1      45.679   4.246  12.921  0.00  0.00    +0.000 A 
ATOM      8  C   UNL     1      46.619   5.042  13.564  0.00  0.00    +0.000 A 
BRANCH   6   9
ATOM      9  O   UNL     1      44.346   3.847  10.917  0.00  0.00    +0.000 OA
BRANCH   9  10
ATOM     10  C   UNL     1      44.275   4.246   9.539  0.00  0.00    +0.000 C 
BRANCH  10  11
ATOM     11  C   UNL     1      45.221   3.454   8.671  0.00  0.00    +0.000 A 
ATOM     12  C   UNL     1      45.419   2.092   8.876  0.00  0.00    +0.000 A 
ATOM     13  C   UNL     1      46.313   1.414   8.054  0.00  0.00    +0.000 A 
ATOM     14  C   UNL     1      46.994   2.114   7.064  0.00  0.00    +0.000 A 
ATOM     15  C   UNL     1      46.759   3.471   6.940  0.00  0.00    +0.000 A 
ATOM     16  N   UNL     1      45.896   4.154   7.720  0.00  0.00    +0.000 NA
ENDBRANCH  10  11
ENDBRANCH   9  10
ENDBRANCH   6   9
ENDBRANCH   2   3
BRANCH   2  17
ATOM     17  N   UNL     1      47.994   6.910  15.115  0.00  0.00    +0.000 N 
ATOM     18  C   UNL     1      49.002   6.556  15.971  0.00  0.00    +0.000 C 
ATOM     19  O   UNL     1      50.155   6.359  15.598  0.00  0.00    +0.000 OA
ATOM     20  H   UNL     1      47.041   6.752  15.430  0.00  0.00    +0.000 HD
BRANCH  18  21
ATOM     21  C   UNL     1      48.647   6.507  17.395  0.00  0.00    +0.000 A 
ATOM     22  C   UNL     1      48.736   5.307  18.086  0.00  0.00    +0.000 A 
ATOM     23  S   UNL     1      48.329   5.439  19.737  0.00  0.00    +0.000 S 
ATOM     24  C   UNL     1      47.974   7.094  19.576  0.00  0.00    +0.000 A 
ATOM     25  N   UNL     1      47.532   7.824  20.635  0.00  0.00    +0.000 NA
ATOM     26  C   UNL     1      47.272   9.058  20.359  0.00  0.00    +0.000 A 
ATOM     27  N   UNL     1      47.421   9.633  19.123  0.00  0.00    +0.000 N 
ATOM     28  C   UNL     1      47.895   8.944  18.034  0.00  0.00    +0.000 A 
ATOM     29  O   UNL     1      48.072   9.495  16.952  0.00  0.00    +0.000 OA
ATOM     30  C   UNL     1      48.186   7.544  18.284  0.00  0.00    +0.000 A 
ATOM     31  H   UNL     1      47.211  10.610  18.976  0.00  0.00    +0.000 HD
ENDBRANCH  18  21
ENDBRANCH   2  17
TORSDOF 6
ENDMDL
MODEL 4
REMARK VINA RESULT:    -7.865      2.819      4.035
REMARK INTER + INTRA:         -11.394
REMARK INTER:                 -10.230
REMARK INTRA:                  -1.164
REMARK UNBOUND:                -0.770
REMARK  Name = 
REMARK  7 active torsions:
REMARK  status: ('A' for Active; 'I' for Inactive)
REMARK    1  A    between atoms: C_1  and  C_2
REMARK    2  A    between atoms: C_2  and  N_3
REMARK    3  A    between atoms: C_2  and  C_16
REMARK    4  A    between atoms: C_4  and  C_6
REMARK    5  A    between atoms: C_19  and  O_20
REMARK    6  A    between atoms: O_20  and  C_21
REMARK    7  A    between atoms: C_21  and  C_22
REMARK                            x       y       z     vdW  Elec       q    Type
REMARK                         _______ _______ _______ _____ _____    ______ ____
ROOT
ATOM      1  C   UNL     1      47.156   4.526  14.987  0.00  0.00    +0.000 C 
ATOM      2  C   UNL     1      46.735   5.682  14.074  0.00  0.00    +0.000 C 
ENDROOT
BRANCH   2   3
ATOM      3  C   UNL     1      45.924   5.141  12.907  0.00  0.00    +0.000 A 
ATOM      4  C   UNL     1      45.563   5.954  11.823  0.00  0.00    +0.000 A 
ATOM      5  C   UNL     1      44.912   5.401  10.715  0.00  0.00    +0.000 A 
ATOM      6  C   UNL     1      44.627   4.035  10.674  0.00  0.00    +0.000 A 
ATOM      7  C   UNL     1      44.907   3.240  11.783  0.00  0.00    +0.000 A 
ATOM      8  C   UNL     1      45.565   3.784  12.880  0.00  0.00    +0.000 A 
BRANCH   6   9
ATOM      9  O   UNL     1      44.099   3.556   9.503  0.00  0.00    +0.000 OA
BRANCH   9  10
ATOM     10  C   UNL     1      44.518   2.222   9.179  0.00  0.00    +0.000 C 
BRANCH  10  11
ATOM     11  C   UNL     1      45.658   2.210   8.191  0.00  0.00    +0.000 A 
ATOM     12  C   UNL     1      45.910   3.302   7.367  0.00  0.00    +0.000 A 
ATOM     13  C   UNL     1      46.966   3.232   6.465  0.00  0.00    +0.000 A 
ATOM     14  C   UNL     1      47.730   2.072   6.399  0.00  0.00    +0.000 A 
ATOM     15  C   UNL     1      47.401   1.022   7.236  0.00  0.00    +0.000 A 
ATOM     16  N   UNL     1      46.385   1.063   8.122  0.00  0.00    +0.000 NA
ENDBRANCH  10  11
ENDBRANCH   9  10
ENDBRANCH   6   9
ENDBRANCH   2   3
BRANCH   2  17
ATOM     17  N   UNL     1      47.870   6.417  13.530  0.00  0.00    +0.000 N 
ATOM     18  C   UNL     1      47.935   7.782  13.453  0.00  0.00    +0.000 C 
ATOM     19  O   UNL     1      47.046   8.517  13.877  0.00  0.00    +0.000 OA
ATOM     20  H   UNL     1      48.467   5.888  12.902  0.00  0.00    +0.000 HD
BRANCH  18  21
ATOM     21  C   UNL     1      49.180   8.336  12.908  0.00  0.00    +0.000 A 
ATOM     22  C   UNL     1      49.154   9.043  11.715  0.00  0.00    +0.000 A 
ATOM     23  S   UNL     1      50.678   9.652  11.248  0.00  0.00    +0.000 S 
ATOM     24  C   UNL     1      51.434   8.951  12.601  0.00  0.00    +0.000 A 
ATOM     25  N   UNL     1      52.775   9.071  12.797  0.00  0.00    +0.000 NA
ATOM     26  C   UNL     1      53.216   8.462  13.846  0.00  0.00    +0.000 A 
ATOM     27  N   UNL     1      52.439   7.750  14.723  0.00  0.00    +0.000 N 
ATOM     28  C   UNL     1      51.078   7.630  14.584  0.00  0.00    +0.000 A 
ATOM     29  O   UNL     1      50.397   7.034  15.414  0.00  0.00    +0.000 OA
ATOM     30  C   UNL     1      50.531   8.281  13.409  0.00  0.00    +0.000 A 
ATOM     31  H   UNL     1      52.845   7.306  15.534  0.00  0.00    +0.000 HD
ENDBRANCH  18  21
ENDBRANCH   2  17
TORSDOF 6
ENDMDL
MODEL 5
REMARK VINA RESULT:    -7.411      3.017      5.058
REMARK INTER + INTRA:         -10.780
REMARK INTER:                  -9.716
REMARK INTRA:                  -1.064
REMARK UNBOUND:                -0.770
REMARK  Name = 
REMARK  7 active torsions:
REMARK  status: ('A' for Active; 'I' for Inactive)
REMARK    1  A    between atoms: C_1  and  C_2
REMARK    2  A    between atoms: C_2  and  N_3
REMARK    3  A    between atoms: C_2  and  C_16
REMARK    4  A    between atoms: C_4  and  C_6
REMARK    5  A    between atoms: C_19  and  O_20
REMARK    6  A    between atoms: O_20  and  C_21
REMARK    7  A    between atoms: C_21  and  C_22
REMARK                            x       y       z     vdW  Elec       q    Type
REMARK                         _______ _______ _______ _____ _____    ______ ____
ROOT
ATOM      1  C   UNL     1      47.357   4.798  14.861  0.00  0.00    +0.000 C 
ATOM      2  C   UNL     1      46.826   5.902  13.941  0.00  0.00    +0.000 C 
ENDROOT
BRANCH   2   3
ATOM      3  C   UNL     1      45.986   5.285  12.835  0.00  0.00    +0.000 A 
ATOM      4  C   UNL     1      45.588   6.026  11.713  0.00  0.00    +0.000 A 
ATOM      5  C   UNL     1      44.909   5.401  10.661  0.00  0.00    +0.000 A 
ATOM      6  C   UNL     1      44.635   4.034  10.713  0.00  0.00    +0.000 A 
ATOM      7  C   UNL     1      44.954   3.311  11.860  0.00  0.00    +0.000 A 
ATOM      8  C   UNL     1      45.638   3.926  12.902  0.00  0.00    +0.000 A 
BRANCH   6   9
ATOM      9  O   UNL     1      44.078   3.480   9.590  0.00  0.00    +0.000 OA
BRANCH   9  10
ATOM     10  C   UNL     1      44.598   2.182   9.261  0.00  0.00    +0.000 C 
BRANCH  10  11
ATOM     11  C   UNL     1      45.656   2.251   8.189  0.00  0.00    +0.000 A 
ATOM     12  C   UNL     1      46.555   1.208   7.993  0.00  0.00    +0.000 A 
ATOM     13  C   UNL     1      47.518   1.330   6.997  0.00  0.00    +0.000 A 
ATOM     14  C   UNL     1      47.569   2.494   6.238  0.00  0.00    +0.000 A 
ATOM     15  C   UNL     1      46.656   3.495   6.510  0.00  0.00    +0.000 A 
ATOM     16  N   UNL     1      45.709   3.402   7.466  0.00  0.00    +0.000 NA
ENDBRANCH  10  11
ENDBRANCH   9  10
ENDBRANCH   6   9
ENDBRANCH   2   3
BRANCH   2  17
ATOM     17  N   UNL     1      47.889   6.681  13.318  0.00  0.00    +0.000 N 
ATOM     18  C   UNL     1      48.299   7.911  13.759  0.00  0.00    +0.000 C 
ATOM     19  O   UNL     1      47.826   8.454  14.754  0.00  0.00    +0.000 OA
ATOM     20  H   UNL     1      48.089   6.444  12.352  0.00  0.00    +0.000 HD
BRANCH  18  21
ATOM     21  C   UNL     1      49.411   8.519  13.019  0.00  0.00    +0.000 A 
ATOM     22  C   UNL     1      50.710   8.094  13.259  0.00  0.00    +0.000 A 
ATOM     23  S   UNL     1      51.874   8.873  12.285  0.00  0.00    +0.000 S 
ATOM     24  C   UNL     1      50.688   9.840  11.543  0.00  0.00    +0.000 A 
ATOM     25  N   UNL     1      51.023  10.768  10.607  0.00  0.00    +0.000 NA
ATOM     26  C   UNL     1      50.025  11.450  10.153  0.00  0.00    +0.000 A 
ATOM     27  N   UNL     1      48.721  11.284  10.543  0.00  0.00    +0.000 N 
ATOM     28  C   UNL     1      48.332  10.338  11.459  0.00  0.00    +0.000 A 
ATOM     29  O   UNL     1      47.151  10.172  11.749  0.00  0.00    +0.000 OA
ATOM     30  C   UNL     1      49.418   9.554  12.016  0.00  0.00    +0.000 A 
ATOM     31  H   UNL     1      47.983  11.843  10.139  0.00  0.00    +0.000 HD
ENDBRANCH  18  21
ENDBRANCH   2  17
TORSDOF 6
ENDMDL
MODEL 6
REMARK VINA RESULT:    -7.390      2.624      4.360
REMARK INTER + INTRA:         -10.752
REMARK INTER:                  -9.491
REMARK INTRA:                  -1.261
REMARK UNBOUND:                -0.770
REMARK  Name = 
REMARK  7 active torsions:
REMARK  status: ('A' for Active; 'I' for Inactive)
REMARK    1  A    between atoms: C_1  and  C_2
REMARK    2  A    between atoms: C_2  and  N_3
REMARK    3  A    between atoms: C_2  and  C_16
REMARK    4  A    between atoms: C_4  and  C_6
REMARK    5  A    between atoms: C_19  and  O_20
REMARK    6  A    between atoms: O_20  and  C_21
REMARK    7  A    between atoms: C_21  and  C_22
REMARK                            x       y       z     vdW  Elec       q    Type
REMARK                         _______ _______ _______ _____ _____    ______ ____
ROOT
ATOM      1  C   UNL     1      47.427   4.132  15.816  0.00  0.00    +0.000 C 
ATOM      2  C   UNL     1      47.163   5.355  14.933  0.00  0.00    +0.000 C 
ENDROOT
BRANCH   2   3
ATOM      3  C   UNL     1      46.452   4.923  13.660  0.00  0.00    +0.000 A 
ATOM      4  C   UNL     1      46.219   3.571  13.371  0.00  0.00    +0.000 A 
ATOM      5  C   UNL     1      45.466   3.210  12.248  0.00  0.00    +0.000 A 
ATOM      6  C   UNL     1      44.931   4.194  11.414  0.00  0.00    +0.000 A 
ATOM      7  C   UNL     1      45.229   5.534  11.649  0.00  0.00    +0.000 A 
ATOM      8  C   UNL     1      45.966   5.895  12.770  0.00  0.00    +0.000 A 
BRANCH   6   9
ATOM      9  O   UNL     1      44.106   3.758  10.409  0.00  0.00    +0.000 OA
BRANCH   9  10
ATOM     10  C   UNL     1      44.457   4.261   9.110  0.00  0.00    +0.000 C 
BRANCH  10  11
ATOM     11  C   UNL     1      45.369   3.318   8.366  0.00  0.00    +0.000 A 
ATOM     12  C   UNL     1      45.490   1.984   8.742  0.00  0.00    +0.000 A 
ATOM     13  C   UNL     1      46.356   1.162   8.028  0.00  0.00    +0.000 A 
ATOM     14  C   UNL     1      47.087   1.696   6.972  0.00  0.00    +0.000 A 
ATOM     15  C   UNL     1      46.927   3.036   6.675  0.00  0.00    +0.000 A 
ATOM     16  N   UNL     1      46.093   3.856   7.348  0.00  0.00    +0.000 NA
ENDBRANCH  10  11
ENDBRANCH   9  10
ENDBRANCH   6   9
ENDBRANCH   2   3
BRANCH   2  17
ATOM     17  N   UNL     1      48.385   6.052  14.550  0.00  0.00    +0.000 N 
ATOM     18  C   UNL     1      48.964   7.048  15.290  0.00  0.00    +0.000 C 
ATOM     19  O   UNL     1      48.520   7.418  16.374  0.00  0.00    +0.000 OA
ATOM     20  H   UNL     1      48.611   6.018  13.561  0.00  0.00    +0.000 HD
BRANCH  18  21
ATOM     21  C   UNL     1      50.214   7.600  14.755  0.00  0.00    +0.000 A 
ATOM     22  C   UNL     1      51.377   7.526  15.507  0.00  0.00    +0.000 A 
ATOM     23  S   UNL     1      52.744   8.175  14.719  0.00  0.00    +0.000 S 
ATOM     24  C   UNL     1      51.818   8.623  13.364  0.00  0.00    +0.000 A 
ATOM     25  N   UNL     1      52.385   9.265  12.307  0.00  0.00    +0.000 NA
ATOM     26  C   UNL     1      51.558   9.571  11.364  0.00  0.00    +0.000 A 
ATOM     27  N   UNL     1      50.217   9.287  11.377  0.00  0.00    +0.000 N 
ATOM     28  C   UNL     1      49.608   8.612  12.406  0.00  0.00    +0.000 A 
ATOM     29  O   UNL     1      48.416   8.321  12.367  0.00  0.00    +0.000 OA
ATOM     30  C   UNL     1      50.490   8.259  13.502  0.00  0.00    +0.000 A 
ATOM     31  H   UNL     1      49.625   9.544  10.600  0.00  0.00    +0.000 HD
ENDBRANCH  18  21
ENDBRANCH   2  17
TORSDOF 6
ENDMDL
MODEL 7
REMARK VINA RESULT:    -7.358      3.338      7.963
REMARK INTER + INTRA:         -10.709
REMARK INTER:                  -9.578
REMARK INTRA:                  -1.131
REMARK UNBOUND:                -0.770
REMARK  Name = 
REMARK  7 active torsions:
REMARK  status: ('A' for Active; 'I' for Inactive)
REMARK    1  A    between atoms: C_1  and  C_2
REMARK    2  A    between atoms: C_2  and  N_3
REMARK    3  A    between atoms: C_2  and  C_16
REMARK    4  A    between atoms: C_4  and  C_6
REMARK    5  A    between atoms: C_19  and  O_20
REMARK    6  A    between atoms: O_20  and  C_21
REMARK    7  A    between atoms: C_21  and  C_22
REMARK                            x       y       z     vdW  Elec       q    Type
REMARK                         _______ _______ _______ _____ _____    ______ ____
ROOT
ATOM      1  C   UNL     1      49.386   8.481  11.418  0.00  0.00    +0.000 C 
ATOM      2  C   UNL     1      48.285   7.939  12.334  0.00  0.00    +0.000 C 
ENDROOT
BRANCH   2   3
ATOM      3  C   UNL     1      48.903   7.416  13.621  0.00  0.00    +0.000 A 
ATOM      4  C   UNL     1      50.192   7.791  14.023  0.00  0.00    +0.000 A 
ATOM      5  C   UNL     1      50.690   7.380  15.266  0.00  0.00    +0.000 A 
ATOM      6  C   UNL     1      49.902   6.605  16.118  0.00  0.00    +0.000 A 
ATOM      7  C   UNL     1      48.654   6.160  15.689  0.00  0.00    +0.000 A 
ATOM      8  C   UNL     1      48.153   6.576  14.461  0.00  0.00    +0.000 A 
BRANCH   6   9
ATOM      9  O   UNL     1      50.418   6.351  17.363  0.00  0.00    +0.000 OA
BRANCH   9  10
ATOM     10  C   UNL     1      49.807   5.235  18.029  0.00  0.00    +0.000 C 
BRANCH  10  11
ATOM     11  C   UNL     1      50.609   3.969  17.865  0.00  0.00    +0.000 A 
ATOM     12  C   UNL     1      50.026   2.802  17.381  0.00  0.00    +0.000 A 
ATOM     13  C   UNL     1      50.810   1.660  17.261  0.00  0.00    +0.000 A 
ATOM     14  C   UNL     1      52.147   1.708  17.644  0.00  0.00    +0.000 A 
ATOM     15  C   UNL     1      52.645   2.899  18.138  0.00  0.00    +0.000 A 
ATOM     16  N   UNL     1      51.909   4.023  18.261  0.00  0.00    +0.000 NA
ENDBRANCH  10  11
ENDBRANCH   9  10
ENDBRANCH   6   9
ENDBRANCH   2   3
BRANCH   2  17
ATOM     17  N   UNL     1      47.526   6.853  11.726  0.00  0.00    +0.000 N 
ATOM     18  C   UNL     1      46.178   6.898  11.488  0.00  0.00    +0.000 C 
ATOM     19  O   UNL     1      45.490   7.886  11.734  0.00  0.00    +0.000 OA
ATOM     20  H   UNL     1      47.955   5.935  11.792  0.00  0.00    +0.000 HD
BRANCH  18  21
ATOM     21  C   UNL     1      45.603   5.718  10.832  0.00  0.00    +0.000 A 
ATOM     22  C   UNL     1      45.783   5.532   9.469  0.00  0.00    +0.000 A 
ATOM     23  S   UNL     1      45.087   4.090   8.879  0.00  0.00    +0.000 S 
ATOM     24  C   UNL     1      44.480   3.689  10.415  0.00  0.00    +0.000 A 
ATOM     25  N   UNL     1      43.745   2.560  10.607  0.00  0.00    +0.000 NA
ATOM     26  C   UNL     1      43.322   2.399  11.816  0.00  0.00    +0.000 A 
ATOM     27  N   UNL     1      43.574   3.258  12.855  0.00  0.00    +0.000 N 
ATOM     28  C   UNL     1      44.338   4.391  12.716  0.00  0.00    +0.000 A 
ATOM     29  O   UNL     1      44.596   5.114  13.674  0.00  0.00    +0.000 OA
ATOM     30  C   UNL     1      44.824   4.630  11.370  0.00  0.00    +0.000 A 
ATOM     31  H   UNL     1      43.224   3.068  13.783  0.00  0.00    +0.000 HD
ENDBRANCH  18  21
ENDBRANCH   2  17
TORSDOF 6
ENDMDL
MODEL 8
REMARK VINA RESULT:    -7.270      2.812      7.988
REMARK INTER + INTRA:         -10.590
REMARK INTER:                  -9.155
REMARK INTRA:                  -1.435
REMARK UNBOUND:                -0.770
REMARK  Name = 
REMARK  7 active torsions:
REMARK  status: ('A' for Active; 'I' for Inactive)
REMARK    1  A    between atoms: C_1  and  C_2
REMARK    2  A    between atoms: C_2  and  N_3
REMARK    3  A    between atoms: C_2  and  C_16
REMARK    4  A    between atoms: C_4  and  C_6
REMARK    5  A    between atoms: C_19  and  O_20
REMARK    6  A    between atoms: O_20  and  C_21
REMARK    7  A    between atoms: C_21  and  C_22
REMARK                            x       y       z     vdW  Elec       q    Type
REMARK                         _______ _______ _______ _____ _____    ______ ____
ROOT
ATOM      1  C   UNL     1      49.238   7.916  11.287  0.00  0.00    +0.000 C 
ATOM      2  C   UNL     1      48.024   7.916  12.222  0.00  0.00    +0.000 C 
ENDROOT
BRANCH   2   3
ATOM      3  C   UNL     1      48.493   7.938  13.668  0.00  0.00    +0.000 A 
ATOM      4  C   UNL     1      47.789   8.636  14.659  0.00  0.00    +0.000 A 
ATOM      5  C   UNL     1      48.184   8.547  15.999  0.00  0.00    +0.000 A 
ATOM      6  C   UNL     1      49.273   7.753  16.360  0.00  0.00    +0.000 A 
ATOM      7  C   UNL     1      50.026   7.125  15.371  0.00  0.00    +0.000 A 
ATOM      8  C   UNL     1      49.629   7.202  14.042  0.00  0.00    +0.000 A 
BRANCH   6   9
ATOM      9  O   UNL     1      49.516   7.625  17.704  0.00  0.00    +0.000 OA
BRANCH   9  10
ATOM     10  C   UNL     1      48.500   6.898  18.412  0.00  0.00    +0.000 C 
BRANCH  10  11
ATOM     11  C   UNL     1      48.471   5.441  18.022  0.00  0.00    +0.000 A 
ATOM     12  C   UNL     1      49.610   4.647  18.113  0.00  0.00    +0.000 A 
ATOM     13  C   UNL     1      49.530   3.313  17.729  0.00  0.00    +0.000 A 
ATOM     14  C   UNL     1      48.323   2.813  17.250  0.00  0.00    +0.000 A 
ATOM     15  C   UNL     1      47.244   3.672  17.168  0.00  0.00    +0.000 A 
ATOM     16  N   UNL     1      47.291   4.969  17.537  0.00  0.00    +0.000 NA
ENDBRANCH  10  11
ENDBRANCH   9  10
ENDBRANCH   6   9
ENDBRANCH   2   3
BRANCH   2  17
ATOM     17  N   UNL     1      47.171   6.748  12.043  0.00  0.00    +0.000 N 
ATOM     18  C   UNL     1      45.803   6.789  12.045  0.00  0.00    +0.000 C 
ATOM     19  O   UNL     1      45.168   7.833  12.161  0.00  0.00    +0.000 OA
ATOM     20  H   UNL     1      47.609   5.856  12.254  0.00  0.00    +0.000 HD
BRANCH  18  21
ATOM     21  C   UNL     1      45.123   5.509  11.811  0.00  0.00    +0.000 A 
ATOM     22  C   UNL     1      44.422   4.904  12.844  0.00  0.00    +0.000 A 
ATOM     23  S   UNL     1      43.657   3.448  12.390  0.00  0.00    +0.000 S 
ATOM     24  C   UNL     1      44.276   3.552  10.809  0.00  0.00    +0.000 A 
ATOM     25  N   UNL     1      44.017   2.585   9.888  0.00  0.00    +0.000 NA
ATOM     26  C   UNL     1      44.576   2.778   8.741  0.00  0.00    +0.000 A 
ATOM     27  N   UNL     1      45.365   3.854   8.426  0.00  0.00    +0.000 N 
ATOM     28  C   UNL     1      45.626   4.871   9.312  0.00  0.00    +0.000 A 
ATOM     29  O   UNL     1      46.290   5.851   8.987  0.00  0.00    +0.000 OA
ATOM     30  C   UNL     1      45.036   4.695  10.625  0.00  0.00    +0.000 A 
ATOM     31  H   UNL     1      45.764   3.953   7.504  0.00  0.00    +0.000 HD
ENDBRANCH  18  21
ENDBRANCH   2  17
TORSDOF 6
ENDMDL
MODEL 9
REMARK VINA RESULT:    -7.198      3.952      6.489
REMARK INTER + INTRA:         -10.492
REMARK INTER:                  -9.202
REMARK INTRA:                  -1.291
REMARK UNBOUND:                -0.770
REMARK  Name = 
REMARK  7 active torsions:
REMARK  status: ('A' for Active; 'I' for Inactive)
REMARK    1  A    between atoms: C_1  and  C_2
REMARK    2  A    between atoms: C_2  and  N_3
REMARK    3  A    between atoms: C_2  and  C_16
REMARK    4  A    between atoms: C_4  and  C_6
REMARK    5  A    between atoms: C_19  and  O_20
REMARK    6  A    between atoms: O_20  and  C_21
REMARK    7  A    between atoms: C_21  and  C_22
REMARK                            x       y       z     vdW  Elec       q    Type
REMARK                         _______ _______ _______ _____ _____    ______ ____
ROOT
ATOM      1  C   UNL     1      48.857   4.798  20.892  0.00  0.00    +0.000 C 
ATOM      2  C   UNL     1      49.675   5.012  19.615  0.00  0.00    +0.000 C 
ENDROOT
BRANCH   2   3
ATOM      3  C   UNL     1      48.819   4.689  18.400  0.00  0.00    +0.000 A 
ATOM      4  C   UNL     1      48.671   5.597  17.343  0.00  0.00    +0.000 A 
ATOM      5  C   UNL     1      47.966   5.228  16.191  0.00  0.00    +0.000 A 
ATOM      6  C   UNL     1      47.417   3.950  16.081  0.00  0.00    +0.000 A 
ATOM      7  C   UNL     1      47.489   3.074  17.161  0.00  0.00    +0.000 A 
ATOM      8  C   UNL     1      48.197   3.434  18.301  0.00  0.00    +0.000 A 
BRANCH   6   9
ATOM      9  O   UNL     1      46.851   3.631  14.873  0.00  0.00    +0.000 OA
BRANCH   9  10
ATOM     10  C   UNL     1      46.620   4.764  14.021  0.00  0.00    +0.000 C 
BRANCH  10  11
ATOM     11  C   UNL     1      45.354   4.615  13.213  0.00  0.00    +0.000 A 
ATOM     12  C   UNL     1      44.566   5.717  12.898  0.00  0.00    +0.000 A 
ATOM     13  C   UNL     1      43.403   5.521  12.161  0.00  0.00    +0.000 A 
ATOM     14  C   UNL     1      43.051   4.232  11.775  0.00  0.00    +0.000 A 
ATOM     15  C   UNL     1      43.875   3.187  12.148  0.00  0.00    +0.000 A 
ATOM     16  N   UNL     1      45.010   3.348  12.859  0.00  0.00    +0.000 NA
ENDBRANCH  10  11
ENDBRANCH   9  10
ENDBRANCH   6   9
ENDBRANCH   2   3
BRANCH   2  17
ATOM     17  N   UNL     1      50.868   4.177  19.558  0.00  0.00    +0.000 N 
ATOM     18  C   UNL     1      52.035   4.546  18.947  0.00  0.00    +0.000 C 
ATOM     19  O   UNL     1      52.193   5.644  18.419  0.00  0.00    +0.000 OA
ATOM     20  H   UNL     1      50.706   3.183  19.688  0.00  0.00    +0.000 HD
BRANCH  18  21
ATOM     21  C   UNL     1      53.137   3.580  19.031  0.00  0.00    +0.000 A 
ATOM     22  C   UNL     1      54.296   3.917  19.716  0.00  0.00    +0.000 A 
ATOM     23  S   UNL     1      55.455   2.665  19.753  0.00  0.00    +0.000 S 
ATOM     24  C   UNL     1      54.468   1.648  18.814  0.00  0.00    +0.000 A 
ATOM     25  N   UNL     1      54.885   0.405  18.450  0.00  0.00    +0.000 NA
ATOM     26  C   UNL     1      54.047  -0.243  17.712  0.00  0.00    +0.000 A 
ATOM     27  N   UNL     1      52.826   0.234  17.310  0.00  0.00    +0.000 N 
ATOM     28  C   UNL     1      52.350   1.468  17.680  0.00  0.00    +0.000 A 
ATOM     29  O   UNL     1      51.229   1.848  17.353  0.00  0.00    +0.000 OA
ATOM     30  C   UNL     1      53.261   2.247  18.497  0.00  0.00    +0.000 A 
ATOM     31  H   UNL     1      52.210  -0.330  16.741  0.00  0.00    +0.000 HD
ENDBRANCH  18  21
ENDBRANCH   2  17
TORSDOF 6
ENDMDL
