MODEL 1
REMARK VINA RESULT:    -6.669      0.000      0.000
REMARK INTER + INTRA:         -11.020
REMARK INTER:                  -9.788
REMARK INTRA:                  -1.232
REMARK UNBOUND:                -1.232
REMARK  Name = 
REMARK  9 active torsions:
REMARK  status: ('A' for Active; 'I' for Inactive)
REMARK    1  A    between atoms: C_1  and  O_2
REMARK    2  A    between atoms: O_2  and  C_3
REMARK    3  A    between atoms: C_3  and  C_4
REMARK    4  A    between atoms: C_4  and  N_5
REMARK    5  A    between atoms: N_5  and  C_6
REMARK    6  A    between atoms: C_6  and  C_7
REMARK    7  A    between atoms: C_10  and  C_11
REMARK    8  A    between atoms: C_11  and  N_12
REMARK    9  A    between atoms: C_20  and  C_22
REMARK                            x       y       z     vdW  Elec       q    Type
REMARK                         _______ _______ _______ _____ _____    ______ ____
ROOT
ATOM      1  N   UNL     1      46.003   7.085  12.146  0.00  0.00    +0.000 N 
ATOM      2  C   UNL     1      44.741   6.684  11.661  0.00  0.00    +0.000 C 
ATOM      3  O   UNL     1      43.877   7.518  11.383  0.00  0.00    +0.000 OA
ENDROOT
BRANCH   2   4
ATOM      4  C   UNL     1      44.433   5.247  11.490  0.00  0.00    +0.000 A 
ATOM      5  C   UNL     1      43.658   4.494  12.361  0.00  0.00    +0.000 A 
ATOM      6  S   UNL     1      43.486   2.861  11.895  0.00  0.00    +0.000 S 
ATOM      7  C   UNL     1      44.295   3.140  10.426  0.00  0.00    +0.000 A 
ATOM      8  N   UNL     1      44.413   2.151   9.499  0.00  0.00    +0.000 NA
ATOM      9  C   UNL     1      44.998   2.522   8.409  0.00  0.00    +0.000 A 
ATOM     10  N   UNL     1      45.509   3.775   8.178  0.00  0.00    +0.000 N 
ATOM     11  C   UNL     1      45.524   4.768   9.138  0.00  0.00    +0.000 A 
ATOM     12  O   UNL     1      46.176   5.791   8.972  0.00  0.00    +0.000 OA
ATOM     13  C   UNL     1      44.777   4.435  10.340  0.00  0.00    +0.000 A 
ATOM     14  H   UNL     1      46.009   3.980   7.325  0.00  0.00    +0.000 HD
ENDBRANCH   2   4
BRANCH   1  15
ATOM     15  C   UNL     1      46.242   8.535  12.305  0.00  0.00    +0.000 C 
BRANCH  15  16
ATOM     16  C   UNL     1      47.666   9.049  12.030  0.00  0.00    +0.000 C 
BRANCH  16  18
ATOM     17  C   UNL     1      46.356  10.977  11.725  0.00  0.00    +0.000 C 
ATOM     18  O   UNL     1      47.692  10.465  11.802  0.00  0.00    +0.000 OA
ENDBRANCH  16  18
ENDBRANCH  15  16
ENDBRANCH   1  15
BRANCH   1  19
ATOM     19  C   UNL     1      47.060   6.128  12.471  0.00  0.00    +0.000 C 
BRANCH  19  20
ATOM     20  C   UNL     1      47.367   5.804  13.905  0.00  0.00    +0.000 A 
ATOM     21  C   UNL     1      48.280   6.558  14.643  0.00  0.00    +0.000 A 
ATOM     22  C   UNL     1      48.691   6.105  15.894  0.00  0.00    +0.000 A 
ATOM     23  C   UNL     1      48.154   4.923  16.396  0.00  0.00    +0.000 A 
ATOM     24  N   UNL     1      47.218   4.209  15.720  0.00  0.00    +0.000 NA
ATOM     25  C   UNL     1      46.853   4.656  14.499  0.00  0.00    +0.000 A 
BRANCH  23  26
ATOM     26  C   UNL     1      48.654   4.347  17.707  0.00  0.00    +0.000 C 
BRANCH  26  27
ATOM     27  N   UNL     1      47.911   4.660  18.928  0.00  0.00    +0.000 NA
ATOM     28  C   UNL     1      47.125   5.900  18.878  0.00  0.00    +0.000 C 
ATOM     29  C   UNL     1      47.795   7.132  19.509  0.00  0.00    +0.000 C 
ATOM     30  O   UNL     1      48.275   6.847  20.828  0.00  0.00    +0.000 OA
ATOM     31  C   UNL     1      49.237   5.790  20.781  0.00  0.00    +0.000 C 
ATOM     32  C   UNL     1      48.634   4.504  20.192  0.00  0.00    +0.000 C 
ENDBRANCH  26  27
ENDBRANCH  23  26
ENDBRANCH  19  20
ENDBRANCH   1  19
TORSDOF 8
ENDMDL
MODEL 2
REMARK VINA RESULT:    -6.648      1.641      2.202
REMARK INTER + INTRA:         -10.990
REMARK INTER:                  -9.610
REMARK INTRA:                  -1.380
REMARK UNBOUND:                -1.232
REMARK  Name = 
REMARK  9 active torsions:
REMARK  status: ('A' for Active; 'I' for Inactive)
REMARK    1  A    between atoms: C_1  and  O_2
REMARK    2  A    between atoms: O_2  and  C_3
REMARK    3  A    between atoms: C_3  and  C_4
REMARK    4  A    between atoms: C_4  and  N_5
REMARK    5  A    between atoms: N_5  and  C_6
REMARK    6  A    between atoms: C_6  and  C_7
REMARK    7  A    between atoms: C_10  and  C_11
REMARK    8  A    between atoms: C_11  and  N_12
REMARK    9  A    between atoms: C_20  and  C_22
REMARK                            x       y       z     vdW  Elec       q    Type
REMARK                         _______ _______ _______ _____ _____    ______ ____
ROOT
ATOM      1  N   UNL     1      46.628   7.318  12.117  0.00  0.00    +0.000 N 
ATOM      2  C   UNL     1      45.278   7.093  11.778  0.00  0.00    +0.000 C 
ATOM      3  O   UNL     1      44.527   8.035  11.516  0.00  0.00    +0.000 OA
ENDROOT
BRANCH   2   4
ATOM      4  C   UNL     1      44.740   5.715  11.744  0.00  0.00    +0.000 A 
ATOM      5  C   UNL     1      43.955   5.146  12.737  0.00  0.00    +0.000 A 
ATOM      6  S   UNL     1      43.490   3.536  12.411  0.00  0.00    +0.000 S 
ATOM      7  C   UNL     1      44.175   3.598  10.857  0.00  0.00    +0.000 A 
ATOM      8  N   UNL     1      44.046   2.550   9.998  0.00  0.00    +0.000 NA
ATOM      9  C   UNL     1      44.563   2.759   8.834  0.00  0.00    +0.000 A 
ATOM     10  N   UNL     1      45.231   3.900   8.464  0.00  0.00    +0.000 N 
ATOM     11  C   UNL     1      45.496   4.933   9.342  0.00  0.00    +0.000 A 
ATOM     12  O   UNL     1      46.275   5.828   9.041  0.00  0.00    +0.000 OA
ATOM     13  C   UNL     1      44.836   4.793  10.630  0.00  0.00    +0.000 A 
ATOM     14  H   UNL     1      45.665   3.973   7.555  0.00  0.00    +0.000 HD
ENDBRANCH   2   4
BRANCH   1  15
ATOM     15  C   UNL     1      47.099   8.719  12.145  0.00  0.00    +0.000 C 
BRANCH  15  16
ATOM     16  C   UNL     1      48.560   8.979  11.737  0.00  0.00    +0.000 C 
BRANCH  16  18
ATOM     17  C   UNL     1      48.711  10.160  13.764  0.00  0.00    +0.000 C 
ATOM     18  O   UNL     1      49.390   9.270  12.870  0.00  0.00    +0.000 OA
ENDBRANCH  16  18
ENDBRANCH  15  16
ENDBRANCH   1  15
BRANCH   1  19
ATOM     19  C   UNL     1      47.555   6.227  12.417  0.00  0.00    +0.000 C 
BRANCH  19  20
ATOM     20  C   UNL     1      47.745   5.769  13.835  0.00  0.00    +0.000 A 
ATOM     21  C   UNL     1      47.075   4.652  14.336  0.00  0.00    +0.000 A 
ATOM     22  C   UNL     1      47.116   4.384  15.702  0.00  0.00    +0.000 A 
ATOM     23  C   UNL     1      47.855   5.219  16.535  0.00  0.00    +0.000 A 
ATOM     24  N   UNL     1      48.565   6.273  16.056  0.00  0.00    +0.000 NA
ATOM     25  C   UNL     1      48.490   6.527  14.732  0.00  0.00    +0.000 A 
BRANCH  23  26
ATOM     26  C   UNL     1      47.838   5.017  18.037  0.00  0.00    +0.000 C 
BRANCH  26  27
ATOM     27  N   UNL     1      48.856   4.150  18.631  0.00  0.00    +0.000 NA
ATOM     28  C   UNL     1      50.193   4.748  18.744  0.00  0.00    +0.000 C 
ATOM     29  C   UNL     1      51.178   4.378  17.622  0.00  0.00    +0.000 C 
ATOM     30  O   UNL     1      51.232   2.961  17.421  0.00  0.00    +0.000 OA
ATOM     31  C   UNL     1      49.939   2.467  17.061  0.00  0.00    +0.000 C 
ATOM     32  C   UNL     1      48.898   2.767  18.152  0.00  0.00    +0.000 C 
ENDBRANCH  26  27
ENDBRANCH  23  26
ENDBRANCH  19  20
ENDBRANCH   1  19
TORSDOF 8
ENDMDL
MODEL 3
REMARK VINA RESULT:    -6.462      2.047      2.990
REMARK INTER + INTRA:         -10.716
REMARK INTER:                  -9.374
REMARK INTRA:                  -1.342
REMARK UNBOUND:                -1.232
REMARK  Name = 
REMARK  9 active torsions:
REMARK  status: ('A' for Active; 'I' for Inactive)
REMARK    1  A    between atoms: C_1  and  O_2
REMARK    2  A    between atoms: O_2  and  C_3
REMARK    3  A    between atoms: C_3  and  C_4
REMARK    4  A    between atoms: C_4  and  N_5
REMARK    5  A    between atoms: N_5  and  C_6
REMARK    6  A    between atoms: C_6  and  C_7
REMARK    7  A    between atoms: C_10  and  C_11
REMARK    8  A    between atoms: C_11  and  N_12
REMARK    9  A    between atoms: C_20  and  C_22
REMARK                            x       y       z     vdW  Elec       q    Type
REMARK                         _______ _______ _______ _____ _____    ______ ____
ROOT
ATOM      1  N   UNL     1      46.525   7.357  12.273  0.00  0.00    +0.000 N 
ATOM      2  C   UNL     1      45.412   7.231  11.416  0.00  0.00    +0.000 C 
ATOM      3  O   UNL     1      44.648   8.181  11.229  0.00  0.00    +0.000 OA
ENDROOT
BRANCH   2   4
ATOM      4  C   UNL     1      45.141   5.947  10.735  0.00  0.00    +0.000 A 
ATOM      5  C   UNL     1      45.630   5.595   9.484  0.00  0.00    +0.000 A 
ATOM      6  S   UNL     1      45.140   4.046   8.962  0.00  0.00    +0.000 S 
ATOM      7  C   UNL     1      44.401   3.719  10.458  0.00  0.00    +0.000 A 
ATOM      8  N   UNL     1      43.856   2.498  10.712  0.00  0.00    +0.000 NA
ATOM      9  C   UNL     1      43.384   2.373  11.906  0.00  0.00    +0.000 A 
ATOM     10  N   UNL     1      43.372   3.366  12.855  0.00  0.00    +0.000 N 
ATOM     11  C   UNL     1      43.797   4.654  12.598  0.00  0.00    +0.000 A 
ATOM     12  O   UNL     1      43.570   5.559  13.391  0.00  0.00    +0.000 OA
ATOM     13  C   UNL     1      44.440   4.814  11.304  0.00  0.00    +0.000 A 
ATOM     14  H   UNL     1      42.931   3.218  13.751  0.00  0.00    +0.000 HD
ENDBRANCH   2   4
BRANCH   1  15
ATOM     15  C   UNL     1      46.732   8.664  12.933  0.00  0.00    +0.000 C 
BRANCH  15  16
ATOM     16  C   UNL     1      47.763   9.616  12.301  0.00  0.00    +0.000 C 
BRANCH  16  18
ATOM     17  C   UNL     1      50.049   9.419  11.783  0.00  0.00    +0.000 C 
ATOM     18  O   UNL     1      49.079   9.416  12.838  0.00  0.00    +0.000 OA
ENDBRANCH  16  18
ENDBRANCH  15  16
ENDBRANCH   1  15
BRANCH   1  19
ATOM     19  C   UNL     1      47.464   6.261  12.507  0.00  0.00    +0.000 C 
BRANCH  19  20
ATOM     20  C   UNL     1      47.707   5.763  13.903  0.00  0.00    +0.000 A 
ATOM     21  C   UNL     1      46.936   4.740  14.457  0.00  0.00    +0.000 A 
ATOM     22  C   UNL     1      47.054   4.450  15.814  0.00  0.00    +0.000 A 
ATOM     23  C   UNL     1      47.966   5.168  16.583  0.00  0.00    +0.000 A 
ATOM     24  N   UNL     1      48.769   6.122  16.049  0.00  0.00    +0.000 NA
ATOM     25  C   UNL     1      48.620   6.402  14.736  0.00  0.00    +0.000 A 
BRANCH  23  26
ATOM     26  C   UNL     1      48.046   4.950  18.081  0.00  0.00    +0.000 C 
BRANCH  26  27
ATOM     27  N   UNL     1      48.994   3.956  18.586  0.00  0.00    +0.000 NA
ATOM     28  C   UNL     1      50.379   4.427  18.717  0.00  0.00    +0.000 C 
ATOM     29  C   UNL     1      51.313   4.063  17.551  0.00  0.00    +0.000 C 
ATOM     30  O   UNL     1      51.241   2.666  17.242  0.00  0.00    +0.000 OA
ATOM     31  C   UNL     1      49.906   2.314  16.872  0.00  0.00    +0.000 C 
ATOM     32  C   UNL     1      48.909   2.615  18.003  0.00  0.00    +0.000 C 
ENDBRANCH  26  27
ENDBRANCH  23  26
ENDBRANCH  19  20
ENDBRANCH   1  19
TORSDOF 8
ENDMDL
MODEL 4
REMARK VINA RESULT:    -6.298      1.456      2.180
REMARK INTER + INTRA:         -10.477
REMARK INTER:                  -9.360
REMARK INTRA:                  -1.116
REMARK UNBOUND:                -1.232
REMARK  Name = 
REMARK  9 active torsions:
REMARK  status: ('A' for Active; 'I' for Inactive)
REMARK    1  A    between atoms: C_1  and  O_2
REMARK    2  A    between atoms: O_2  and  C_3
REMARK    3  A    between atoms: C_3  and  C_4
REMARK    4  A    between atoms: C_4  and  N_5
REMARK    5  A    between atoms: N_5  and  C_6
REMARK    6  A    between atoms: C_6  and  C_7
REMARK    7  A    between atoms: C_10  and  C_11
REMARK    8  A    between atoms: C_11  and  N_12
REMARK    9  A    between atoms: C_20  and  C_22
REMARK                            x       y       z     vdW  Elec       q    Type
REMARK                         _______ _______ _______ _____ _____    ______ ____
ROOT
ATOM      1  N   UNL     1      46.448   7.254  12.541  0.00  0.00    +0.000 N 
ATOM      2  C   UNL     1      45.431   7.208  11.565  0.00  0.00    +0.000 C 
ATOM      3  O   UNL     1      44.745   8.202  11.319  0.00  0.00    +0.000 OA
ENDROOT
BRANCH   2   4
ATOM      4  C   UNL     1      45.166   5.954  10.827  0.00  0.00    +0.000 A 
ATOM      5  C   UNL     1      45.673   5.651   9.571  0.00  0.00    +0.000 A 
ATOM      6  S   UNL     1      45.185   4.126   8.979  0.00  0.00    +0.000 S 
ATOM      7  C   UNL     1      44.420   3.742  10.448  0.00  0.00    +0.000 A 
ATOM      8  N   UNL     1      43.866   2.514  10.643  0.00  0.00    +0.000 NA
ATOM      9  C   UNL     1      43.374   2.343  11.823  0.00  0.00    +0.000 A 
ATOM     10  N   UNL     1      43.350   3.296  12.811  0.00  0.00    +0.000 N 
ATOM     11  C   UNL     1      43.785   4.592  12.614  0.00  0.00    +0.000 A 
ATOM     12  O   UNL     1      43.549   5.465  13.439  0.00  0.00    +0.000 OA
ATOM     13  C   UNL     1      44.450   4.801  11.338  0.00  0.00    +0.000 A 
ATOM     14  H   UNL     1      42.894   3.115  13.693  0.00  0.00    +0.000 HD
ENDBRANCH   2   4
BRANCH   1  15
ATOM     15  C   UNL     1      46.653   8.535  13.250  0.00  0.00    +0.000 C 
BRANCH  15  16
ATOM     16  C   UNL     1      47.661   9.524  12.639  0.00  0.00    +0.000 C 
BRANCH  16  18
ATOM     17  C   UNL     1      49.921   8.958  12.958  0.00  0.00    +0.000 C 
ATOM     18  O   UNL     1      48.813   9.703  13.477  0.00  0.00    +0.000 OA
ENDBRANCH  16  18
ENDBRANCH  15  16
ENDBRANCH   1  15
BRANCH   1  19
ATOM     19  C   UNL     1      47.294   6.101  12.849  0.00  0.00    +0.000 C 
BRANCH  19  20
ATOM     20  C   UNL     1      47.520   5.694  14.276  0.00  0.00    +0.000 A 
ATOM     21  C   UNL     1      48.514   6.288  15.055  0.00  0.00    +0.000 A 
ATOM     22  C   UNL     1      48.829   5.744  16.298  0.00  0.00    +0.000 A 
ATOM     23  C   UNL     1      48.119   4.635  16.751  0.00  0.00    +0.000 A 
ATOM     24  N   UNL     1      47.106   4.082  16.035  0.00  0.00    +0.000 NA
ATOM     25  C   UNL     1      46.836   4.613  14.823  0.00  0.00    +0.000 A 
BRANCH  23  26
ATOM     26  C   UNL     1      48.504   3.955  18.050  0.00  0.00    +0.000 C 
BRANCH  26  27
ATOM     27  N   UNL     1      48.225   4.654  19.306  0.00  0.00    +0.000 NA
ATOM     28  C   UNL     1      47.119   5.618  19.248  0.00  0.00    +0.000 C 
ATOM     29  C   UNL     1      47.532   7.086  19.048  0.00  0.00    +0.000 C 
ATOM     30  O   UNL     1      48.545   7.476  19.984  0.00  0.00    +0.000 OA
ATOM     31  C   UNL     1      49.706   6.658  19.819  0.00  0.00    +0.000 C 
ATOM     32  C   UNL     1      49.383   5.170  20.038  0.00  0.00    +0.000 C 
ENDBRANCH  26  27
ENDBRANCH  23  26
ENDBRANCH  19  20
ENDBRANCH   1  19
TORSDOF 8
ENDMDL
MODEL 5
REMARK VINA RESULT:    -6.008      3.265      7.848
REMARK INTER + INTRA:         -10.051
REMARK INTER:                  -8.466
REMARK INTRA:                  -1.585
REMARK UNBOUND:                -1.232
REMARK  Name = 
REMARK  9 active torsions:
REMARK  status: ('A' for Active; 'I' for Inactive)
REMARK    1  A    between atoms: C_1  and  O_2
REMARK    2  A    between atoms: O_2  and  C_3
REMARK    3  A    between atoms: C_3  and  C_4
REMARK    4  A    between atoms: C_4  and  N_5
REMARK    5  A    between atoms: N_5  and  C_6
REMARK    6  A    between atoms: C_6  and  C_7
REMARK    7  A    between atoms: C_10  and  C_11
REMARK    8  A    between atoms: C_11  and  N_12
REMARK    9  A    between atoms: C_20  and  C_22
REMARK                            x       y       z     vdW  Elec       q    Type
REMARK                         _______ _______ _______ _____ _____    ______ ____
ROOT
ATOM      1  N   UNL     1      48.747   8.303  17.488  0.00  0.00    +0.000 N 
ATOM      2  C   UNL     1      48.994   7.256  18.401  0.00  0.00    +0.000 C 
ATOM      3  O   UNL     1      48.461   7.249  19.512  0.00  0.00    +0.000 OA
ENDROOT
BRANCH   2   4
ATOM      4  C   UNL     1      49.910   6.154  18.036  0.00  0.00    +0.000 A 
ATOM      5  C   UNL     1      51.292   6.200  18.154  0.00  0.00    +0.000 A 
ATOM      6  S   UNL     1      52.077   4.771  17.648  0.00  0.00    +0.000 S 
ATOM      7  C   UNL     1      50.592   3.977  17.416  0.00  0.00    +0.000 A 
ATOM      8  N   UNL     1      50.554   2.662  17.065  0.00  0.00    +0.000 NA
ATOM      9  C   UNL     1      49.362   2.176  16.982  0.00  0.00    +0.000 A 
ATOM     10  N   UNL     1      48.206   2.890  17.178  0.00  0.00    +0.000 N 
ATOM     11  C   UNL     1      48.195   4.252  17.409  0.00  0.00    +0.000 A 
ATOM     12  O   UNL     1      47.150   4.888  17.362  0.00  0.00    +0.000 OA
ATOM     13  C   UNL     1      49.515   4.822  17.624  0.00  0.00    +0.000 A 
ATOM     14  H   UNL     1      47.303   2.461  17.037  0.00  0.00    +0.000 HD
ENDBRANCH   2   4
BRANCH   1  15
ATOM     15  C   UNL     1      47.831   9.381  17.920  0.00  0.00    +0.000 C 
BRANCH  15  16
ATOM     16  C   UNL     1      48.298  10.831  17.702  0.00  0.00    +0.000 C 
BRANCH  16  18
ATOM     17  C   UNL     1      49.103  11.020  19.903  0.00  0.00    +0.000 C 
ATOM     18  O   UNL     1      49.434  11.157  18.516  0.00  0.00    +0.000 OA
ENDBRANCH  16  18
ENDBRANCH  15  16
ENDBRANCH   1  15
BRANCH   1  19
ATOM     19  C   UNL     1      49.346   8.340  16.155  0.00  0.00    +0.000 C 
BRANCH  19  20
ATOM     20  C   UNL     1      48.583   7.816  14.972  0.00  0.00    +0.000 A 
ATOM     21  C   UNL     1      47.668   8.613  14.284  0.00  0.00    +0.000 A 
ATOM     22  C   UNL     1      46.834   8.033  13.330  0.00  0.00    +0.000 A 
ATOM     23  C   UNL     1      46.957   6.673  13.061  0.00  0.00    +0.000 A 
ATOM     24  N   UNL     1      47.885   5.895  13.675  0.00  0.00    +0.000 NA
ATOM     25  C   UNL     1      48.666   6.475  14.612  0.00  0.00    +0.000 A 
BRANCH  23  26
ATOM     26  C   UNL     1      45.998   5.989  12.106  0.00  0.00    +0.000 C 
BRANCH  26  27
ATOM     27  N   UNL     1      45.089   4.976  12.645  0.00  0.00    +0.000 NA
ATOM     28  C   UNL     1      45.235   3.637  12.061  0.00  0.00    +0.000 C 
ATOM     29  C   UNL     1      44.235   3.291  10.945  0.00  0.00    +0.000 C 
ATOM     30  O   UNL     1      42.887   3.564  11.349  0.00  0.00    +0.000 OA
ATOM     31  C   UNL     1      42.742   4.951  11.665  0.00  0.00    +0.000 C 
ATOM     32  C   UNL     1      43.688   5.372  12.802  0.00  0.00    +0.000 C 
ENDBRANCH  26  27
ENDBRANCH  23  26
ENDBRANCH  19  20
ENDBRANCH   1  19
TORSDOF 8
ENDMDL
MODEL 6
REMARK VINA RESULT:    -5.885      2.652      7.645
REMARK INTER + INTRA:          -9.870
REMARK INTER:                  -8.760
REMARK INTRA:                  -1.110
REMARK UNBOUND:                -1.232
REMARK  Name = 
REMARK  9 active torsions:
REMARK  status: ('A' for Active; 'I' for Inactive)
REMARK    1  A    between atoms: C_1  and  O_2
REMARK    2  A    between atoms: O_2  and  C_3
REMARK    3  A    between atoms: C_3  and  C_4
REMARK    4  A    between atoms: C_4  and  N_5
REMARK    5  A    between atoms: N_5  and  C_6
REMARK    6  A    between atoms: C_6  and  C_7
REMARK    7  A    between atoms: C_10  and  C_11
REMARK    8  A    between atoms: C_11  and  N_12
REMARK    9  A    between atoms: C_20  and  C_22
REMARK                            x       y       z     vdW  Elec       q    Type
REMARK                         _______ _______ _______ _____ _____    ______ ____
ROOT
ATOM      1  N   UNL     1      48.678   7.500  15.540  0.00  0.00    +0.000 N 
ATOM      2  C   UNL     1      48.663   7.067  16.882  0.00  0.00    +0.000 C 
ATOM      3  O   UNL     1      48.671   7.880  17.809  0.00  0.00    +0.000 OA
ENDROOT
BRANCH   2   4
ATOM      4  C   UNL     1      48.649   5.621  17.196  0.00  0.00    +0.000 A 
ATOM      5  C   UNL     1      47.506   4.836  17.259  0.00  0.00    +0.000 A 
ATOM      6  S   UNL     1      47.812   3.202  17.648  0.00  0.00    +0.000 S 
ATOM      7  C   UNL     1      49.493   3.446  17.575  0.00  0.00    +0.000 A 
ATOM      8  N   UNL     1      50.354   2.402  17.726  0.00  0.00    +0.000 NA
ATOM      9  C   UNL     1      51.596   2.724  17.589  0.00  0.00    +0.000 A 
ATOM     10  N   UNL     1      52.058   3.995  17.354  0.00  0.00    +0.000 N 
ATOM     11  C   UNL     1      51.230   5.100  17.322  0.00  0.00    +0.000 A 
ATOM     12  O   UNL     1      51.695   6.233  17.329  0.00  0.00    +0.000 OA
ATOM     13  C   UNL     1      49.814   4.775  17.359  0.00  0.00    +0.000 A 
ATOM     14  H   UNL     1      53.049   4.186  17.318  0.00  0.00    +0.000 HD
ENDBRANCH   2   4
BRANCH   1  15
ATOM     15  C   UNL     1      48.705   8.958  15.296  0.00  0.00    +0.000 C 
BRANCH  15  16
ATOM     16  C   UNL     1      49.532   9.456  14.097  0.00  0.00    +0.000 C 
BRANCH  16  18
ATOM     17  C   UNL     1      48.821   9.575  11.859  0.00  0.00    +0.000 C 
ATOM     18  O   UNL     1      48.730  10.181  13.155  0.00  0.00    +0.000 OA
ENDBRANCH  16  18
ENDBRANCH  15  16
ENDBRANCH   1  15
BRANCH   1  19
ATOM     19  C   UNL     1      48.652   6.568  14.413  0.00  0.00    +0.000 C 
BRANCH  19  20
ATOM     20  C   UNL     1      47.340   6.129  13.830  0.00  0.00    +0.000 A 
ATOM     21  C   UNL     1      46.476   7.035  13.214  0.00  0.00    +0.000 A 
ATOM     22  C   UNL     1      45.187   6.631  12.873  0.00  0.00    +0.000 A 
ATOM     23  C   UNL     1      44.801   5.318  13.124  0.00  0.00    +0.000 A 
ATOM     24  N   UNL     1      45.649   4.404  13.663  0.00  0.00    +0.000 NA
ATOM     25  C   UNL     1      46.885   4.826  14.007  0.00  0.00    +0.000 A 
BRANCH  23  26
ATOM     26  C   UNL     1      43.376   4.873  12.861  0.00  0.00    +0.000 C 
BRANCH  26  27
ATOM     27  N   UNL     1      43.061   4.295  11.554  0.00  0.00    +0.000 NA
ATOM     28  C   UNL     1      43.387   2.870  11.409  0.00  0.00    +0.000 C 
ATOM     29  C   UNL     1      44.727   2.566  10.718  0.00  0.00    +0.000 C 
ATOM     30  O   UNL     1      44.850   3.280   9.481  0.00  0.00    +0.000 OA
ATOM     31  C   UNL     1      44.779   4.688   9.719  0.00  0.00    +0.000 C 
ATOM     32  C   UNL     1      43.447   5.081  10.380  0.00  0.00    +0.000 C 
ENDBRANCH  26  27
ENDBRANCH  23  26
ENDBRANCH  19  20
ENDBRANCH   1  19
TORSDOF 8
ENDMDL
MODEL 7
REMARK VINA RESULT:    -5.883      1.932      2.261
REMARK INTER + INTRA:          -9.867
REMARK INTER:                  -8.908
REMARK INTRA:                  -0.959
REMARK UNBOUND:                -1.232
REMARK  Name = 
REMARK  9 active torsions:
REMARK  status: ('A' for Active; 'I' for Inactive)
REMARK    1  A    between atoms: C_1  and  O_2
REMARK    2  A    between atoms: O_2  and  C_3
REMARK    3  A    between atoms: C_3  and  C_4
REMARK    4  A    between atoms: C_4  and  N_5
REMARK    5  A    between atoms: N_5  and  C_6
REMARK    6  A    between atoms: C_6  and  C_7
REMARK    7  A    between atoms: C_10  and  C_11
REMARK    8  A    between atoms: C_11  and  N_12
REMARK    9  A    between atoms: C_20  and  C_22
REMARK                            x       y       z     vdW  Elec       q    Type
REMARK                         _______ _______ _______ _____ _____    ______ ____
ROOT
ATOM      1  N   UNL     1      45.579   6.853  12.359  0.00  0.00    +0.000 N 
ATOM      2  C   UNL     1      44.354   6.396  11.831  0.00  0.00    +0.000 C 
ATOM      3  O   UNL     1      43.416   7.174  11.648  0.00  0.00    +0.000 OA
ENDROOT
BRANCH   2   4
ATOM      4  C   UNL     1      44.177   4.966  11.498  0.00  0.00    +0.000 A 
ATOM      5  C   UNL     1      43.412   4.071  12.233  0.00  0.00    +0.000 A 
ATOM      6  S   UNL     1      43.404   2.486  11.598  0.00  0.00    +0.000 S 
ATOM      7  C   UNL     1      44.279   2.976  10.225  0.00  0.00    +0.000 A 
ATOM      8  N   UNL     1      44.536   2.100   9.216  0.00  0.00    +0.000 NA
ATOM      9  C   UNL     1      45.157   2.624   8.213  0.00  0.00    +0.000 A 
ATOM     10  N   UNL     1      45.577   3.929   8.143  0.00  0.00    +0.000 N 
ATOM     11  C   UNL     1      45.450   4.816   9.194  0.00  0.00    +0.000 A 
ATOM     12  O   UNL     1      46.026   5.896   9.177  0.00  0.00    +0.000 OA
ATOM     13  C   UNL     1      44.658   4.305  10.302  0.00  0.00    +0.000 A 
ATOM     14  H   UNL     1      46.112   4.258   7.352  0.00  0.00    +0.000 HD
ENDBRANCH   2   4
BRANCH   1  15
ATOM     15  C   UNL     1      45.687   8.292  12.682  0.00  0.00    +0.000 C 
BRANCH  15  16
ATOM     16  C   UNL     1      46.364   9.198  11.638  0.00  0.00    +0.000 C 
BRANCH  16  18
ATOM     17  C   UNL     1      44.487  10.584  11.344  0.00  0.00    +0.000 C 
ATOM     18  O   UNL     1      45.875  10.546  11.699  0.00  0.00    +0.000 OA
ENDBRANCH  16  18
ENDBRANCH  15  16
ENDBRANCH   1  15
BRANCH   1  19
ATOM     19  C   UNL     1      46.722   5.966  12.575  0.00  0.00    +0.000 C 
BRANCH  19  20
ATOM     20  C   UNL     1      47.374   5.893  13.926  0.00  0.00    +0.000 A 
ATOM     21  C   UNL     1      48.283   6.862  14.351  0.00  0.00    +0.000 A 
ATOM     22  C   UNL     1      49.017   6.651  15.515  0.00  0.00    +0.000 A 
ATOM     23  C   UNL     1      48.803   5.488  16.250  0.00  0.00    +0.000 A 
ATOM     24  N   UNL     1      47.877   4.564  15.886  0.00  0.00    +0.000 NA
ATOM     25  C   UNL     1      47.194   4.780  14.741  0.00  0.00    +0.000 A 
BRANCH  23  26
ATOM     26  C   UNL     1      49.656   5.178  17.464  0.00  0.00    +0.000 C 
BRANCH  26  27
ATOM     27  N   UNL     1      51.012   4.672  17.245  0.00  0.00    +0.000 NA
ATOM     28  C   UNL     1      51.437   3.615  18.171  0.00  0.00    +0.000 C 
ATOM     29  C   UNL     1      52.290   4.084  19.362  0.00  0.00    +0.000 C 
ATOM     30  O   UNL     1      53.385   4.901  18.930  0.00  0.00    +0.000 OA
ATOM     31  C   UNL     1      52.894   6.058  18.249  0.00  0.00    +0.000 C 
ATOM     32  C   UNL     1      52.055   5.674  17.018  0.00  0.00    +0.000 C 
ENDBRANCH  26  27
ENDBRANCH  23  26
ENDBRANCH  19  20
ENDBRANCH   1  19
TORSDOF 8
ENDMDL
MODEL 8
REMARK VINA RESULT:    -5.850      3.568      8.607
REMARK INTER + INTRA:          -9.819
REMARK INTER:                  -8.500
REMARK INTRA:                  -1.319
REMARK UNBOUND:                -1.232
REMARK  Name = 
REMARK  9 active torsions:
REMARK  status: ('A' for Active; 'I' for Inactive)
REMARK    1  A    between atoms: C_1  and  O_2
REMARK    2  A    between atoms: O_2  and  C_3
REMARK    3  A    between atoms: C_3  and  C_4
REMARK    4  A    between atoms: C_4  and  N_5
REMARK    5  A    between atoms: N_5  and  C_6
REMARK    6  A    between atoms: C_6  and  C_7
REMARK    7  A    between atoms: C_10  and  C_11
REMARK    8  A    between atoms: C_11  and  N_12
REMARK    9  A    between atoms: C_20  and  C_22
REMARK                            x       y       z     vdW  Elec       q    Type
REMARK                         _______ _______ _______ _____ _____    ______ ____
ROOT
ATOM      1  N   UNL     1      49.020   6.254  18.397  0.00  0.00    +0.000 N 
ATOM      2  C   UNL     1      49.677   5.402  19.310  0.00  0.00    +0.000 C 
ATOM      3  O   UNL     1      49.181   5.155  20.411  0.00  0.00    +0.000 OA
ENDROOT
BRANCH   2   4
ATOM      4  C   UNL     1      50.981   4.801  18.958  0.00  0.00    +0.000 A 
ATOM      5  C   UNL     1      52.217   5.331  19.302  0.00  0.00    +0.000 A 
ATOM      6  S   UNL     1      53.542   4.408  18.749  0.00  0.00    +0.000 S 
ATOM      7  C   UNL     1      52.515   3.178  18.181  0.00  0.00    +0.000 A 
ATOM      8  N   UNL     1      53.028   2.029  17.661  0.00  0.00    +0.000 NA
ATOM      9  C   UNL     1      52.134   1.162  17.325  0.00  0.00    +0.000 A 
ATOM     10  N   UNL     1      50.778   1.351  17.424  0.00  0.00    +0.000 N 
ATOM     11  C   UNL     1      50.215   2.547  17.824  0.00  0.00    +0.000 A 
ATOM     12  O   UNL     1      49.014   2.750  17.692  0.00  0.00    +0.000 OA
ATOM     13  C   UNL     1      51.180   3.515  18.319  0.00  0.00    +0.000 A 
ATOM     14  H   UNL     1      50.133   0.652  17.085  0.00  0.00    +0.000 HD
ENDBRANCH   2   4
BRANCH   1  15
ATOM     15  C   UNL     1      47.726   6.832  18.815  0.00  0.00    +0.000 C 
BRANCH  15  16
ATOM     16  C   UNL     1      47.672   8.355  19.033  0.00  0.00    +0.000 C 
BRANCH  16  18
ATOM     17  C   UNL     1      49.466   9.874  18.978  0.00  0.00    +0.000 C 
ATOM     18  O   UNL     1      48.828   8.837  19.734  0.00  0.00    +0.000 OA
ENDBRANCH  16  18
ENDBRANCH  15  16
ENDBRANCH   1  15
BRANCH   1  19
ATOM     19  C   UNL     1      49.567   6.558  17.074  0.00  0.00    +0.000 C 
BRANCH  19  20
ATOM     20  C   UNL     1      48.786   6.212  15.839  0.00  0.00    +0.000 A 
ATOM     21  C   UNL     1      48.840   7.008  14.695  0.00  0.00    +0.000 A 
ATOM     22  C   UNL     1      47.949   6.771  13.651  0.00  0.00    +0.000 A 
ATOM     23  C   UNL     1      47.043   5.719  13.760  0.00  0.00    +0.000 A 
ATOM     24  N   UNL     1      47.019   4.894  14.838  0.00  0.00    +0.000 NA
ATOM     25  C   UNL     1      47.876   5.159  15.847  0.00  0.00    +0.000 A 
BRANCH  23  26
ATOM     26  C   UNL     1      45.992   5.497  12.690  0.00  0.00    +0.000 C 
BRANCH  26  27
ATOM     27  N   UNL     1      44.953   4.496  12.938  0.00  0.00    +0.000 NA
ATOM     28  C   UNL     1      45.086   3.257  12.161  0.00  0.00    +0.000 C 
ATOM     29  C   UNL     1      44.224   3.179  10.890  0.00  0.00    +0.000 C 
ATOM     30  O   UNL     1      42.856   3.503  11.166  0.00  0.00    +0.000 OA
ATOM     31  C   UNL     1      42.763   4.831  11.689  0.00  0.00    +0.000 C 
ATOM     32  C   UNL     1      43.574   4.984  12.986  0.00  0.00    +0.000 C 
ENDBRANCH  26  27
ENDBRANCH  23  26
ENDBRANCH  19  20
ENDBRANCH   1  19
TORSDOF 8
ENDMDL
MODEL 9
REMARK VINA RESULT:    -5.715      3.171      7.617
REMARK INTER + INTRA:          -9.620
REMARK INTER:                  -8.099
REMARK INTRA:                  -1.520
REMARK UNBOUND:                -1.232
REMARK  Name = 
REMARK  9 active torsions:
REMARK  status: ('A' for Active; 'I' for Inactive)
REMARK    1  A    between atoms: C_1  and  O_2
REMARK    2  A    between atoms: O_2  and  C_3
REMARK    3  A    between atoms: C_3  and  C_4
REMARK    4  A    between atoms: C_4  and  N_5
REMARK    5  A    between atoms: N_5  and  C_6
REMARK    6  A    between atoms: C_6  and  C_7
REMARK    7  A    between atoms: C_10  and  C_11
REMARK    8  A    between atoms: C_11  and  N_12
REMARK    9  A    between atoms: C_20  and  C_22
REMARK                            x       y       z     vdW  Elec       q    Type
REMARK                         _______ _______ _______ _____ _____    ______ ____
ROOT
ATOM      1  N   UNL     1      49.547   8.693  14.676  0.00  0.00    +0.000 N 
ATOM      2  C   UNL     1      50.197   8.472  15.908  0.00  0.00    +0.000 C 
ATOM      3  O   UNL     1      51.421   8.335  15.961  0.00  0.00    +0.000 OA
ENDROOT
BRANCH   2   4
ATOM      4  C   UNL     1      49.412   8.391  17.159  0.00  0.00    +0.000 A 
ATOM      5  C   UNL     1      49.187   9.453  18.023  0.00  0.00    +0.000 A 
ATOM      6  S   UNL     1      48.244   9.046  19.387  0.00  0.00    +0.000 S 
ATOM      7  C   UNL     1      47.956   7.482  18.786  0.00  0.00    +0.000 A 
ATOM      8  N   UNL     1      47.127   6.626  19.443  0.00  0.00    +0.000 NA
ATOM      9  C   UNL     1      46.956   5.498  18.842  0.00  0.00    +0.000 A 
ATOM     10  N   UNL     1      47.566   5.131  17.668  0.00  0.00    +0.000 N 
ATOM     11  C   UNL     1      48.511   5.916  17.037  0.00  0.00    +0.000 A 
ATOM     12  O   UNL     1      49.188   5.468  16.121  0.00  0.00    +0.000 OA
ATOM     13  C   UNL     1      48.653   7.243  17.614  0.00  0.00    +0.000 A 
ATOM     14  H   UNL     1      47.434   4.207  17.284  0.00  0.00    +0.000 HD
ENDBRANCH   2   4
BRANCH   1  15
ATOM     15  C   UNL     1      50.389   8.751  13.463  0.00  0.00    +0.000 C 
BRANCH  15  16
ATOM     16  C   UNL     1      50.250   9.995  12.568  0.00  0.00    +0.000 C 
BRANCH  16  18
ATOM     17  C   UNL     1      48.710  10.883  11.028  0.00  0.00    +0.000 C 
ATOM     18  O   UNL     1      49.475   9.726  11.391  0.00  0.00    +0.000 OA
ENDBRANCH  16  18
ENDBRANCH  15  16
ENDBRANCH   1  15
BRANCH   1  19
ATOM     19  C   UNL     1      48.100   8.878  14.574  0.00  0.00    +0.000 C 
BRANCH  19  20
ATOM     20  C   UNL     1      47.295   8.017  13.643  0.00  0.00    +0.000 A 
ATOM     21  C   UNL     1      47.566   6.658  13.489  0.00  0.00    +0.000 A 
ATOM     22  C   UNL     1      46.939   5.944  12.471  0.00  0.00    +0.000 A 
ATOM     23  C   UNL     1      46.026   6.598  11.649  0.00  0.00    +0.000 A 
ATOM     24  N   UNL     1      45.701   7.905  11.824  0.00  0.00    +0.000 NA
ATOM     25  C   UNL     1      46.340   8.581  12.803  0.00  0.00    +0.000 A 
BRANCH  23  26
ATOM     26  C   UNL     1      45.403   5.880  10.468  0.00  0.00    +0.000 C 
BRANCH  26  27
ATOM     27  N   UNL     1      44.249   5.014  10.715  0.00  0.00    +0.000 NA
ATOM     28  C   UNL     1      43.227   5.579  11.606  0.00  0.00    +0.000 C 
ATOM     29  C   UNL     1      43.309   5.128  13.074  0.00  0.00    +0.000 C 
ATOM     30  O   UNL     1      43.392   3.702  13.179  0.00  0.00    +0.000 OA
ATOM     31  C   UNL     1      44.558   3.228  12.500  0.00  0.00    +0.000 C 
ATOM     32  C   UNL     1      44.537   3.609  11.010  0.00  0.00    +0.000 C 
ENDBRANCH  26  27
ENDBRANCH  23  26
ENDBRANCH  19  20
ENDBRANCH   1  19
TORSDOF 8
ENDMDL
