MODEL 1
REMARK VINA RESULT:    -7.216      0.000      0.000
REMARK INTER + INTRA:         -10.895
REMARK INTER:                  -9.959
REMARK INTRA:                  -0.937
REMARK UNBOUND:                -0.937
REMARK  Name = 
REMARK  7 active torsions:
REMARK  status: ('A' for Active; 'I' for Inactive)
REMARK    1  A    between atoms: N_1  and  C_2
REMARK    2  A    between atoms: C_2  and  C_3
REMARK    3  A    between atoms: N_7  and  C_8
REMARK    4  A    between atoms: C_8  and  C_9
REMARK    5  A    between atoms: C_12  and  C_13
REMARK    6  A    between atoms: C_13  and  N_14
REMARK    7  A    between atoms: C_15  and  C_17
REMARK                            x       y       z     vdW  Elec       q    Type
REMARK                         _______ _______ _______ _____ _____    ______ ____
ROOT
ATOM      1  C   UNL     1      51.468   3.363  17.560  0.00  0.00    +0.000 A 
ATOM      2  C   UNL     1      50.733   4.560  17.596  0.00  0.00    +0.000 A 
ATOM      3  C   UNL     1      49.355   4.565  17.360  0.00  0.00    +0.000 A 
ATOM      4  C   UNL     1      48.682   3.377  17.058  0.00  0.00    +0.000 A 
ATOM      5  C   UNL     1      49.428   2.197  16.930  0.00  0.00    +0.000 A 
ATOM      6  C   UNL     1      50.803   2.186  17.194  0.00  0.00    +0.000 A 
ENDROOT
BRANCH   1   7
ATOM      7  C   UNL     1      52.942   3.347  17.927  0.00  0.00    +0.000 C 
BRANCH   7  12
ATOM      8  C   UNL     1      54.823   0.011  18.221  0.00  0.00    +0.000 C 
ATOM      9  C   UNL     1      55.775   0.476  19.329  0.00  0.00    +0.000 C 
ATOM     10  C   UNL     1      55.013   1.270  20.380  0.00  0.00    +0.000 C 
ATOM     11  C   UNL     1      54.309   2.466  19.742  0.00  0.00    +0.000 C 
ATOM     12  N   UNL     1      53.412   2.116  18.625  0.00  0.00    +0.000 NA
ATOM     13  C   UNL     1      54.088   1.243  17.639  0.00  0.00    +0.000 C 
BRANCH   8  14
ATOM     14  C   UNL     1      53.850  -1.093  18.678  0.00  0.00    +0.000 C 
BRANCH  14  15
ATOM     15  N   UNL     1      52.452  -0.656  18.579  0.00  0.00    +0.000 NA
ATOM     16  H   UNL     1      52.299   0.127  19.213  0.00  0.00    +0.000 HD
ATOM     17  H   UNL     1      51.837  -1.399  18.907  0.00  0.00    +0.000 HD
ENDBRANCH  14  15
ENDBRANCH   8  14
ENDBRANCH   7  12
ENDBRANCH   1   7
BRANCH   4  18
ATOM     18  C   UNL     1      47.188   3.366  16.875  0.00  0.00    +0.000 C 
BRANCH  18  19
ATOM     19  N   UNL     1      46.759   4.346  15.912  0.00  0.00    +0.000 N 
ATOM     20  C   UNL     1      46.933   4.131  14.566  0.00  0.00    +0.000 C 
ATOM     21  O   UNL     1      47.389   3.077  14.130  0.00  0.00    +0.000 OA
ATOM     22  H   UNL     1      46.598   5.288  16.254  0.00  0.00    +0.000 HD
BRANCH  20  23
ATOM     23  C   UNL     1      46.492   5.201  13.667  0.00  0.00    +0.000 A 
ATOM     24  C   UNL     1      47.337   6.272  13.405  0.00  0.00    +0.000 A 
ATOM     25  S   UNL     1      46.691   7.406  12.309  0.00  0.00    +0.000 S 
ATOM     26  C   UNL     1      45.233   6.538  12.187  0.00  0.00    +0.000 A 
ATOM     27  N   UNL     1      44.215   6.991  11.406  0.00  0.00    +0.000 NA
ATOM     28  C   UNL     1      43.155   6.252  11.429  0.00  0.00    +0.000 A 
ATOM     29  N   UNL     1      43.026   5.097  12.153  0.00  0.00    +0.000 N 
ATOM     30  C   UNL     1      44.038   4.586  12.932  0.00  0.00    +0.000 A 
ATOM     31  O   UNL     1      43.902   3.528  13.540  0.00  0.00    +0.000 OA
ATOM     32  C   UNL     1      45.248   5.386  12.953  0.00  0.00    +0.000 A 
ATOM     33  H   UNL     1      42.171   4.562  12.128  0.00  0.00    +0.000 HD
ENDBRANCH  20  23
ENDBRANCH  18  19
ENDBRANCH   4  18
TORSDOF 7
ENDMDL
MODEL 2
REMARK VINA RESULT:    -6.766      3.127      9.686
REMARK INTER + INTRA:         -10.273
REMARK INTER:                  -9.072
REMARK INTRA:                  -1.201
REMARK UNBOUND:                -0.937
REMARK  Name = 
REMARK  7 active torsions:
REMARK  status: ('A' for Active; 'I' for Inactive)
REMARK    1  A    between atoms: N_1  and  C_2
REMARK    2  A    between atoms: C_2  and  C_3
REMARK    3  A    between atoms: N_7  and  C_8
REMARK    4  A    between atoms: C_8  and  C_9
REMARK    5  A    between atoms: C_12  and  C_13
REMARK    6  A    between atoms: C_13  and  N_14
REMARK    7  A    between atoms: C_15  and  C_17
REMARK                            x       y       z     vdW  Elec       q    Type
REMARK                         _______ _______ _______ _____ _____    ______ ____
ROOT
ATOM      1  C   UNL     1      47.428   5.347  14.361  0.00  0.00    +0.000 A 
ATOM      2  C   UNL     1      48.171   6.486  14.716  0.00  0.00    +0.000 A 
ATOM      3  C   UNL     1      48.633   6.664  16.025  0.00  0.00    +0.000 A 
ATOM      4  C   UNL     1      48.342   5.719  17.014  0.00  0.00    +0.000 A 
ATOM      5  C   UNL     1      47.523   4.630  16.684  0.00  0.00    +0.000 A 
ATOM      6  C   UNL     1      47.084   4.438  15.369  0.00  0.00    +0.000 A 
ENDROOT
BRANCH   1   7
ATOM      7  C   UNL     1      47.026   5.104  12.916  0.00  0.00    +0.000 C 
BRANCH   7  12
ATOM      8  C   UNL     1      43.661   5.010  11.067  0.00  0.00    +0.000 C 
ATOM      9  C   UNL     1      43.678   3.499  10.808  0.00  0.00    +0.000 C 
ATOM     10  C   UNL     1      44.135   2.755  12.054  0.00  0.00    +0.000 C 
ATOM     11  C   UNL     1      45.516   3.239  12.490  0.00  0.00    +0.000 C 
ATOM     12  N   UNL     1      45.607   4.694  12.709  0.00  0.00    +0.000 NA
ATOM     13  C   UNL     1      45.059   5.452  11.561  0.00  0.00    +0.000 C 
BRANCH   8  14
ATOM     14  C   UNL     1      42.534   5.451  12.022  0.00  0.00    +0.000 C 
BRANCH  14  15
ATOM     15  N   UNL     1      43.058   5.818  13.343  0.00  0.00    +0.000 NA
ATOM     16  H   UNL     1      42.465   5.410  14.065  0.00  0.00    +0.000 HD
ATOM     17  H   UNL     1      42.989   6.827  13.470  0.00  0.00    +0.000 HD
ENDBRANCH  14  15
ENDBRANCH   8  14
ENDBRANCH   7  12
ENDBRANCH   1   7
BRANCH   4  18
ATOM     18  C   UNL     1      48.897   5.869  18.406  0.00  0.00    +0.000 C 
BRANCH  18  19
ATOM     19  N   UNL     1      49.964   4.938  18.659  0.00  0.00    +0.000 N 
ATOM     20  C   UNL     1      51.271   5.282  18.410  0.00  0.00    +0.000 C 
ATOM     21  O   UNL     1      51.586   6.407  18.032  0.00  0.00    +0.000 OA
ATOM     22  H   UNL     1      49.710   3.959  18.748  0.00  0.00    +0.000 HD
BRANCH  20  23
ATOM     23  C   UNL     1      52.283   4.254  18.672  0.00  0.00    +0.000 A 
ATOM     24  C   UNL     1      53.404   4.570  19.428  0.00  0.00    +0.000 A 
ATOM     25  S   UNL     1      54.461   3.256  19.675  0.00  0.00    +0.000 S 
ATOM     26  C   UNL     1      53.488   2.227  18.732  0.00  0.00    +0.000 A 
ATOM     27  N   UNL     1      53.846   0.932  18.516  0.00  0.00    +0.000 NA
ATOM     28  C   UNL     1      53.034   0.274  17.756  0.00  0.00    +0.000 A 
ATOM     29  N   UNL     1      51.892   0.789  17.204  0.00  0.00    +0.000 N 
ATOM     30  C   UNL     1      51.475   2.082  17.420  0.00  0.00    +0.000 A 
ATOM     31  O   UNL     1      50.426   2.502  16.939  0.00  0.00    +0.000 OA
ATOM     32  C   UNL     1      52.360   2.872  18.255  0.00  0.00    +0.000 A 
ATOM     33  H   UNL     1      51.296   0.221  16.620  0.00  0.00    +0.000 HD
ENDBRANCH  20  23
ENDBRANCH  18  19
ENDBRANCH   4  18
TORSDOF 7
ENDMDL
MODEL 3
REMARK VINA RESULT:    -6.755      2.672      3.983
REMARK INTER + INTRA:         -10.258
REMARK INTER:                  -9.129
REMARK INTRA:                  -1.129
REMARK UNBOUND:                -0.937
REMARK  Name = 
REMARK  7 active torsions:
REMARK  status: ('A' for Active; 'I' for Inactive)
REMARK    1  A    between atoms: N_1  and  C_2
REMARK    2  A    between atoms: C_2  and  C_3
REMARK    3  A    between atoms: N_7  and  C_8
REMARK    4  A    between atoms: C_8  and  C_9
REMARK    5  A    between atoms: C_12  and  C_13
REMARK    6  A    between atoms: C_13  and  N_14
REMARK    7  A    between atoms: C_15  and  C_17
REMARK                            x       y       z     vdW  Elec       q    Type
REMARK                         _______ _______ _______ _____ _____    ______ ____
ROOT
ATOM      1  C   UNL     1      51.298   4.634  17.707  0.00  0.00    +0.000 A 
ATOM      2  C   UNL     1      50.924   3.280  17.700  0.00  0.00    +0.000 A 
ATOM      3  C   UNL     1      49.622   2.896  17.366  0.00  0.00    +0.000 A 
ATOM      4  C   UNL     1      48.656   3.858  17.054  0.00  0.00    +0.000 A 
ATOM      5  C   UNL     1      49.002   5.213  17.150  0.00  0.00    +0.000 A 
ATOM      6  C   UNL     1      50.313   5.597  17.458  0.00  0.00    +0.000 A 
ENDROOT
BRANCH   1   7
ATOM      7  C   UNL     1      52.741   5.039  17.961  0.00  0.00    +0.000 C 
BRANCH   7  12
ATOM      8  C   UNL     1      54.289   8.027  16.111  0.00  0.00    +0.000 C 
ATOM      9  C   UNL     1      55.701   7.436  16.033  0.00  0.00    +0.000 C 
ATOM     10  C   UNL     1      55.638   5.967  15.645  0.00  0.00    +0.000 C 
ATOM     11  C   UNL     1      54.785   5.186  16.642  0.00  0.00    +0.000 C 
ATOM     12  N   UNL     1      53.423   5.719  16.823  0.00  0.00    +0.000 NA
ATOM     13  C   UNL     1      53.440   7.176  17.085  0.00  0.00    +0.000 C 
BRANCH   8  14
ATOM     14  C   UNL     1      53.619   8.185  14.732  0.00  0.00    +0.000 C 
BRANCH  14  15
ATOM     15  N   UNL     1      52.294   7.555  14.700  0.00  0.00    +0.000 NA
ATOM     16  H   UNL     1      51.746   7.883  15.494  0.00  0.00    +0.000 HD
ATOM     17  H   UNL     1      52.390   6.549  14.832  0.00  0.00    +0.000 HD
ENDBRANCH  14  15
ENDBRANCH   8  14
ENDBRANCH   7  12
ENDBRANCH   1   7
BRANCH   4  18
ATOM     18  C   UNL     1      47.273   3.446  16.623  0.00  0.00    +0.000 C 
BRANCH  18  19
ATOM     19  N   UNL     1      46.690   4.398  15.715  0.00  0.00    +0.000 N 
ATOM     20  C   UNL     1      46.764   4.209  14.356  0.00  0.00    +0.000 C 
ATOM     21  O   UNL     1      47.262   3.199  13.867  0.00  0.00    +0.000 OA
ATOM     22  H   UNL     1      46.486   5.321  16.084  0.00  0.00    +0.000 HD
BRANCH  20  23
ATOM     23  C   UNL     1      46.166   5.250  13.514  0.00  0.00    +0.000 A 
ATOM     24  C   UNL     1      46.854   6.436  13.295  0.00  0.00    +0.000 A 
ATOM     25  S   UNL     1      46.041   7.521  12.262  0.00  0.00    +0.000 S 
ATOM     26  C   UNL     1      44.712   6.469  12.113  0.00  0.00    +0.000 A 
ATOM     27  N   UNL     1      43.630   6.813  11.365  0.00  0.00    +0.000 NA
ATOM     28  C   UNL     1      42.681   5.936  11.364  0.00  0.00    +0.000 A 
ATOM     29  N   UNL     1      42.723   4.742  12.033  0.00  0.00    +0.000 N 
ATOM     30  C   UNL     1      43.807   4.339  12.775  0.00  0.00    +0.000 A 
ATOM     31  O   UNL     1      43.827   3.245  13.333  0.00  0.00    +0.000 OA
ATOM     32  C   UNL     1      44.897   5.296  12.823  0.00  0.00    +0.000 A 
ATOM     33  H   UNL     1      41.948   4.097  11.991  0.00  0.00    +0.000 HD
ENDBRANCH  20  23
ENDBRANCH  18  19
ENDBRANCH   4  18
TORSDOF 7
ENDMDL
MODEL 4
REMARK VINA RESULT:    -6.715      3.834      5.576
REMARK INTER + INTRA:         -10.204
REMARK INTER:                  -9.526
REMARK INTRA:                  -0.678
REMARK UNBOUND:                -0.937
REMARK  Name = 
REMARK  7 active torsions:
REMARK  status: ('A' for Active; 'I' for Inactive)
REMARK    1  A    between atoms: N_1  and  C_2
REMARK    2  A    between atoms: C_2  and  C_3
REMARK    3  A    between atoms: N_7  and  C_8
REMARK    4  A    between atoms: C_8  and  C_9
REMARK    5  A    between atoms: C_12  and  C_13
REMARK    6  A    between atoms: C_13  and  N_14
REMARK    7  A    between atoms: C_15  and  C_17
REMARK                            x       y       z     vdW  Elec       q    Type
REMARK                         _______ _______ _______ _____ _____    ______ ____
ROOT
ATOM      1  C   UNL     1      49.480   8.144  15.727  0.00  0.00    +0.000 A 
ATOM      2  C   UNL     1      48.357   8.926  15.404  0.00  0.00    +0.000 A 
ATOM      3  C   UNL     1      47.791   8.876  14.126  0.00  0.00    +0.000 A 
ATOM      4  C   UNL     1      48.347   8.061  13.135  0.00  0.00    +0.000 A 
ATOM      5  C   UNL     1      49.520   7.352  13.428  0.00  0.00    +0.000 A 
ATOM      6  C   UNL     1      50.072   7.380  14.714  0.00  0.00    +0.000 A 
ENDROOT
BRANCH   1   7
ATOM      7  C   UNL     1      50.023   8.117  17.146  0.00  0.00    +0.000 C 
BRANCH   7  12
ATOM      8  C   UNL     1      48.527   4.750  18.229  0.00  0.00    +0.000 C 
ATOM      9  C   UNL     1      49.506   3.889  17.424  0.00  0.00    +0.000 C 
ATOM     10  C   UNL     1      50.922   4.426  17.567  0.00  0.00    +0.000 C 
ATOM     11  C   UNL     1      50.991   5.882  17.112  0.00  0.00    +0.000 C 
ATOM     12  N   UNL     1      50.041   6.777  17.797  0.00  0.00    +0.000 NA
ATOM     13  C   UNL     1      48.667   6.225  17.780  0.00  0.00    +0.000 C 
BRANCH   8  14
ATOM     14  C   UNL     1      48.680   4.583  19.754  0.00  0.00    +0.000 C 
BRANCH  14  15
ATOM     15  N   UNL     1      48.345   3.221  20.184  0.00  0.00    +0.000 NA
ATOM     16  H   UNL     1      48.344   2.602  19.374  0.00  0.00    +0.000 HD
ATOM     17  H   UNL     1      47.391   3.201  20.544  0.00  0.00    +0.000 HD
ENDBRANCH  14  15
ENDBRANCH   8  14
ENDBRANCH   7  12
ENDBRANCH   1   7
BRANCH   4  18
ATOM     18  C   UNL     1      47.697   7.948  11.780  0.00  0.00    +0.000 C 
BRANCH  18  19
ATOM     19  N   UNL     1      46.998   6.700  11.625  0.00  0.00    +0.000 N 
ATOM     20  C   UNL     1      45.631   6.640  11.750  0.00  0.00    +0.000 C 
ATOM     21  O   UNL     1      44.950   7.647  11.926  0.00  0.00    +0.000 OA
ATOM     22  H   UNL     1      47.548   5.850  11.706  0.00  0.00    +0.000 HD
BRANCH  20  23
ATOM     23  C   UNL     1      45.014   5.318  11.604  0.00  0.00    +0.000 A 
ATOM     24  C   UNL     1      44.360   4.742  12.685  0.00  0.00    +0.000 A 
ATOM     25  S   UNL     1      43.663   3.225  12.338  0.00  0.00    +0.000 S 
ATOM     26  C   UNL     1      44.258   3.256  10.744  0.00  0.00    +0.000 A 
ATOM     27  N   UNL     1      44.031   2.218   9.895  0.00  0.00    +0.000 NA
ATOM     28  C   UNL     1      44.566   2.358   8.727  0.00  0.00    +0.000 A 
ATOM     29  N   UNL     1      45.296   3.446   8.329  0.00  0.00    +0.000 N 
ATOM     30  C   UNL     1      45.526   4.530   9.143  0.00  0.00    +0.000 A 
ATOM     31  O   UNL     1      46.155   5.506   8.742  0.00  0.00    +0.000 OA
ATOM     32  C   UNL     1      44.959   4.418  10.474  0.00  0.00    +0.000 A 
ATOM     33  H   UNL     1      45.687   3.496   7.400  0.00  0.00    +0.000 HD
ENDBRANCH  20  23
ENDBRANCH  18  19
ENDBRANCH   4  18
TORSDOF 7
ENDMDL
MODEL 5
REMARK VINA RESULT:    -6.477      4.356      9.342
REMARK INTER + INTRA:          -9.876
REMARK INTER:                  -8.807
REMARK INTRA:                  -1.068
REMARK UNBOUND:                -0.937
REMARK  Name = 
REMARK  7 active torsions:
REMARK  status: ('A' for Active; 'I' for Inactive)
REMARK    1  A    between atoms: N_1  and  C_2
REMARK    2  A    between atoms: C_2  and  C_3
REMARK    3  A    between atoms: N_7  and  C_8
REMARK    4  A    between atoms: C_8  and  C_9
REMARK    5  A    between atoms: C_12  and  C_13
REMARK    6  A    between atoms: C_13  and  N_14
REMARK    7  A    between atoms: C_15  and  C_17
REMARK                            x       y       z     vdW  Elec       q    Type
REMARK                         _______ _______ _______ _____ _____    ______ ____
ROOT
ATOM      1  C   UNL     1      46.561   6.952  11.594  0.00  0.00    +0.000 A 
ATOM      2  C   UNL     1      47.860   6.710  12.074  0.00  0.00    +0.000 A 
ATOM      3  C   UNL     1      48.368   7.427  13.162  0.00  0.00    +0.000 A 
ATOM      4  C   UNL     1      47.600   8.419  13.779  0.00  0.00    +0.000 A 
ATOM      5  C   UNL     1      46.341   8.725  13.244  0.00  0.00    +0.000 A 
ATOM      6  C   UNL     1      45.821   7.989  12.173  0.00  0.00    +0.000 A 
ENDROOT
BRANCH   1   7
ATOM      7  C   UNL     1      45.973   6.094  10.485  0.00  0.00    +0.000 C 
BRANCH   7  12
ATOM      8  C   UNL     1      43.977   3.614  12.634  0.00  0.00    +0.000 C 
ATOM      9  C   UNL     1      42.900   4.620  13.057  0.00  0.00    +0.000 C 
ATOM     10  C   UNL     1      42.464   5.459  11.865  0.00  0.00    +0.000 C 
ATOM     11  C   UNL     1      43.662   6.183  11.253  0.00  0.00    +0.000 C 
ATOM     12  N   UNL     1      44.773   5.295  10.866  0.00  0.00    +0.000 NA
ATOM     13  C   UNL     1      45.146   4.379  11.967  0.00  0.00    +0.000 C 
BRANCH   8  14
ATOM     14  C   UNL     1      43.434   2.479  11.743  0.00  0.00    +0.000 C 
BRANCH  14  15
ATOM     15  N   UNL     1      44.205   2.351  10.501  0.00  0.00    +0.000 NA
ATOM     16  H   UNL     1      43.716   1.724   9.864  0.00  0.00    +0.000 HD
ATOM     17  H   UNL     1      45.098   1.899  10.698  0.00  0.00    +0.000 HD
ENDBRANCH  14  15
ENDBRANCH   8  14
ENDBRANCH   7  12
ENDBRANCH   1   7
BRANCH   4  18
ATOM     18  C   UNL     1      48.115   9.142  14.996  0.00  0.00    +0.000 C 
BRANCH  18  19
ATOM     19  N   UNL     1      48.178   8.279  16.146  0.00  0.00    +0.000 N 
ATOM     20  C   UNL     1      49.383   7.969  16.727  0.00  0.00    +0.000 C 
ATOM     21  O   UNL     1      50.438   8.465  16.340  0.00  0.00    +0.000 OA
ATOM     22  H   UNL     1      47.367   7.696  16.329  0.00  0.00    +0.000 HD
BRANCH  20  23
ATOM     23  C   UNL     1      49.346   7.058  17.875  0.00  0.00    +0.000 A 
ATOM     24  C   UNL     1      49.770   7.502  19.120  0.00  0.00    +0.000 A 
ATOM     25  S   UNL     1      49.624   6.336  20.354  0.00  0.00    +0.000 S 
ATOM     26  C   UNL     1      49.039   5.172  19.259  0.00  0.00    +0.000 A 
ATOM     27  N   UNL     1      48.732   3.914  19.675  0.00  0.00    +0.000 NA
ATOM     28  C   UNL     1      48.330   3.124  18.735  0.00  0.00    +0.000 A 
ATOM     29  N   UNL     1      48.195   3.483  17.420  0.00  0.00    +0.000 N 
ATOM     30  C   UNL     1      48.463   4.750  16.960  0.00  0.00    +0.000 A 
ATOM     31  O   UNL     1      48.297   5.048  15.780  0.00  0.00    +0.000 OA
ATOM     32  C   UNL     1      48.935   5.675  17.974  0.00  0.00    +0.000 A 
ATOM     33  H   UNL     1      47.872   2.818  16.732  0.00  0.00    +0.000 HD
ENDBRANCH  20  23
ENDBRANCH  18  19
ENDBRANCH   4  18
TORSDOF 7
ENDMDL
MODEL 6
REMARK VINA RESULT:    -6.476      3.086      9.487
REMARK INTER + INTRA:          -9.873
REMARK INTER:                  -9.102
REMARK INTRA:                  -0.772
REMARK UNBOUND:                -0.937
REMARK  Name = 
REMARK  7 active torsions:
REMARK  status: ('A' for Active; 'I' for Inactive)
REMARK    1  A    between atoms: N_1  and  C_2
REMARK    2  A    between atoms: C_2  and  C_3
REMARK    3  A    between atoms: N_7  and  C_8
REMARK    4  A    between atoms: C_8  and  C_9
REMARK    5  A    between atoms: C_12  and  C_13
REMARK    6  A    between atoms: C_13  and  N_14
REMARK    7  A    between atoms: C_15  and  C_17
REMARK                            x       y       z     vdW  Elec       q    Type
REMARK                         _______ _______ _______ _____ _____    ______ ____
ROOT
ATOM      1  C   UNL     1      46.871   6.708  12.278  0.00  0.00    +0.000 A 
ATOM      2  C   UNL     1      46.697   7.998  12.808  0.00  0.00    +0.000 A 
ATOM      3  C   UNL     1      47.383   8.401  13.959  0.00  0.00    +0.000 A 
ATOM      4  C   UNL     1      48.240   7.516  14.620  0.00  0.00    +0.000 A 
ATOM      5  C   UNL     1      48.343   6.200  14.146  0.00  0.00    +0.000 A 
ATOM      6  C   UNL     1      47.679   5.805  12.979  0.00  0.00    +0.000 A 
ENDROOT
BRANCH   1   7
ATOM      7  C   UNL     1      46.212   6.314  10.967  0.00  0.00    +0.000 C 
BRANCH   7  12
ATOM      8  C   UNL     1      43.899   3.677  12.530  0.00  0.00    +0.000 C 
ATOM      9  C   UNL     1      42.807   4.668  12.947  0.00  0.00    +0.000 C 
ATOM     10  C   UNL     1      42.544   5.666  11.830  0.00  0.00    +0.000 C 
ATOM     11  C   UNL     1      43.827   6.407  11.461  0.00  0.00    +0.000 C 
ATOM     12  N   UNL     1      44.953   5.526  11.097  0.00  0.00    +0.000 NA
ATOM     13  C   UNL     1      45.161   4.466  12.110  0.00  0.00    +0.000 C 
BRANCH   8  14
ATOM     14  C   UNL     1      43.437   2.685  11.444  0.00  0.00    +0.000 C 
BRANCH  14  15
ATOM     15  N   UNL     1      44.481   2.464  10.436  0.00  0.00    +0.000 NA
ATOM     16  H   UNL     1      45.387   2.714  10.829  0.00  0.00    +0.000 HD
ATOM     17  H   UNL     1      44.338   3.100   9.652  0.00  0.00    +0.000 HD
ENDBRANCH  14  15
ENDBRANCH   8  14
ENDBRANCH   7  12
ENDBRANCH   1   7
BRANCH   4  18
ATOM     18  C   UNL     1      49.036   7.967  15.816  0.00  0.00    +0.000 C 
BRANCH  18  19
ATOM     19  N   UNL     1      50.010   6.985  16.213  0.00  0.00    +0.000 N 
ATOM     20  C   UNL     1      49.869   6.292  17.391  0.00  0.00    +0.000 C 
ATOM     21  O   UNL     1      48.883   6.427  18.110  0.00  0.00    +0.000 OA
ATOM     22  H   UNL     1      50.917   7.027  15.760  0.00  0.00    +0.000 HD
BRANCH  20  23
ATOM     23  C   UNL     1      50.929   5.335  17.722  0.00  0.00    +0.000 A 
ATOM     24  C   UNL     1      52.125   5.792  18.260  0.00  0.00    +0.000 A 
ATOM     25  S   UNL     1      53.234   4.550  18.626  0.00  0.00    +0.000 S 
ATOM     26  C   UNL     1      52.179   3.358  18.025  0.00  0.00    +0.000 A 
ATOM     27  N   UNL     1      52.539   2.046  18.022  0.00  0.00    +0.000 NA
ATOM     28  C   UNL     1      51.657   1.252  17.509  0.00  0.00    +0.000 A 
ATOM     29  N   UNL     1      50.446   1.651  17.011  0.00  0.00    +0.000 N 
ATOM     30  C   UNL     1      50.028   2.961  17.021  0.00  0.00    +0.000 A 
ATOM     31  O   UNL     1      48.919   3.279  16.600  0.00  0.00    +0.000 OA
ATOM     32  C   UNL     1      50.988   3.898  17.574  0.00  0.00    +0.000 A 
ATOM     33  H   UNL     1      49.798   0.980  16.625  0.00  0.00    +0.000 HD
ENDBRANCH  20  23
ENDBRANCH  18  19
ENDBRANCH   4  18
TORSDOF 7
ENDMDL
MODEL 7
REMARK VINA RESULT:    -6.418      1.611      2.371
REMARK INTER + INTRA:          -9.794
REMARK INTER:                  -8.776
REMARK INTRA:                  -1.018
REMARK UNBOUND:                -0.937
REMARK  Name = 
REMARK  7 active torsions:
REMARK  status: ('A' for Active; 'I' for Inactive)
REMARK    1  A    between atoms: N_1  and  C_2
REMARK    2  A    between atoms: C_2  and  C_3
REMARK    3  A    between atoms: N_7  and  C_8
REMARK    4  A    between atoms: C_8  and  C_9
REMARK    5  A    between atoms: C_12  and  C_13
REMARK    6  A    between atoms: C_13  and  N_14
REMARK    7  A    between atoms: C_15  and  C_17
REMARK                            x       y       z     vdW  Elec       q    Type
REMARK                         _______ _______ _______ _____ _____    ______ ____
ROOT
ATOM      1  C   UNL     1      50.440   5.428  18.989  0.00  0.00    +0.000 A 
ATOM      2  C   UNL     1      49.647   4.388  19.504  0.00  0.00    +0.000 A 
ATOM      3  C   UNL     1      48.633   3.809  18.733  0.00  0.00    +0.000 A 
ATOM      4  C   UNL     1      48.373   4.272  17.440  0.00  0.00    +0.000 A 
ATOM      5  C   UNL     1      49.101   5.370  16.960  0.00  0.00    +0.000 A 
ATOM      6  C   UNL     1      50.134   5.931  17.719  0.00  0.00    +0.000 A 
ENDROOT
BRANCH   1   7
ATOM      7  C   UNL     1      51.612   5.976  19.787  0.00  0.00    +0.000 C 
BRANCH   7  12
ATOM      8  C   UNL     1      54.625   4.013  18.438  0.00  0.00    +0.000 C 
ATOM      9  C   UNL     1      55.671   4.758  19.274  0.00  0.00    +0.000 C 
ATOM     10  C   UNL     1      55.176   4.939  20.701  0.00  0.00    +0.000 C 
ATOM     11  C   UNL     1      53.847   5.690  20.715  0.00  0.00    +0.000 C 
ATOM     12  N   UNL     1      52.793   5.072  19.890  0.00  0.00    +0.000 NA
ATOM     13  C   UNL     1      53.279   4.772  18.524  0.00  0.00    +0.000 C 
BRANCH   8  14
ATOM     14  C   UNL     1      54.486   2.526  18.821  0.00  0.00    +0.000 C 
BRANCH  14  15
ATOM     15  N   UNL     1      53.079   2.128  18.937  0.00  0.00    +0.000 NA
ATOM     16  H   UNL     1      52.505   2.957  19.088  0.00  0.00    +0.000 HD
ATOM     17  H   UNL     1      52.953   1.553  19.770  0.00  0.00    +0.000 HD
ENDBRANCH  14  15
ENDBRANCH   8  14
ENDBRANCH   7  12
ENDBRANCH   1   7
BRANCH   4  18
ATOM     18  C   UNL     1      47.332   3.604  16.581  0.00  0.00    +0.000 C 
BRANCH  18  19
ATOM     19  N   UNL     1      46.729   4.527  15.656  0.00  0.00    +0.000 N 
ATOM     20  C   UNL     1      46.733   4.272  14.305  0.00  0.00    +0.000 C 
ATOM     21  O   UNL     1      47.181   3.226  13.843  0.00  0.00    +0.000 OA
ATOM     22  H   UNL     1      46.567   5.473  15.988  0.00  0.00    +0.000 HD
BRANCH  20  23
ATOM     23  C   UNL     1      46.121   5.287  13.442  0.00  0.00    +0.000 A 
ATOM     24  C   UNL     1      46.809   6.462  13.169  0.00  0.00    +0.000 A 
ATOM     25  S   UNL     1      45.978   7.517  12.118  0.00  0.00    +0.000 S 
ATOM     26  C   UNL     1      44.642   6.466  12.034  0.00  0.00    +0.000 A 
ATOM     27  N   UNL     1      43.545   6.792  11.299  0.00  0.00    +0.000 NA
ATOM     28  C   UNL     1      42.592   5.920  11.348  0.00  0.00    +0.000 A 
ATOM     29  N   UNL     1      42.643   4.748  12.055  0.00  0.00    +0.000 N 
ATOM     30  C   UNL     1      43.742   4.365  12.786  0.00  0.00    +0.000 A 
ATOM     31  O   UNL     1      43.769   3.290  13.380  0.00  0.00    +0.000 OA
ATOM     32  C   UNL     1      44.838   5.317  12.778  0.00  0.00    +0.000 A 
ATOM     33  H   UNL     1      41.865   4.106  12.051  0.00  0.00    +0.000 HD
ENDBRANCH  20  23
ENDBRANCH  18  19
ENDBRANCH   4  18
TORSDOF 7
ENDMDL
MODEL 8
REMARK VINA RESULT:    -6.383      6.787     10.268
REMARK INTER + INTRA:          -9.745
REMARK INTER:                  -8.654
REMARK INTRA:                  -1.091
REMARK UNBOUND:                -0.937
REMARK  Name = 
REMARK  7 active torsions:
REMARK  status: ('A' for Active; 'I' for Inactive)
REMARK    1  A    between atoms: N_1  and  C_2
REMARK    2  A    between atoms: C_2  and  C_3
REMARK    3  A    between atoms: N_7  and  C_8
REMARK    4  A    between atoms: C_8  and  C_9
REMARK    5  A    between atoms: C_12  and  C_13
REMARK    6  A    between atoms: C_13  and  N_14
REMARK    7  A    between atoms: C_15  and  C_17
REMARK                            x       y       z     vdW  Elec       q    Type
REMARK                         _______ _______ _______ _____ _____    ______ ____
ROOT
ATOM      1  C   UNL     1      47.455   6.475  13.137  0.00  0.00    +0.000 A 
ATOM      2  C   UNL     1      47.561   7.041  11.855  0.00  0.00    +0.000 A 
ATOM      3  C   UNL     1      48.713   7.735  11.469  0.00  0.00    +0.000 A 
ATOM      4  C   UNL     1      49.775   7.900  12.363  0.00  0.00    +0.000 A 
ATOM      5  C   UNL     1      49.633   7.417  13.672  0.00  0.00    +0.000 A 
ATOM      6  C   UNL     1      48.493   6.699  14.050  0.00  0.00    +0.000 A 
ENDROOT
BRANCH   1   7
ATOM      7  C   UNL     1      46.251   5.628  13.513  0.00  0.00    +0.000 C 
BRANCH   7  12
ATOM      8  C   UNL     1      44.422   3.591  10.819  0.00  0.00    +0.000 C 
ATOM      9  C   UNL     1      43.036   3.705  11.464  0.00  0.00    +0.000 C 
ATOM     10  C   UNL     1      42.797   5.126  11.952  0.00  0.00    +0.000 C 
ATOM     11  C   UNL     1      43.883   5.543  12.941  0.00  0.00    +0.000 C 
ATOM     12  N   UNL     1      45.257   5.412  12.422  0.00  0.00    +0.000 NA
ATOM     13  C   UNL     1      45.489   4.075  11.830  0.00  0.00    +0.000 C 
BRANCH   8  14
ATOM     14  C   UNL     1      44.524   4.318   9.463  0.00  0.00    +0.000 C 
BRANCH  14  15
ATOM     15  N   UNL     1      45.607   5.308   9.462  0.00  0.00    +0.000 NA
ATOM     16  H   UNL     1      45.209   6.243   9.546  0.00  0.00    +0.000 HD
ATOM     17  H   UNL     1      46.083   5.293   8.560  0.00  0.00    +0.000 HD
ENDBRANCH  14  15
ENDBRANCH   8  14
ENDBRANCH   7  12
ENDBRANCH   1   7
BRANCH   4  18
ATOM     18  C   UNL     1      51.045   8.582  11.929  0.00  0.00    +0.000 C 
BRANCH  18  19
ATOM     19  N   UNL     1      51.409   8.229  10.582  0.00  0.00    +0.000 N 
ATOM     20  C   UNL     1      52.671   8.487  10.104  0.00  0.00    +0.000 C 
ATOM     21  O   UNL     1      53.552   8.959  10.818  0.00  0.00    +0.000 OA
ATOM     22  H   UNL     1      50.650   8.057   9.930  0.00  0.00    +0.000 HD
BRANCH  20  23
ATOM     23  C   UNL     1      52.935   8.118   8.710  0.00  0.00    +0.000 A 
ATOM     24  C   UNL     1      52.804   9.071   7.709  0.00  0.00    +0.000 A 
ATOM     25  S   UNL     1      53.187   8.492   6.153  0.00  0.00    +0.000 S 
ATOM     26  C   UNL     1      53.489   6.928   6.751  0.00  0.00    +0.000 A 
ATOM     27  N   UNL     1      53.846   5.918   5.912  0.00  0.00    +0.000 NA
ATOM     28  C   UNL     1      54.014   4.776   6.494  0.00  0.00    +0.000 A 
ATOM     29  N   UNL     1      53.867   4.557   7.838  0.00  0.00    +0.000 N 
ATOM     30  C   UNL     1      53.537   5.553   8.726  0.00  0.00    +0.000 A 
ATOM     31  O   UNL     1      53.450   5.330   9.930  0.00  0.00    +0.000 OA
ATOM     32  C   UNL     1      53.322   6.855   8.122  0.00  0.00    +0.000 A 
ATOM     33  H   UNL     1      54.015   3.640   8.232  0.00  0.00    +0.000 HD
ENDBRANCH  20  23
ENDBRANCH  18  19
ENDBRANCH   4  18
TORSDOF 7
ENDMDL
MODEL 9
REMARK VINA RESULT:    -6.262      7.308     10.527
REMARK INTER + INTRA:          -9.578
REMARK INTER:                  -8.929
REMARK INTRA:                  -0.650
REMARK UNBOUND:                -0.937
REMARK  Name = 
REMARK  7 active torsions:
REMARK  status: ('A' for Active; 'I' for Inactive)
REMARK    1  A    between atoms: N_1  and  C_2
REMARK    2  A    between atoms: C_2  and  C_3
REMARK    3  A    between atoms: N_7  and  C_8
REMARK    4  A    between atoms: C_8  and  C_9
REMARK    5  A    between atoms: C_12  and  C_13
REMARK    6  A    between atoms: C_13  and  N_14
REMARK    7  A    between atoms: C_15  and  C_17
REMARK                            x       y       z     vdW  Elec       q    Type
REMARK                         _______ _______ _______ _____ _____    ______ ____
ROOT
ATOM      1  C   UNL     1      47.248   7.649  12.542  0.00  0.00    +0.000 A 
ATOM      2  C   UNL     1      47.404   8.983  12.128  0.00  0.00    +0.000 A 
ATOM      3  C   UNL     1      48.642   9.456  11.680  0.00  0.00    +0.000 A 
ATOM      4  C   UNL     1      49.758   8.614  11.658  0.00  0.00    +0.000 A 
ATOM      5  C   UNL     1      49.626   7.310  12.157  0.00  0.00    +0.000 A 
ATOM      6  C   UNL     1      48.382   6.828  12.580  0.00  0.00    +0.000 A 
ENDROOT
BRANCH   1   7
ATOM      7  C   UNL     1      45.879   7.110  12.921  0.00  0.00    +0.000 C 
BRANCH   7  12
ATOM      8  C   UNL     1      43.396   4.424  11.752  0.00  0.00    +0.000 C 
ATOM      9  C   UNL     1      43.608   4.670  10.254  0.00  0.00    +0.000 C 
ATOM     10  C   UNL     1      45.088   4.837   9.950  0.00  0.00    +0.000 C 
ATOM     11  C   UNL     1      45.677   5.983  10.770  0.00  0.00    +0.000 C 
ATOM     12  N   UNL     1      45.471   5.857  12.224  0.00  0.00    +0.000 NA
ATOM     13  C   UNL     1      44.055   5.575  12.549  0.00  0.00    +0.000 C 
BRANCH   8  14
ATOM     14  C   UNL     1      43.880   3.035  12.215  0.00  0.00    +0.000 C 
BRANCH  14  15
ATOM     15  N   UNL     1      43.034   1.962  11.680  0.00  0.00    +0.000 NA
ATOM     16  H   UNL     1      42.115   2.340  11.452  0.00  0.00    +0.000 HD
ATOM     17  H   UNL     1      42.870   1.263  12.404  0.00  0.00    +0.000 HD
ENDBRANCH  14  15
ENDBRANCH   8  14
ENDBRANCH   7  12
ENDBRANCH   1   7
BRANCH   4  18
ATOM     18  C   UNL     1      51.074   9.098  11.108  0.00  0.00    +0.000 C 
BRANCH  18  19
ATOM     19  N   UNL     1      51.982   8.010  10.859  0.00  0.00    +0.000 N 
ATOM     20  C   UNL     1      52.822   8.031   9.772  0.00  0.00    +0.000 C 
ATOM     21  O   UNL     1      52.884   8.997   9.017  0.00  0.00    +0.000 OA
ATOM     22  H   UNL     1      51.787   7.130  11.326  0.00  0.00    +0.000 HD
BRANCH  20  23
ATOM     23  C   UNL     1      53.689   6.862   9.587  0.00  0.00    +0.000 A 
ATOM     24  C   UNL     1      54.634   6.548  10.555  0.00  0.00    +0.000 A 
ATOM     25  S   UNL     1      55.530   5.140  10.209  0.00  0.00    +0.000 S 
ATOM     26  C   UNL     1      54.726   4.928   8.724  0.00  0.00    +0.000 A 
ATOM     27  N   UNL     1      55.044   3.893   7.901  0.00  0.00    +0.000 NA
ATOM     28  C   UNL     1      54.378   3.870   6.793  0.00  0.00    +0.000 A 
ATOM     29  N   UNL     1      53.418   4.780   6.441  0.00  0.00    +0.000 N 
ATOM     30  C   UNL     1      53.043   5.823   7.254  0.00  0.00    +0.000 A 
ATOM     31  O   UNL     1      52.152   6.600   6.924  0.00  0.00    +0.000 OA
ATOM     32  C   UNL     1      53.771   5.905   8.507  0.00  0.00    +0.000 A 
ATOM     33  H   UNL     1      52.931   4.705   5.560  0.00  0.00    +0.000 HD
ENDBRANCH  20  23
ENDBRANCH  18  19
ENDBRANCH   4  18
TORSDOF 7
ENDMDL
