MODEL 1
REMARK VINA RESULT:    -7.651      0.000      0.000
REMARK INTER + INTRA:          -9.360
REMARK INTER:                  -9.217
REMARK INTRA:                  -0.143
REMARK UNBOUND:                -0.143
REMARK  Name = 
REMARK  4 active torsions:
REMARK  status: ('A' for Active; 'I' for Inactive)
REMARK    1  A    between atoms: N_1  and  C_2
REMARK    2  A    between atoms: C_2  and  C_3
REMARK    3  A    between atoms: C_7  and  C_8
REMARK    4  A    between atoms: C_8  and  N_9
REMARK                            x       y       z     vdW  Elec       q    Type
REMARK                         _______ _______ _______ _____ _____    ______ ____
ROOT
ATOM      1  C   UNL     1      45.393   4.893  12.906  0.00  0.00    +0.000 A 
ATOM      2  C   UNL     1      44.062   5.051  13.273  0.00  0.00    +0.000 A 
ATOM      3  C   UNL     1      43.103   5.192  12.278  0.00  0.00    +0.000 A 
ATOM      4  C   UNL     1      43.494   5.179  10.940  0.00  0.00    +0.000 A 
ATOM      5  C   UNL     1      44.846   5.015  10.644  0.00  0.00    +0.000 A 
ATOM      6  N   UNL     1      45.785   4.850  11.606  0.00  0.00    +0.000 NA
ENDROOT
BRANCH   1   7
ATOM      7  C   UNL     1      46.469   4.715  13.952  0.00  0.00    +0.000 C 
BRANCH   7   8
ATOM      8  N   UNL     1      47.104   3.397  13.880  0.00  0.00    +0.000 NA
ATOM      9  H   UNL     1      48.107   3.527  13.751  0.00  0.00    +0.000 HD
ATOM     10  H   UNL     1      46.770   2.943  13.029  0.00  0.00    +0.000 HD
ENDBRANCH   7   8
ENDBRANCH   1   7
BRANCH   5  11
ATOM     11  C   UNL     1      45.313   4.929   9.218  0.00  0.00    +0.000 C 
BRANCH  11  12
ATOM     12  N   UNL     1      45.222   3.592   8.626  0.00  0.00    +0.000 N 
ATOM     13  C   UNL     1      44.401   2.615   9.140  0.00  0.00    +0.000 A 
ATOM     14  C   UNL     1      44.989   1.397   8.878  0.00  0.00    +0.000 A 
ATOM     15  C   UNL     1      46.117   1.630   8.048  0.00  0.00    +0.000 A 
ATOM     16  C   UNL     1      47.094   0.805   7.475  0.00  0.00    +0.000 A 
ATOM     17  N   UNL     1      48.020   1.312   6.627  0.00  0.00    +0.000 NA
ATOM     18  C   UNL     1      47.989   2.634   6.347  0.00  0.00    +0.000 A 
ATOM     19  C   UNL     1      47.110   3.545   6.919  0.00  0.00    +0.000 A 
ATOM     20  C   UNL     1      46.172   3.010   7.805  0.00  0.00    +0.000 A 
ENDBRANCH  11  12
ENDBRANCH   5  11
TORSDOF 4
ENDMDL
MODEL 2
REMARK VINA RESULT:    -7.607      1.366      5.775
REMARK INTER + INTRA:          -9.307
REMARK INTER:                  -8.990
REMARK INTRA:                  -0.318
REMARK UNBOUND:                -0.143
REMARK  Name = 
REMARK  4 active torsions:
REMARK  status: ('A' for Active; 'I' for Inactive)
REMARK    1  A    between atoms: N_1  and  C_2
REMARK    2  A    between atoms: C_2  and  C_3
REMARK    3  A    between atoms: C_7  and  C_8
REMARK    4  A    between atoms: C_8  and  N_9
REMARK                            x       y       z     vdW  Elec       q    Type
REMARK                         _______ _______ _______ _____ _____    ______ ____
ROOT
ATOM      1  C   UNL     1      46.547   2.068   7.721  0.00  0.00    +0.000 A 
ATOM      2  C   UNL     1      46.826   3.335   7.221  0.00  0.00    +0.000 A 
ATOM      3  C   UNL     1      46.154   4.429   7.752  0.00  0.00    +0.000 A 
ATOM      4  C   UNL     1      45.215   4.236   8.763  0.00  0.00    +0.000 A 
ATOM      5  C   UNL     1      44.986   2.938   9.218  0.00  0.00    +0.000 A 
ATOM      6  N   UNL     1      45.654   1.868   8.726  0.00  0.00    +0.000 NA
ENDROOT
BRANCH   1   7
ATOM      7  C   UNL     1      47.266   0.850   7.191  0.00  0.00    +0.000 C 
BRANCH   7   8
ATOM      8  N   UNL     1      46.764  -0.394   7.780  0.00  0.00    +0.000 NA
ATOM      9  H   UNL     1      45.790  -0.514   7.503  0.00  0.00    +0.000 HD
ATOM     10  H   UNL     1      46.752  -0.269   8.792  0.00  0.00    +0.000 HD
ENDBRANCH   7   8
ENDBRANCH   1   7
BRANCH   5  11
ATOM     11  C   UNL     1      44.032   2.682  10.350  0.00  0.00    +0.000 C 
BRANCH  11  12
ATOM     12  N   UNL     1      43.953   3.761  11.338  0.00  0.00    +0.000 N 
ATOM     13  C   UNL     1      43.069   4.808  11.214  0.00  0.00    +0.000 A 
ATOM     14  C   UNL     1      43.644   5.910  11.807  0.00  0.00    +0.000 A 
ATOM     15  C   UNL     1      44.839   5.484  12.445  0.00  0.00    +0.000 A 
ATOM     16  C   UNL     1      45.837   6.137  13.183  0.00  0.00    +0.000 A 
ATOM     17  N   UNL     1      46.838   5.436  13.765  0.00  0.00    +0.000 NA
ATOM     18  C   UNL     1      46.863   4.093  13.615  0.00  0.00    +0.000 A 
ATOM     19  C   UNL     1      45.967   3.364  12.844  0.00  0.00    +0.000 A 
ATOM     20  C   UNL     1      44.949   4.102  12.236  0.00  0.00    +0.000 A 
ENDBRANCH  11  12
ENDBRANCH   5  11
TORSDOF 4
ENDMDL
MODEL 3
REMARK VINA RESULT:    -7.071      1.691      2.974
REMARK INTER + INTRA:          -8.662
REMARK INTER:                  -8.198
REMARK INTRA:                  -0.464
REMARK UNBOUND:                -0.143
REMARK  Name = 
REMARK  4 active torsions:
REMARK  status: ('A' for Active; 'I' for Inactive)
REMARK    1  A    between atoms: N_1  and  C_2
REMARK    2  A    between atoms: C_2  and  C_3
REMARK    3  A    between atoms: C_7  and  C_8
REMARK    4  A    between atoms: C_8  and  N_9
REMARK                            x       y       z     vdW  Elec       q    Type
REMARK                         _______ _______ _______ _____ _____    ______ ____
ROOT
ATOM      1  C   UNL     1      47.069   5.434  13.815  0.00  0.00    +0.000 A 
ATOM      2  C   UNL     1      48.154   6.206  13.416  0.00  0.00    +0.000 A 
ATOM      3  C   UNL     1      48.024   7.019  12.297  0.00  0.00    +0.000 A 
ATOM      4  C   UNL     1      46.819   7.039  11.598  0.00  0.00    +0.000 A 
ATOM      5  C   UNL     1      45.771   6.240  12.055  0.00  0.00    +0.000 A 
ATOM      6  N   UNL     1      45.879   5.464  13.160  0.00  0.00    +0.000 NA
ENDROOT
BRANCH   1   7
ATOM      7  C   UNL     1      47.156   4.550  15.037  0.00  0.00    +0.000 C 
BRANCH   7   8
ATOM      8  N   UNL     1      47.531   3.173  14.704  0.00  0.00    +0.000 NA
ATOM      9  H   UNL     1      46.922   2.843  13.956  0.00  0.00    +0.000 HD
ATOM     10  H   UNL     1      47.315   2.593  15.515  0.00  0.00    +0.000 HD
ENDBRANCH   7   8
ENDBRANCH   1   7
BRANCH   5  11
ATOM     11  C   UNL     1      44.431   6.273  11.377  0.00  0.00    +0.000 C 
BRANCH  11  12
ATOM     12  N   UNL     1      43.985   4.984  10.843  0.00  0.00    +0.000 N 
ATOM     13  C   UNL     1      43.173   4.134  11.558  0.00  0.00    +0.000 A 
ATOM     14  C   UNL     1      43.477   2.847  11.172  0.00  0.00    +0.000 A 
ATOM     15  C   UNL     1      44.385   2.924  10.083  0.00  0.00    +0.000 A 
ATOM     16  C   UNL     1      45.045   1.972   9.294  0.00  0.00    +0.000 A 
ATOM     17  N   UNL     1      45.799   2.351   8.235  0.00  0.00    +0.000 NA
ATOM     18  C   UNL     1      45.909   3.670   7.956  0.00  0.00    +0.000 A 
ATOM     19  C   UNL     1      45.356   4.690   8.718  0.00  0.00    +0.000 A 
ATOM     20  C   UNL     1      44.596   4.284   9.817  0.00  0.00    +0.000 A 
ENDBRANCH  11  12
ENDBRANCH   5  11
TORSDOF 4
ENDMDL
MODEL 4
REMARK VINA RESULT:    -7.060      1.662      6.059
REMARK INTER + INTRA:          -8.648
REMARK INTER:                  -8.256
REMARK INTRA:                  -0.392
REMARK UNBOUND:                -0.143
REMARK  Name = 
REMARK  4 active torsions:
REMARK  status: ('A' for Active; 'I' for Inactive)
REMARK    1  A    between atoms: N_1  and  C_2
REMARK    2  A    between atoms: C_2  and  C_3
REMARK    3  A    between atoms: C_7  and  C_8
REMARK    4  A    between atoms: C_8  and  N_9
REMARK                            x       y       z     vdW  Elec       q    Type
REMARK                         _______ _______ _______ _____ _____    ______ ____
ROOT
ATOM      1  C   UNL     1      46.577   2.678   6.679  0.00  0.00    +0.000 A 
ATOM      2  C   UNL     1      46.752   1.408   7.218  0.00  0.00    +0.000 A 
ATOM      3  C   UNL     1      46.061   1.069   8.374  0.00  0.00    +0.000 A 
ATOM      4  C   UNL     1      45.216   2.004   8.970  0.00  0.00    +0.000 A 
ATOM      5  C   UNL     1      45.087   3.258   8.374  0.00  0.00    +0.000 A 
ATOM      6  N   UNL     1      45.736   3.589   7.232  0.00  0.00    +0.000 NA
ENDROOT
BRANCH   1   7
ATOM      7  C   UNL     1      47.292   3.086   5.412  0.00  0.00    +0.000 C 
BRANCH   7   8
ATOM      8  N   UNL     1      48.410   2.195   5.090  0.00  0.00    +0.000 NA
ATOM      9  H   UNL     1      49.002   2.107   5.915  0.00  0.00    +0.000 HD
ATOM     10  H   UNL     1      48.981   2.665   4.387  0.00  0.00    +0.000 HD
ENDBRANCH   7   8
ENDBRANCH   1   7
BRANCH   5  11
ATOM     11  C   UNL     1      44.140   4.279   8.939  0.00  0.00    +0.000 C 
BRANCH  11  12
ATOM     12  N   UNL     1      44.203   4.431  10.394  0.00  0.00    +0.000 N 
ATOM     13  C   UNL     1      43.199   3.988  11.224  0.00  0.00    +0.000 A 
ATOM     14  C   UNL     1      43.177   4.812  12.327  0.00  0.00    +0.000 A 
ATOM     15  C   UNL     1      44.297   5.681  12.241  0.00  0.00    +0.000 A 
ATOM     16  C   UNL     1      44.789   6.721  13.042  0.00  0.00    +0.000 A 
ATOM     17  N   UNL     1      45.965   7.324  12.749  0.00  0.00    +0.000 NA
ATOM     18  C   UNL     1      46.655   6.909  11.663  0.00  0.00    +0.000 A 
ATOM     19  C   UNL     1      46.218   5.941  10.769  0.00  0.00    +0.000 A 
ATOM     20  C   UNL     1      44.995   5.340  11.074  0.00  0.00    +0.000 A 
ENDBRANCH  11  12
ENDBRANCH   5  11
TORSDOF 4
ENDMDL
MODEL 5
REMARK VINA RESULT:    -6.747      1.462      5.751
REMARK INTER + INTRA:          -8.271
REMARK INTER:                  -7.830
REMARK INTRA:                  -0.441
REMARK UNBOUND:                -0.143
REMARK  Name = 
REMARK  4 active torsions:
REMARK  status: ('A' for Active; 'I' for Inactive)
REMARK    1  A    between atoms: N_1  and  C_2
REMARK    2  A    between atoms: C_2  and  C_3
REMARK    3  A    between atoms: C_7  and  C_8
REMARK    4  A    between atoms: C_8  and  N_9
REMARK                            x       y       z     vdW  Elec       q    Type
REMARK                         _______ _______ _______ _____ _____    ______ ____
ROOT
ATOM      1  C   UNL     1      45.933   3.607   8.135  0.00  0.00    +0.000 A 
ATOM      2  C   UNL     1      45.765   2.230   8.220  0.00  0.00    +0.000 A 
ATOM      3  C   UNL     1      44.869   1.719   9.151  0.00  0.00    +0.000 A 
ATOM      4  C   UNL     1      44.165   2.591   9.979  0.00  0.00    +0.000 A 
ATOM      5  C   UNL     1      44.382   3.961   9.838  0.00  0.00    +0.000 A 
ATOM      6  N   UNL     1      45.234   4.471   8.917  0.00  0.00    +0.000 NA
ENDROOT
BRANCH   1   7
ATOM      7  C   UNL     1      46.881   4.211   7.126  0.00  0.00    +0.000 C 
BRANCH   7   8
ATOM      8  N   UNL     1      47.068   3.352   5.953  0.00  0.00    +0.000 NA
ATOM      9  H   UNL     1      46.152   3.126   5.568  0.00  0.00    +0.000 HD
ATOM     10  H   UNL     1      47.459   2.469   6.281  0.00  0.00    +0.000 HD
ENDBRANCH   7   8
ENDBRANCH   1   7
BRANCH   5  11
ATOM     11  C   UNL     1      43.602   4.948  10.662  0.00  0.00    +0.000 C 
BRANCH  11  12
ATOM     12  N   UNL     1      44.417   5.781  11.549  0.00  0.00    +0.000 N 
ATOM     13  C   UNL     1      44.577   7.133  11.346  0.00  0.00    +0.000 A 
ATOM     14  C   UNL     1      45.820   7.481  11.826  0.00  0.00    +0.000 A 
ATOM     15  C   UNL     1      46.366   6.345  12.479  0.00  0.00    +0.000 A 
ATOM     16  C   UNL     1      47.576   6.086  13.137  0.00  0.00    +0.000 A 
ATOM     17  N   UNL     1      47.786   4.904  13.763  0.00  0.00    +0.000 NA
ATOM     18  C   UNL     1      46.807   3.972  13.734  0.00  0.00    +0.000 A 
ATOM     19  C   UNL     1      45.607   4.104  13.049  0.00  0.00    +0.000 A 
ATOM     20  C   UNL     1      45.412   5.322  12.395  0.00  0.00    +0.000 A 
ENDBRANCH  11  12
ENDBRANCH   5  11
TORSDOF 4
ENDMDL
MODEL 6
REMARK VINA RESULT:    -6.327      1.897      2.543
REMARK INTER + INTRA:          -7.765
REMARK INTER:                  -7.558
REMARK INTRA:                  -0.207
REMARK UNBOUND:                -0.143
REMARK  Name = 
REMARK  4 active torsions:
REMARK  status: ('A' for Active; 'I' for Inactive)
REMARK    1  A    between atoms: N_1  and  C_2
REMARK    2  A    between atoms: C_2  and  C_3
REMARK    3  A    between atoms: C_7  and  C_8
REMARK    4  A    between atoms: C_8  and  N_9
REMARK                            x       y       z     vdW  Elec       q    Type
REMARK                         _______ _______ _______ _____ _____    ______ ____
ROOT
ATOM      1  C   UNL     1      47.602   6.493  12.772  0.00  0.00    +0.000 A 
ATOM      2  C   UNL     1      47.522   5.599  13.834  0.00  0.00    +0.000 A 
ATOM      3  C   UNL     1      46.450   4.718  13.890  0.00  0.00    +0.000 A 
ATOM      4  C   UNL     1      45.478   4.752  12.892  0.00  0.00    +0.000 A 
ATOM      5  C   UNL     1      45.622   5.674  11.856  0.00  0.00    +0.000 A 
ATOM      6  N   UNL     1      46.677   6.519  11.777  0.00  0.00    +0.000 NA
ENDROOT
BRANCH   1   7
ATOM      7  C   UNL     1      48.759   7.457  12.657  0.00  0.00    +0.000 C 
BRANCH   7   8
ATOM      8  N   UNL     1      49.911   7.044  13.462  0.00  0.00    +0.000 NA
ATOM      9  H   UNL     1      49.856   7.507  14.368  0.00  0.00    +0.000 HD
ATOM     10  H   UNL     1      50.748   7.415  13.010  0.00  0.00    +0.000 HD
ENDBRANCH   7   8
ENDBRANCH   1   7
BRANCH   5  11
ATOM     11  C   UNL     1      44.638   5.708  10.720  0.00  0.00    +0.000 C 
BRANCH  11  12
ATOM     12  N   UNL     1      44.414   4.416  10.067  0.00  0.00    +0.000 N 
ATOM     13  C   UNL     1      43.681   3.412  10.656  0.00  0.00    +0.000 A 
ATOM     14  C   UNL     1      44.188   2.211  10.210  0.00  0.00    +0.000 A 
ATOM     15  C   UNL     1      45.150   2.494   9.204  0.00  0.00    +0.000 A 
ATOM     16  C   UNL     1      45.990   1.703   8.408  0.00  0.00    +0.000 A 
ATOM     17  N   UNL     1      46.755   2.261   7.440  0.00  0.00    +0.000 NA
ATOM     18  C   UNL     1      46.699   3.600   7.260  0.00  0.00    +0.000 A 
ATOM     19  C   UNL     1      45.958   4.475   8.043  0.00  0.00    +0.000 A 
ATOM     20  C   UNL     1      45.187   3.886   9.048  0.00  0.00    +0.000 A 
ENDBRANCH  11  12
ENDBRANCH   5  11
TORSDOF 4
ENDMDL
MODEL 7
REMARK VINA RESULT:    -6.012      2.872      4.464
REMARK INTER + INTRA:          -7.385
REMARK INTER:                  -7.211
REMARK INTRA:                  -0.175
REMARK UNBOUND:                -0.143
REMARK  Name = 
REMARK  4 active torsions:
REMARK  status: ('A' for Active; 'I' for Inactive)
REMARK    1  A    between atoms: N_1  and  C_2
REMARK    2  A    between atoms: C_2  and  C_3
REMARK    3  A    between atoms: C_7  and  C_8
REMARK    4  A    between atoms: C_8  and  N_9
REMARK                            x       y       z     vdW  Elec       q    Type
REMARK                         _______ _______ _______ _____ _____    ______ ____
ROOT
ATOM      1  C   UNL     1      45.744   8.736  12.355  0.00  0.00    +0.000 A 
ATOM      2  C   UNL     1      47.086   8.993  12.101  0.00  0.00    +0.000 A 
ATOM      3  C   UNL     1      48.008   7.964  12.251  0.00  0.00    +0.000 A 
ATOM      4  C   UNL     1      47.571   6.705  12.657  0.00  0.00    +0.000 A 
ATOM      5  C   UNL     1      46.210   6.517  12.893  0.00  0.00    +0.000 A 
ATOM      6  N   UNL     1      45.301   7.506  12.724  0.00  0.00    +0.000 NA
ENDROOT
BRANCH   1   7
ATOM      7  C   UNL     1      44.703   9.817  12.186  0.00  0.00    +0.000 C 
BRANCH   7   8
ATOM      8  N   UNL     1      45.292  11.158  12.147  0.00  0.00    +0.000 NA
ATOM      9  H   UNL     1      44.991  11.619  11.289  0.00  0.00    +0.000 HD
ATOM     10  H   UNL     1      46.303  11.044  12.061  0.00  0.00    +0.000 HD
ENDBRANCH   7   8
ENDBRANCH   1   7
BRANCH   5  11
ATOM     11  C   UNL     1      45.679   5.162  13.269  0.00  0.00    +0.000 C 
BRANCH  11  12
ATOM     12  N   UNL     1      44.704   4.606  12.328  0.00  0.00    +0.000 N 
ATOM     13  C   UNL     1      43.673   3.790  12.734  0.00  0.00    +0.000 A 
ATOM     14  C   UNL     1      43.392   2.928  11.697  0.00  0.00    +0.000 A 
ATOM     15  C   UNL     1      44.165   3.332  10.576  0.00  0.00    +0.000 A 
ATOM     16  C   UNL     1      44.315   2.848   9.269  0.00  0.00    +0.000 A 
ATOM     17  N   UNL     1      45.073   3.513   8.366  0.00  0.00    +0.000 NA
ATOM     18  C   UNL     1      45.693   4.651   8.752  0.00  0.00    +0.000 A 
ATOM     19  C   UNL     1      45.667   5.170  10.040  0.00  0.00    +0.000 A 
ATOM     20  C   UNL     1      44.894   4.464  10.964  0.00  0.00    +0.000 A 
ENDBRANCH  11  12
ENDBRANCH   5  11
TORSDOF 4
ENDMDL
MODEL 8
REMARK VINA RESULT:    -5.541      4.217      7.061
REMARK INTER + INTRA:          -6.818
REMARK INTER:                  -6.505
REMARK INTRA:                  -0.314
REMARK UNBOUND:                -0.143
REMARK  Name = 
REMARK  4 active torsions:
REMARK  status: ('A' for Active; 'I' for Inactive)
REMARK    1  A    between atoms: N_1  and  C_2
REMARK    2  A    between atoms: C_2  and  C_3
REMARK    3  A    between atoms: C_7  and  C_8
REMARK    4  A    between atoms: C_8  and  N_9
REMARK                            x       y       z     vdW  Elec       q    Type
REMARK                         _______ _______ _______ _____ _____    ______ ____
ROOT
ATOM      1  C   UNL     1      49.064   4.026  17.356  0.00  0.00    +0.000 A 
ATOM      2  C   UNL     1      50.387   4.065  17.781  0.00  0.00    +0.000 A 
ATOM      3  C   UNL     1      51.186   5.132  17.389  0.00  0.00    +0.000 A 
ATOM      4  C   UNL     1      50.651   6.132  16.579  0.00  0.00    +0.000 A 
ATOM      5  C   UNL     1      49.315   6.029  16.192  0.00  0.00    +0.000 A 
ATOM      6  N   UNL     1      48.520   5.007  16.590  0.00  0.00    +0.000 NA
ENDROOT
BRANCH   1   7
ATOM      7  C   UNL     1      48.150   2.897  17.772  0.00  0.00    +0.000 C 
BRANCH   7   8
ATOM      8  N   UNL     1      46.738   3.204  17.531  0.00  0.00    +0.000 NA
ATOM      9  H   UNL     1      46.342   2.471  16.944  0.00  0.00    +0.000 HD
ATOM     10  H   UNL     1      46.703   4.058  16.973  0.00  0.00    +0.000 HD
ENDBRANCH   7   8
ENDBRANCH   1   7
BRANCH   5  11
ATOM     11  C   UNL     1      48.670   7.112  15.373  0.00  0.00    +0.000 C 
BRANCH  11  12
ATOM     12  N   UNL     1      48.553   6.809  13.945  0.00  0.00    +0.000 N 
ATOM     13  C   UNL     1      49.255   7.504  12.986  0.00  0.00    +0.000 A 
ATOM     14  C   UNL     1      48.495   7.507  11.837  0.00  0.00    +0.000 A 
ATOM     15  C   UNL     1      47.377   6.660  12.054  0.00  0.00    +0.000 A 
ATOM     16  C   UNL     1      46.273   6.282  11.276  0.00  0.00    +0.000 A 
ATOM     17  N   UNL     1      45.391   5.359  11.726  0.00  0.00    +0.000 NA
ATOM     18  C   UNL     1      45.591   4.811  12.947  0.00  0.00    +0.000 A 
ATOM     19  C   UNL     1      46.608   5.172  13.820  0.00  0.00    +0.000 A 
ATOM     20  C   UNL     1      47.500   6.137  13.349  0.00  0.00    +0.000 A 
ENDBRANCH  11  12
ENDBRANCH   5  11
TORSDOF 4
ENDMDL
MODEL 9
REMARK VINA RESULT:    -5.431      3.803      5.662
REMARK INTER + INTRA:          -6.686
REMARK INTER:                  -6.769
REMARK INTRA:                   0.084
REMARK UNBOUND:                -0.143
REMARK  Name = 
REMARK  4 active torsions:
REMARK  status: ('A' for Active; 'I' for Inactive)
REMARK    1  A    between atoms: N_1  and  C_2
REMARK    2  A    between atoms: C_2  and  C_3
REMARK    3  A    between atoms: C_7  and  C_8
REMARK    4  A    between atoms: C_8  and  N_9
REMARK                            x       y       z     vdW  Elec       q    Type
REMARK                         _______ _______ _______ _____ _____    ______ ____
ROOT
ATOM      1  C   UNL     1      48.221   5.160  16.803  0.00  0.00    +0.000 A 
ATOM      2  C   UNL     1      48.837   6.317  17.263  0.00  0.00    +0.000 A 
ATOM      3  C   UNL     1      49.069   7.356  16.370  0.00  0.00    +0.000 A 
ATOM      4  C   UNL     1      48.687   7.214  15.037  0.00  0.00    +0.000 A 
ATOM      5  C   UNL     1      48.071   6.026  14.645  0.00  0.00    +0.000 A 
ATOM      6  N   UNL     1      47.817   5.018  15.513  0.00  0.00    +0.000 NA
ENDROOT
BRANCH   1   7
ATOM      7  C   UNL     1      47.930   4.012  17.741  0.00  0.00    +0.000 C 
BRANCH   7   8
ATOM      8  N   UNL     1      46.683   3.320  17.406  0.00  0.00    +0.000 NA
ATOM      9  H   UNL     1      46.716   2.381  17.802  0.00  0.00    +0.000 HD
ATOM     10  H   UNL     1      46.667   3.194  16.393  0.00  0.00    +0.000 HD
ENDBRANCH   7   8
ENDBRANCH   1   7
BRANCH   5  11
ATOM     11  C   UNL     1      47.581   5.847  13.235  0.00  0.00    +0.000 C 
BRANCH  11  12
ATOM     12  N   UNL     1      46.404   4.986  13.103  0.00  0.00    +0.000 N 
ATOM     13  C   UNL     1      46.471   3.620  13.262  0.00  0.00    +0.000 A 
ATOM     14  C   UNL     1      45.502   3.061  12.459  0.00  0.00    +0.000 A 
ATOM     15  C   UNL     1      44.722   4.118  11.919  0.00  0.00    +0.000 A 
ATOM     16  C   UNL     1      43.628   4.175  11.045  0.00  0.00    +0.000 A 
ATOM     17  N   UNL     1      43.017   5.353  10.775  0.00  0.00    +0.000 NA
ATOM     18  C   UNL     1      43.488   6.477  11.361  0.00  0.00    +0.000 A 
ATOM     19  C   UNL     1      44.607   6.535  12.180  0.00  0.00    +0.000 A 
ATOM     20  C   UNL     1      45.237   5.315  12.435  0.00  0.00    +0.000 A 
ENDBRANCH  11  12
ENDBRANCH   5  11
TORSDOF 4
ENDMDL
