MODEL 1
REMARK VINA RESULT:    -8.105      0.000      0.000
REMARK INTER + INTRA:         -10.279
REMARK INTER:                  -9.763
REMARK INTRA:                  -0.516
REMARK UNBOUND:                -0.516
REMARK  Name = 
REMARK  4 active torsions:
REMARK  status: ('A' for Active; 'I' for Inactive)
REMARK    1  A    between atoms: N_1  and  C_2
REMARK    2  A    between atoms: C_2  and  C_3
REMARK    3  A    between atoms: C_6  and  C_7
REMARK    4  A    between atoms: C_7  and  N_8
REMARK                            x       y       z     vdW  Elec       q    Type
REMARK                         _______ _______ _______ _____ _____    ______ ____
ROOT
ATOM      1  C   UNL     1      46.852   2.184   7.400  0.00  0.00    +0.000 A 
ATOM      2  C   UNL     1      46.673   3.567   7.256  0.00  0.00    +0.000 A 
ATOM      3  C   UNL     1      45.704   4.245   8.000  0.00  0.00    +0.000 A 
ATOM      4  C   UNL     1      44.891   3.554   8.909  0.00  0.00    +0.000 A 
ATOM      5  C   UNL     1      45.057   2.167   9.039  0.00  0.00    +0.000 A 
ATOM      6  C   UNL     1      46.028   1.491   8.295  0.00  0.00    +0.000 A 
ENDROOT
BRANCH   1   7
ATOM      7  C   UNL     1      47.905   1.461   6.600  0.00  0.00    +0.000 C 
BRANCH   7   8
ATOM      8  N   UNL     1      48.388   2.277   5.491  0.00  0.00    +0.000 NA
ATOM      9  H   UNL     1      48.003   3.215   5.575  0.00  0.00    +0.000 HD
ATOM     10  H   UNL     1      48.023   1.893   4.620  0.00  0.00    +0.000 HD
ENDBRANCH   7   8
ENDBRANCH   1   7
BRANCH   4  11
ATOM     11  C   UNL     1      43.873   4.286   9.743  0.00  0.00    +0.000 C 
BRANCH  11  12
ATOM     12  N   UNL     1      44.238   4.339  11.146  0.00  0.00    +0.000 N 
ATOM     13  C   UNL     1      43.703   3.545  12.126  0.00  0.00    +0.000 A 
ATOM     14  N   UNL     1      44.306   3.717  13.281  0.00  0.00    +0.000 NA
ATOM     15  C   UNL     1      45.274   4.651  13.036  0.00  0.00    +0.000 A 
ATOM     16  N   UNL     1      46.158   5.109  13.949  0.00  0.00    +0.000 NA
ATOM     17  C   UNL     1      47.036   6.014  13.471  0.00  0.00    +0.000 A 
ATOM     18  C   UNL     1      47.086   6.482  12.163  0.00  0.00    +0.000 A 
ATOM     19  C   UNL     1      46.172   6.003  11.226  0.00  0.00    +0.000 A 
ATOM     20  C   UNL     1      45.261   5.064  11.705  0.00  0.00    +0.000 A 
ENDBRANCH  11  12
ENDBRANCH   4  11
TORSDOF 4
ENDMDL
MODEL 2
REMARK VINA RESULT:    -7.522      1.142      1.977
REMARK INTER + INTRA:          -9.577
REMARK INTER:                  -9.086
REMARK INTRA:                  -0.491
REMARK UNBOUND:                -0.516
REMARK  Name = 
REMARK  4 active torsions:
REMARK  status: ('A' for Active; 'I' for Inactive)
REMARK    1  A    between atoms: N_1  and  C_2
REMARK    2  A    between atoms: C_2  and  C_3
REMARK    3  A    between atoms: C_6  and  C_7
REMARK    4  A    between atoms: C_7  and  N_8
REMARK                            x       y       z     vdW  Elec       q    Type
REMARK                         _______ _______ _______ _____ _____    ______ ____
ROOT
ATOM      1  C   UNL     1      46.571   2.305   7.446  0.00  0.00    +0.000 A 
ATOM      2  C   UNL     1      45.856   1.527   8.367  0.00  0.00    +0.000 A 
ATOM      3  C   UNL     1      44.985   2.123   9.283  0.00  0.00    +0.000 A 
ATOM      4  C   UNL     1      44.808   3.513   9.298  0.00  0.00    +0.000 A 
ATOM      5  C   UNL     1      45.538   4.293   8.389  0.00  0.00    +0.000 A 
ATOM      6  C   UNL     1      46.408   3.695   7.473  0.00  0.00    +0.000 A 
ENDROOT
BRANCH   1   7
ATOM      7  C   UNL     1      47.502   1.654   6.455  0.00  0.00    +0.000 C 
BRANCH   7   8
ATOM      8  N   UNL     1      48.675   2.483   6.200  0.00  0.00    +0.000 NA
ATOM      9  H   UNL     1      48.878   3.037   7.030  0.00  0.00    +0.000 HD
ATOM     10  H   UNL     1      48.451   3.147   5.459  0.00  0.00    +0.000 HD
ENDBRANCH   7   8
ENDBRANCH   1   7
BRANCH   4  11
ATOM     11  C   UNL     1      43.840   4.156  10.256  0.00  0.00    +0.000 C 
BRANCH  11  12
ATOM     12  N   UNL     1      44.503   5.011  11.223  0.00  0.00    +0.000 N 
ATOM     13  C   UNL     1      44.251   6.347  11.392  0.00  0.00    +0.000 A 
ATOM     14  N   UNL     1      44.901   6.844  12.420  0.00  0.00    +0.000 NA
ATOM     15  C   UNL     1      45.594   5.787  12.941  0.00  0.00    +0.000 A 
ATOM     16  N   UNL     1      46.382   5.842  14.037  0.00  0.00    +0.000 NA
ATOM     17  C   UNL     1      46.946   4.665  14.377  0.00  0.00    +0.000 A 
ATOM     18  C   UNL     1      46.778   3.460  13.705  0.00  0.00    +0.000 A 
ATOM     19  C   UNL     1      45.961   3.411  12.577  0.00  0.00    +0.000 A 
ATOM     20  C   UNL     1      45.367   4.620  12.216  0.00  0.00    +0.000 A 
ENDBRANCH  11  12
ENDBRANCH   4  11
TORSDOF 4
ENDMDL
MODEL 3
REMARK VINA RESULT:    -7.202      1.506      1.727
REMARK INTER + INTRA:          -9.192
REMARK INTER:                  -8.827
REMARK INTRA:                  -0.366
REMARK UNBOUND:                -0.516
REMARK  Name = 
REMARK  4 active torsions:
REMARK  status: ('A' for Active; 'I' for Inactive)
REMARK    1  A    between atoms: N_1  and  C_2
REMARK    2  A    between atoms: C_2  and  C_3
REMARK    3  A    between atoms: C_6  and  C_7
REMARK    4  A    between atoms: C_7  and  N_8
REMARK                            x       y       z     vdW  Elec       q    Type
REMARK                         _______ _______ _______ _____ _____    ______ ____
ROOT
ATOM      1  C   UNL     1      46.331   2.215   7.751  0.00  0.00    +0.000 A 
ATOM      2  C   UNL     1      46.377   3.611   7.630  0.00  0.00    +0.000 A 
ATOM      3  C   UNL     1      45.588   4.427   8.444  0.00  0.00    +0.000 A 
ATOM      4  C   UNL     1      44.735   3.865   9.403  0.00  0.00    +0.000 A 
ATOM      5  C   UNL     1      44.673   2.468   9.512  0.00  0.00    +0.000 A 
ATOM      6  C   UNL     1      45.464   1.653   8.697  0.00  0.00    +0.000 A 
ENDROOT
BRANCH   1   7
ATOM      7  C   UNL     1      47.190   1.341   6.875  0.00  0.00    +0.000 C 
BRANCH   7   8
ATOM      8  N   UNL     1      48.427   2.016   6.495  0.00  0.00    +0.000 NA
ATOM      9  H   UNL     1      48.283   2.505   5.614  0.00  0.00    +0.000 HD
ATOM     10  H   UNL     1      49.143   1.311   6.320  0.00  0.00    +0.000 HD
ENDBRANCH   7   8
ENDBRANCH   1   7
BRANCH   4  11
ATOM     11  C   UNL     1      43.913   4.742  10.311  0.00  0.00    +0.000 C 
BRANCH  11  12
ATOM     12  N   UNL     1      44.682   5.264  11.426  0.00  0.00    +0.000 N 
ATOM     13  C   UNL     1      45.412   4.502  12.300  0.00  0.00    +0.000 A 
ATOM     14  N   UNL     1      46.110   5.241  13.132  0.00  0.00    +0.000 NA
ATOM     15  C   UNL     1      45.827   6.531  12.776  0.00  0.00    +0.000 A 
ATOM     16  N   UNL     1      46.358   7.629  13.358  0.00  0.00    +0.000 NA
ATOM     17  C   UNL     1      45.947   8.797  12.823  0.00  0.00    +0.000 A 
ATOM     18  C   UNL     1      45.057   8.936  11.764  0.00  0.00    +0.000 A 
ATOM     19  C   UNL     1      44.517   7.798  11.168  0.00  0.00    +0.000 A 
ATOM     20  C   UNL     1      44.935   6.583  11.708  0.00  0.00    +0.000 A 
ENDBRANCH  11  12
ENDBRANCH   4  11
TORSDOF 4
ENDMDL
MODEL 4
REMARK VINA RESULT:    -6.328      2.030      5.592
REMARK INTER + INTRA:          -8.138
REMARK INTER:                  -7.671
REMARK INTRA:                  -0.467
REMARK UNBOUND:                -0.516
REMARK  Name = 
REMARK  4 active torsions:
REMARK  status: ('A' for Active; 'I' for Inactive)
REMARK    1  A    between atoms: N_1  and  C_2
REMARK    2  A    between atoms: C_2  and  C_3
REMARK    3  A    between atoms: C_6  and  C_7
REMARK    4  A    between atoms: C_7  and  N_8
REMARK                            x       y       z     vdW  Elec       q    Type
REMARK                         _______ _______ _______ _____ _____    ______ ____
ROOT
ATOM      1  C   UNL     1      48.267   7.198  12.986  0.00  0.00    +0.000 A 
ATOM      2  C   UNL     1      47.462   7.980  12.146  0.00  0.00    +0.000 A 
ATOM      3  C   UNL     1      46.161   7.584  11.829  0.00  0.00    +0.000 A 
ATOM      4  C   UNL     1      45.631   6.396  12.349  0.00  0.00    +0.000 A 
ATOM      5  C   UNL     1      46.441   5.603  13.174  0.00  0.00    +0.000 A 
ATOM      6  C   UNL     1      47.744   6.001  13.490  0.00  0.00    +0.000 A 
ENDROOT
BRANCH   1   7
ATOM      7  C   UNL     1      49.667   7.635  13.330  0.00  0.00    +0.000 C 
BRANCH   7   8
ATOM      8  N   UNL     1      50.132   7.018  14.568  0.00  0.00    +0.000 NA
ATOM      9  H   UNL     1      50.109   7.711  15.314  0.00  0.00    +0.000 HD
ATOM     10  H   UNL     1      51.109   6.751  14.453  0.00  0.00    +0.000 HD
ENDBRANCH   7   8
ENDBRANCH   1   7
BRANCH   4  11
ATOM     11  C   UNL     1      44.214   5.985  12.043  0.00  0.00    +0.000 C 
BRANCH  11  12
ATOM     12  N   UNL     1      44.135   4.663  11.451  0.00  0.00    +0.000 N 
ATOM     13  C   UNL     1      43.379   3.629  11.938  0.00  0.00    +0.000 A 
ATOM     14  N   UNL     1      43.395   2.588  11.136  0.00  0.00    +0.000 NA
ATOM     15  C   UNL     1      44.186   2.967  10.087  0.00  0.00    +0.000 A 
ATOM     16  N   UNL     1      44.455   2.203   9.005  0.00  0.00    +0.000 NA
ATOM     17  C   UNL     1      45.242   2.797   8.086  0.00  0.00    +0.000 A 
ATOM     18  C   UNL     1      45.768   4.081   8.175  0.00  0.00    +0.000 A 
ATOM     19  C   UNL     1      45.483   4.863   9.292  0.00  0.00    +0.000 A 
ATOM     20  C   UNL     1      44.667   4.264  10.250  0.00  0.00    +0.000 A 
ENDBRANCH  11  12
ENDBRANCH   4  11
TORSDOF 4
ENDMDL
MODEL 5
REMARK VINA RESULT:    -5.896      1.698      5.929
REMARK INTER + INTRA:          -7.619
REMARK INTER:                  -7.128
REMARK INTRA:                  -0.491
REMARK UNBOUND:                -0.516
REMARK  Name = 
REMARK  4 active torsions:
REMARK  status: ('A' for Active; 'I' for Inactive)
REMARK    1  A    between atoms: N_1  and  C_2
REMARK    2  A    between atoms: C_2  and  C_3
REMARK    3  A    between atoms: C_6  and  C_7
REMARK    4  A    between atoms: C_7  and  N_8
REMARK                            x       y       z     vdW  Elec       q    Type
REMARK                         _______ _______ _______ _____ _____    ______ ____
ROOT
ATOM      1  C   UNL     1      46.685   6.086  12.938  0.00  0.00    +0.000 A 
ATOM      2  C   UNL     1      46.005   4.875  13.122  0.00  0.00    +0.000 A 
ATOM      3  C   UNL     1      45.232   4.325  12.097  0.00  0.00    +0.000 A 
ATOM      4  C   UNL     1      45.123   4.973  10.860  0.00  0.00    +0.000 A 
ATOM      5  C   UNL     1      45.787   6.195  10.681  0.00  0.00    +0.000 A 
ATOM      6  C   UNL     1      46.561   6.744  11.708  0.00  0.00    +0.000 A 
ENDROOT
BRANCH   1   7
ATOM      7  C   UNL     1      47.524   6.670  14.046  0.00  0.00    +0.000 C 
BRANCH   7   8
ATOM      8  N   UNL     1      47.770   8.093  13.838  0.00  0.00    +0.000 NA
ATOM      9  H   UNL     1      47.215   8.414  13.047  0.00  0.00    +0.000 HD
ATOM     10  H   UNL     1      48.746   8.221  13.575  0.00  0.00    +0.000 HD
ENDBRANCH   7   8
ENDBRANCH   1   7
BRANCH   4  11
ATOM     11  C   UNL     1      44.323   4.364   9.738  0.00  0.00    +0.000 C 
BRANCH  11  12
ATOM     12  N   UNL     1      44.939   3.162   9.206  0.00  0.00    +0.000 N 
ATOM     13  C   UNL     1      44.536   1.884   9.488  0.00  0.00    +0.000 A 
ATOM     14  N   UNL     1      45.187   0.994   8.773  0.00  0.00    +0.000 NA
ATOM     15  C   UNL     1      46.038   1.727   7.993  0.00  0.00    +0.000 A 
ATOM     16  N   UNL     1      46.886   1.211   7.076  0.00  0.00    +0.000 NA
ATOM     17  C   UNL     1      47.612   2.131   6.409  0.00  0.00    +0.000 A 
ATOM     18  C   UNL     1      47.549   3.506   6.597  0.00  0.00    +0.000 A 
ATOM     19  C   UNL     1      46.670   4.031   7.543  0.00  0.00    +0.000 A 
ATOM     20  C   UNL     1      45.909   3.092   8.238  0.00  0.00    +0.000 A 
ENDBRANCH  11  12
ENDBRANCH   4  11
TORSDOF 4
ENDMDL
MODEL 6
REMARK VINA RESULT:    -5.399      2.421      4.009
REMARK INTER + INTRA:          -7.020
REMARK INTER:                  -6.572
REMARK INTRA:                  -0.448
REMARK UNBOUND:                -0.516
REMARK  Name = 
REMARK  4 active torsions:
REMARK  status: ('A' for Active; 'I' for Inactive)
REMARK    1  A    between atoms: N_1  and  C_2
REMARK    2  A    between atoms: C_2  and  C_3
REMARK    3  A    between atoms: C_6  and  C_7
REMARK    4  A    between atoms: C_7  and  N_8
REMARK                            x       y       z     vdW  Elec       q    Type
REMARK                         _______ _______ _______ _____ _____    ______ ____
ROOT
ATOM      1  C   UNL     1      44.773   3.279  10.042  0.00  0.00    +0.000 A 
ATOM      2  C   UNL     1      45.251   4.519   9.596  0.00  0.00    +0.000 A 
ATOM      3  C   UNL     1      45.414   5.584  10.486  0.00  0.00    +0.000 A 
ATOM      4  C   UNL     1      45.107   5.433  11.844  0.00  0.00    +0.000 A 
ATOM      5  C   UNL     1      44.610   4.198  12.287  0.00  0.00    +0.000 A 
ATOM      6  C   UNL     1      44.447   3.133  11.396  0.00  0.00    +0.000 A 
ENDROOT
BRANCH   1   7
ATOM      7  C   UNL     1      44.606   2.132   9.079  0.00  0.00    +0.000 C 
BRANCH   7   8
ATOM      8  N   UNL     1      45.885   1.722   8.508  0.00  0.00    +0.000 NA
ATOM      9  H   UNL     1      46.078   2.288   7.684  0.00  0.00    +0.000 HD
ATOM     10  H   UNL     1      45.804   0.759   8.183  0.00  0.00    +0.000 HD
ENDBRANCH   7   8
ENDBRANCH   1   7
BRANCH   4  11
ATOM     11  C   UNL     1      45.320   6.565  12.814  0.00  0.00    +0.000 C 
BRANCH  11  12
ATOM     12  N   UNL     1      46.723   6.785  13.111  0.00  0.00    +0.000 N 
ATOM     13  C   UNL     1      47.547   5.877  13.723  0.00  0.00    +0.000 A 
ATOM     14  N   UNL     1      48.794   6.288  13.753  0.00  0.00    +0.000 NA
ATOM     15  C   UNL     1      48.778   7.504  13.128  0.00  0.00    +0.000 A 
ATOM     16  N   UNL     1      49.865   8.276  12.909  0.00  0.00    +0.000 NA
ATOM     17  C   UNL     1      49.608   9.426  12.252  0.00  0.00    +0.000 A 
ATOM     18  C   UNL     1      48.359   9.846  11.809  0.00  0.00    +0.000 A 
ATOM     19  C   UNL     1      47.244   9.041  12.036  0.00  0.00    +0.000 A 
ATOM     20  C   UNL     1      47.494   7.847  12.711  0.00  0.00    +0.000 A 
ENDBRANCH  11  12
ENDBRANCH   4  11
TORSDOF 4
ENDMDL
MODEL 7
REMARK VINA RESULT:    -5.310      3.315      5.305
REMARK INTER + INTRA:          -6.913
REMARK INTER:                  -6.511
REMARK INTRA:                  -0.402
REMARK UNBOUND:                -0.516
REMARK  Name = 
REMARK  4 active torsions:
REMARK  status: ('A' for Active; 'I' for Inactive)
REMARK    1  A    between atoms: N_1  and  C_2
REMARK    2  A    between atoms: C_2  and  C_3
REMARK    3  A    between atoms: C_6  and  C_7
REMARK    4  A    between atoms: C_7  and  N_8
REMARK                            x       y       z     vdW  Elec       q    Type
REMARK                         _______ _______ _______ _____ _____    ______ ____
ROOT
ATOM      1  C   UNL     1      44.435   4.110  11.265  0.00  0.00    +0.000 A 
ATOM      2  C   UNL     1      45.197   4.978  10.470  0.00  0.00    +0.000 A 
ATOM      3  C   UNL     1      45.686   6.179  10.987  0.00  0.00    +0.000 A 
ATOM      4  C   UNL     1      45.427   6.541  12.316  0.00  0.00    +0.000 A 
ATOM      5  C   UNL     1      44.648   5.684  13.107  0.00  0.00    +0.000 A 
ATOM      6  C   UNL     1      44.160   4.481  12.587  0.00  0.00    +0.000 A 
ENDROOT
BRANCH   1   7
ATOM      7  C   UNL     1      43.917   2.811  10.703  0.00  0.00    +0.000 C 
BRANCH   7   8
ATOM      8  N   UNL     1      43.024   2.140  11.641  0.00  0.00    +0.000 NA
ATOM      9  H   UNL     1      43.225   1.142  11.636  0.00  0.00    +0.000 HD
ATOM     10  H   UNL     1      42.066   2.243  11.309  0.00  0.00    +0.000 HD
ENDBRANCH   7   8
ENDBRANCH   1   7
BRANCH   4  11
ATOM     11  C   UNL     1      45.986   7.817  12.890  0.00  0.00    +0.000 C 
BRANCH  11  12
ATOM     12  N   UNL     1      47.414   7.735  13.137  0.00  0.00    +0.000 N 
ATOM     13  C   UNL     1      48.028   6.755  13.871  0.00  0.00    +0.000 A 
ATOM     14  N   UNL     1      49.338   6.855  13.825  0.00  0.00    +0.000 NA
ATOM     15  C   UNL     1      49.579   7.937  13.025  0.00  0.00    +0.000 A 
ATOM     16  N   UNL     1      50.805   8.388  12.681  0.00  0.00    +0.000 NA
ATOM     17  C   UNL     1      50.795   9.459  11.862  0.00  0.00    +0.000 A 
ATOM     18  C   UNL     1      49.661  10.097  11.373  0.00  0.00    +0.000 A 
ATOM     19  C   UNL     1      48.400   9.624  11.730  0.00  0.00    +0.000 A 
ATOM     20  C   UNL     1      48.394   8.514  12.574  0.00  0.00    +0.000 A 
ENDBRANCH  11  12
ENDBRANCH   4  11
TORSDOF 4
ENDMDL
MODEL 8
REMARK VINA RESULT:    -5.123      3.692      7.171
REMARK INTER + INTRA:          -6.688
REMARK INTER:                  -6.394
REMARK INTRA:                  -0.294
REMARK UNBOUND:                -0.516
REMARK  Name = 
REMARK  4 active torsions:
REMARK  status: ('A' for Active; 'I' for Inactive)
REMARK    1  A    between atoms: N_1  and  C_2
REMARK    2  A    between atoms: C_2  and  C_3
REMARK    3  A    between atoms: C_6  and  C_7
REMARK    4  A    between atoms: C_7  and  N_8
REMARK                            x       y       z     vdW  Elec       q    Type
REMARK                         _______ _______ _______ _____ _____    ______ ____
ROOT
ATOM      1  C   UNL     1      48.041   5.043  17.302  0.00  0.00    +0.000 A 
ATOM      2  C   UNL     1      48.677   6.146  16.715  0.00  0.00    +0.000 A 
ATOM      3  C   UNL     1      48.556   6.397  15.347  0.00  0.00    +0.000 A 
ATOM      4  C   UNL     1      47.791   5.552  14.532  0.00  0.00    +0.000 A 
ATOM      5  C   UNL     1      47.170   4.438  15.114  0.00  0.00    +0.000 A 
ATOM      6  C   UNL     1      47.293   4.187  16.484  0.00  0.00    +0.000 A 
ENDROOT
BRANCH   1   7
ATOM      7  C   UNL     1      48.170   4.781  18.781  0.00  0.00    +0.000 C 
BRANCH   7   8
ATOM      8  N   UNL     1      48.414   3.369  19.055  0.00  0.00    +0.000 NA
ATOM      9  H   UNL     1      47.598   2.830  18.773  0.00  0.00    +0.000 HD
ATOM     10  H   UNL     1      48.507   3.244  20.063  0.00  0.00    +0.000 HD
ENDBRANCH   7   8
ENDBRANCH   1   7
BRANCH   4  11
ATOM     11  C   UNL     1      47.624   5.842  13.063  0.00  0.00    +0.000 C 
BRANCH  11  12
ATOM     12  N   UNL     1      46.239   6.079  12.698  0.00  0.00    +0.000 N 
ATOM     13  C   UNL     1      45.671   7.315  12.534  0.00  0.00    +0.000 A 
ATOM     14  N   UNL     1      44.441   7.234  12.081  0.00  0.00    +0.000 NA
ATOM     15  C   UNL     1      44.207   5.895  11.937  0.00  0.00    +0.000 A 
ATOM     16  N   UNL     1      43.063   5.354  11.465  0.00  0.00    +0.000 NA
ATOM     17  C   UNL     1      43.071   4.008  11.391  0.00  0.00    +0.000 A 
ATOM     18  C   UNL     1      44.129   3.182  11.753  0.00  0.00    +0.000 A 
ATOM     19  C   UNL     1      45.307   3.747  12.237  0.00  0.00    +0.000 A 
ATOM     20  C   UNL     1      45.315   5.139  12.315  0.00  0.00    +0.000 A 
ENDBRANCH  11  12
ENDBRANCH   4  11
TORSDOF 4
ENDMDL
