MODEL 1
REMARK VINA RESULT:    -8.323      0.000      0.000
REMARK INTER + INTRA:         -12.752
REMARK INTER:                 -11.729
REMARK INTRA:                  -1.023
REMARK UNBOUND:                -1.023
REMARK  Name = 
REMARK  9 active torsions:
REMARK  status: ('A' for Active; 'I' for Inactive)
REMARK    1  A    between atoms: C_1  and  C_2
REMARK    2  A    between atoms: C_2  and  N_3
REMARK    3  A    between atoms: C_2  and  C_16
REMARK    4  A    between atoms: C_4  and  C_6
REMARK    5  A    between atoms: C_19  and  C_20
REMARK    6  A    between atoms: C_20  and  N_21
REMARK    7  A    between atoms: N_21  and  C_22
REMARK    8  A    between atoms: C_22  and  C_23
REMARK    9  A    between atoms: C_22  and  C_24
REMARK                            x       y       z     vdW  Elec       q    Type
REMARK                         _______ _______ _______ _____ _____    ______ ____
ROOT
ATOM      1  C   UNL     1      49.191   7.936  14.371  0.00  0.00    +0.000 C 
ATOM      2  C   UNL     1      48.577   6.815  15.222  0.00  0.00    +0.000 C 
ENDROOT
BRANCH   2   3
ATOM      3  C   UNL     1      47.618   5.947  14.457  0.00  0.00    +0.000 A 
ATOM      4  C   UNL     1      47.199   4.708  14.901  0.00  0.00    +0.000 A 
ATOM      5  N   UNL     1      46.339   3.921  14.227  0.00  0.00    +0.000 NA
ATOM      6  C   UNL     1      45.894   4.399  13.046  0.00  0.00    +0.000 A 
ATOM      7  N   UNL     1      46.246   5.576  12.511  0.00  0.00    +0.000 NA
ATOM      8  C   UNL     1      47.109   6.319  13.230  0.00  0.00    +0.000 A 
BRANCH   6   9
ATOM      9  C   UNL     1      44.858   3.573  12.313  0.00  0.00    +0.000 C 
BRANCH   9  10
ATOM     10  N   UNL     1      45.374   2.771  11.186  0.00  0.00    +0.000 NA
ATOM     11  H   UNL     1      45.306   1.786  11.461  0.00  0.00    +0.000 HD
BRANCH  10  12
ATOM     12  C   UNL     1      44.569   2.927   9.955  0.00  0.00    +0.000 C 
ATOM     13  C   UNL     1      43.930   4.322   9.883  0.00  0.00    +0.000 C 
BRANCH  12  14
ATOM     14  C   UNL     1      45.434   2.632   8.728  0.00  0.00    +0.000 A 
ATOM     15  C   UNL     1      45.724   3.625   7.791  0.00  0.00    +0.000 A 
ATOM     16  C   UNL     1      46.534   3.318   6.701  0.00  0.00    +0.000 A 
ATOM     17  C   UNL     1      47.059   2.039   6.583  0.00  0.00    +0.000 A 
ATOM     18  C   UNL     1      46.754   1.117   7.570  0.00  0.00    +0.000 A 
ATOM     19  N   UNL     1      45.955   1.379   8.628  0.00  0.00    +0.000 NA
ENDBRANCH  12  14
ENDBRANCH  10  12
ENDBRANCH   9  10
ENDBRANCH   6   9
ENDBRANCH   2   3
BRANCH   2  20
ATOM     20  N   UNL     1      49.624   5.993  15.801  0.00  0.00    +0.000 N 
ATOM     21  C   UNL     1      49.862   5.967  17.151  0.00  0.00    +0.000 C 
ATOM     22  O   UNL     1      49.187   6.613  17.950  0.00  0.00    +0.000 OA
ATOM     23  H   UNL     1      50.327   5.616  15.174  0.00  0.00    +0.000 HD
BRANCH  21  24
ATOM     24  C   UNL     1      50.924   5.069  17.603  0.00  0.00    +0.000 A 
ATOM     25  C   UNL     1      52.087   5.590  18.150  0.00  0.00    +0.000 A 
ATOM     26  S   UNL     1      53.222   4.397  18.596  0.00  0.00    +0.000 S 
ATOM     27  C   UNL     1      52.208   3.148  18.043  0.00  0.00    +0.000 A 
ATOM     28  N   UNL     1      52.605   1.849  18.090  0.00  0.00    +0.000 NA
ATOM     29  C   UNL     1      51.752   1.013  17.597  0.00  0.00    +0.000 A 
ATOM     30  N   UNL     1      50.526   1.355  17.079  0.00  0.00    +0.000 N 
ATOM     31  C   UNL     1      50.052   2.648  17.069  0.00  0.00    +0.000 A 
ATOM     32  O   UNL     1      48.916   2.909  16.698  0.00  0.00    +0.000 OA
ATOM     33  C   UNL     1      50.999   3.629  17.561  0.00  0.00    +0.000 A 
ATOM     34  H   UNL     1      49.898   0.646  16.738  0.00  0.00    +0.000 HD
ENDBRANCH  21  24
ENDBRANCH   2  20
TORSDOF 7
ENDMDL
MODEL 2
REMARK VINA RESULT:    -7.935      1.991      2.318
REMARK INTER + INTRA:         -12.206
REMARK INTER:                 -11.141
REMARK INTRA:                  -1.064
REMARK UNBOUND:                -1.023
REMARK  Name = 
REMARK  9 active torsions:
REMARK  status: ('A' for Active; 'I' for Inactive)
REMARK    1  A    between atoms: C_1  and  C_2
REMARK    2  A    between atoms: C_2  and  N_3
REMARK    3  A    between atoms: C_2  and  C_16
REMARK    4  A    between atoms: C_4  and  C_6
REMARK    5  A    between atoms: C_19  and  C_20
REMARK    6  A    between atoms: C_20  and  N_21
REMARK    7  A    between atoms: N_21  and  C_22
REMARK    8  A    between atoms: C_22  and  C_23
REMARK    9  A    between atoms: C_22  and  C_24
REMARK                            x       y       z     vdW  Elec       q    Type
REMARK                         _______ _______ _______ _____ _____    ______ ____
ROOT
ATOM      1  C   UNL     1      49.430   7.378  13.569  0.00  0.00    +0.000 C 
ATOM      2  C   UNL     1      48.165   7.089  14.390  0.00  0.00    +0.000 C 
ENDROOT
BRANCH   2   3
ATOM      3  C   UNL     1      47.217   6.144  13.708  0.00  0.00    +0.000 A 
ATOM      4  C   UNL     1      46.912   4.890  14.201  0.00  0.00    +0.000 A 
ATOM      5  N   UNL     1      46.064   4.034  13.601  0.00  0.00    +0.000 NA
ATOM      6  C   UNL     1      45.510   4.456  12.445  0.00  0.00    +0.000 A 
ATOM      7  N   UNL     1      45.746   5.642  11.867  0.00  0.00    +0.000 NA
ATOM      8  C   UNL     1      46.603   6.455  12.513  0.00  0.00    +0.000 A 
BRANCH   6   9
ATOM      9  C   UNL     1      44.485   3.548  11.799  0.00  0.00    +0.000 C 
BRANCH   9  10
ATOM     10  N   UNL     1      45.024   2.588  10.815  0.00  0.00    +0.000 NA
ATOM     11  H   UNL     1      44.716   1.654  11.106  0.00  0.00    +0.000 HD
BRANCH  10  12
ATOM     12  C   UNL     1      44.496   2.807   9.451  0.00  0.00    +0.000 C 
ATOM     13  C   UNL     1      44.006   4.251   9.270  0.00  0.00    +0.000 C 
BRANCH  12  14
ATOM     14  C   UNL     1      45.559   2.432   8.416  0.00  0.00    +0.000 A 
ATOM     15  C   UNL     1      46.093   3.385   7.549  0.00  0.00    +0.000 A 
ATOM     16  C   UNL     1      47.075   3.005   6.638  0.00  0.00    +0.000 A 
ATOM     17  C   UNL     1      47.522   1.691   6.631  0.00  0.00    +0.000 A 
ATOM     18  C   UNL     1      46.969   0.810   7.543  0.00  0.00    +0.000 A 
ATOM     19  N   UNL     1      46.001   1.145   8.425  0.00  0.00    +0.000 NA
ENDBRANCH  12  14
ENDBRANCH  10  12
ENDBRANCH   9  10
ENDBRANCH   6   9
ENDBRANCH   2   3
BRANCH   2  20
ATOM     20  N   UNL     1      48.522   6.567  15.696  0.00  0.00    +0.000 N 
ATOM     21  C   UNL     1      48.683   7.383  16.785  0.00  0.00    +0.000 C 
ATOM     22  O   UNL     1      48.507   8.599  16.727  0.00  0.00    +0.000 OA
ATOM     23  H   UNL     1      48.876   5.617  15.741  0.00  0.00    +0.000 HD
BRANCH  21  24
ATOM     24  C   UNL     1      49.009   6.720  18.047  0.00  0.00    +0.000 A 
ATOM     25  C   UNL     1      48.145   6.821  19.128  0.00  0.00    +0.000 A 
ATOM     26  S   UNL     1      48.699   6.006  20.519  0.00  0.00    +0.000 S 
ATOM     27  C   UNL     1      50.126   5.519  19.732  0.00  0.00    +0.000 A 
ATOM     28  N   UNL     1      51.083   4.810  20.388  0.00  0.00    +0.000 NA
ATOM     29  C   UNL     1      52.130   4.547  19.679  0.00  0.00    +0.000 A 
ATOM     30  N   UNL     1      52.301   4.908  18.365  0.00  0.00    +0.000 N 
ATOM     31  C   UNL     1      51.335   5.568  17.639  0.00  0.00    +0.000 A 
ATOM     32  O   UNL     1      51.472   5.785  16.443  0.00  0.00    +0.000 OA
ATOM     33  C   UNL     1      50.164   5.936  18.409  0.00  0.00    +0.000 A 
ATOM     34  H   UNL     1      53.133   4.642  17.864  0.00  0.00    +0.000 HD
ENDBRANCH  21  24
ENDBRANCH   2  20
TORSDOF 7
ENDMDL
MODEL 3
REMARK VINA RESULT:    -7.769      1.141      1.751
REMARK INTER + INTRA:         -11.972
REMARK INTER:                 -11.365
REMARK INTRA:                  -0.607
REMARK UNBOUND:                -1.023
REMARK  Name = 
REMARK  9 active torsions:
REMARK  status: ('A' for Active; 'I' for Inactive)
REMARK    1  A    between atoms: C_1  and  C_2
REMARK    2  A    between atoms: C_2  and  N_3
REMARK    3  A    between atoms: C_2  and  C_16
REMARK    4  A    between atoms: C_4  and  C_6
REMARK    5  A    between atoms: C_19  and  C_20
REMARK    6  A    between atoms: C_20  and  N_21
REMARK    7  A    between atoms: N_21  and  C_22
REMARK    8  A    between atoms: C_22  and  C_23
REMARK    9  A    between atoms: C_22  and  C_24
REMARK                            x       y       z     vdW  Elec       q    Type
REMARK                         _______ _______ _______ _____ _____    ______ ____
ROOT
ATOM      1  C   UNL     1      49.230   7.967  15.167  0.00  0.00    +0.000 C 
ATOM      2  C   UNL     1      48.704   6.710  15.874  0.00  0.00    +0.000 C 
ENDROOT
BRANCH   2   3
ATOM      3  C   UNL     1      47.869   5.833  14.985  0.00  0.00    +0.000 A 
ATOM      4  C   UNL     1      47.506   6.184  13.699  0.00  0.00    +0.000 A 
ATOM      5  N   UNL     1      46.759   5.407  12.892  0.00  0.00    +0.000 NA
ATOM      6  C   UNL     1      46.349   4.231  13.410  0.00  0.00    +0.000 A 
ATOM      7  N   UNL     1      46.626   3.796  14.647  0.00  0.00    +0.000 NA
ATOM      8  C   UNL     1      47.376   4.616  15.409  0.00  0.00    +0.000 A 
BRANCH   6   9
ATOM      9  C   UNL     1      45.585   3.301  12.491  0.00  0.00    +0.000 C 
BRANCH   9  10
ATOM     10  N   UNL     1      44.121   3.286  12.686  0.00  0.00    +0.000 NA
ATOM     11  H   UNL     1      43.906   3.980  13.410  0.00  0.00    +0.000 HD
BRANCH  10  12
ATOM     12  C   UNL     1      43.377   3.689  11.473  0.00  0.00    +0.000 C 
ATOM     13  C   UNL     1      42.869   5.133  11.588  0.00  0.00    +0.000 C 
BRANCH  12  14
ATOM     14  C   UNL     1      44.254   3.490  10.235  0.00  0.00    +0.000 A 
ATOM     15  C   UNL     1      44.486   2.218   9.710  0.00  0.00    +0.000 A 
ATOM     16  C   UNL     1      45.272   2.086   8.568  0.00  0.00    +0.000 A 
ATOM     17  C   UNL     1      45.787   3.222   7.962  0.00  0.00    +0.000 A 
ATOM     18  C   UNL     1      45.487   4.452   8.523  0.00  0.00    +0.000 A 
ATOM     19  N   UNL     1      44.744   4.611   9.640  0.00  0.00    +0.000 NA
ENDBRANCH  12  14
ENDBRANCH  10  12
ENDBRANCH   9  10
ENDBRANCH   6   9
ENDBRANCH   2   3
BRANCH   2  20
ATOM     20  N   UNL     1      49.808   5.943  16.421  0.00  0.00    +0.000 N 
ATOM     21  C   UNL     1      49.795   5.468  17.707  0.00  0.00    +0.000 C 
ATOM     22  O   UNL     1      48.838   5.639  18.461  0.00  0.00    +0.000 OA
ATOM     23  H   UNL     1      50.687   5.959  15.916  0.00  0.00    +0.000 HD
BRANCH  21  24
ATOM     24  C   UNL     1      50.957   4.680  18.117  0.00  0.00    +0.000 A 
ATOM     25  C   UNL     1      51.990   5.282  18.819  0.00  0.00    +0.000 A 
ATOM     26  S   UNL     1      53.270   4.218  19.190  0.00  0.00    +0.000 S 
ATOM     27  C   UNL     1      52.498   2.926  18.397  0.00  0.00    +0.000 A 
ATOM     28  N   UNL     1      53.090   1.706  18.301  0.00  0.00    +0.000 NA
ATOM     29  C   UNL     1      52.409   0.834  17.635  0.00  0.00    +0.000 A 
ATOM     30  N   UNL     1      51.176   1.063  17.072  0.00  0.00    +0.000 N 
ATOM     31  C   UNL     1      50.507   2.260  17.198  0.00  0.00    +0.000 A 
ATOM     32  O   UNL     1      49.368   2.401  16.776  0.00  0.00    +0.000 OA
ATOM     33  C   UNL     1      51.259   3.288  17.889  0.00  0.00    +0.000 A 
ATOM     34  H   UNL     1      50.687   0.326  16.591  0.00  0.00    +0.000 HD
ENDBRANCH  21  24
ENDBRANCH   2  20
TORSDOF 7
ENDMDL
MODEL 4
REMARK VINA RESULT:    -7.707      3.013      4.488
REMARK INTER + INTRA:         -11.885
REMARK INTER:                 -10.905
REMARK INTRA:                  -0.980
REMARK UNBOUND:                -1.023
REMARK  Name = 
REMARK  9 active torsions:
REMARK  status: ('A' for Active; 'I' for Inactive)
REMARK    1  A    between atoms: C_1  and  C_2
REMARK    2  A    between atoms: C_2  and  N_3
REMARK    3  A    between atoms: C_2  and  C_16
REMARK    4  A    between atoms: C_4  and  C_6
REMARK    5  A    between atoms: C_19  and  C_20
REMARK    6  A    between atoms: C_20  and  N_21
REMARK    7  A    between atoms: N_21  and  C_22
REMARK    8  A    between atoms: C_22  and  C_23
REMARK    9  A    between atoms: C_22  and  C_24
REMARK                            x       y       z     vdW  Elec       q    Type
REMARK                         _______ _______ _______ _____ _____    ______ ____
ROOT
ATOM      1  C   UNL     1      47.544   3.672  16.414  0.00  0.00    +0.000 C 
ATOM      2  C   UNL     1      47.774   4.645  15.249  0.00  0.00    +0.000 C 
ENDROOT
BRANCH   2   3
ATOM      3  C   UNL     1      46.764   4.500  14.146  0.00  0.00    +0.000 A 
ATOM      4  C   UNL     1      46.003   5.552  13.673  0.00  0.00    +0.000 A 
ATOM      5  N   UNL     1      45.095   5.436  12.686  0.00  0.00    +0.000 NA
ATOM      6  C   UNL     1      44.938   4.202  12.162  0.00  0.00    +0.000 A 
ATOM      7  N   UNL     1      45.607   3.109  12.554  0.00  0.00    +0.000 NA
ATOM      8  C   UNL     1      46.501   3.286  13.546  0.00  0.00    +0.000 A 
BRANCH   6   9
ATOM      9  C   UNL     1      43.989   4.065  10.991  0.00  0.00    +0.000 C 
BRANCH   9  10
ATOM     10  N   UNL     1      44.447   3.170   9.910  0.00  0.00    +0.000 NA
ATOM     11  H   UNL     1      43.632   2.629   9.601  0.00  0.00    +0.000 HD
BRANCH  10  12
ATOM     12  C   UNL     1      44.944   3.906   8.727  0.00  0.00    +0.000 C 
ATOM     13  C   UNL     1      45.663   5.199   9.139  0.00  0.00    +0.000 C 
BRANCH  12  14
ATOM     14  C   UNL     1      45.844   2.995   7.889  0.00  0.00    +0.000 A 
ATOM     15  C   UNL     1      46.480   3.465   6.740  0.00  0.00    +0.000 A 
ATOM     16  C   UNL     1      47.309   2.608   6.020  0.00  0.00    +0.000 A 
ATOM     17  C   UNL     1      47.505   1.312   6.475  0.00  0.00    +0.000 A 
ATOM     18  C   UNL     1      46.865   0.928   7.641  0.00  0.00    +0.000 A 
ATOM     19  N   UNL     1      46.041   1.730   8.350  0.00  0.00    +0.000 NA
ENDBRANCH  12  14
ENDBRANCH  10  12
ENDBRANCH   9  10
ENDBRANCH   6   9
ENDBRANCH   2   3
BRANCH   2  20
ATOM     20  N   UNL     1      47.780   6.014  15.731  0.00  0.00    +0.000 N 
ATOM     21  C   UNL     1      48.942   6.663  16.060  0.00  0.00    +0.000 C 
ATOM     22  O   UNL     1      50.046   6.135  15.940  0.00  0.00    +0.000 OA
ATOM     23  H   UNL     1      46.897   6.407  16.039  0.00  0.00    +0.000 HD
BRANCH  21  24
ATOM     24  C   UNL     1      48.804   8.051  16.499  0.00  0.00    +0.000 A 
ATOM     25  C   UNL     1      49.280   9.081  15.702  0.00  0.00    +0.000 A 
ATOM     26  S   UNL     1      49.056  10.628  16.384  0.00  0.00    +0.000 S 
ATOM     27  C   UNL     1      48.343   9.968  17.781  0.00  0.00    +0.000 A 
ATOM     28  N   UNL     1      47.952  10.763  18.812  0.00  0.00    +0.000 NA
ATOM     29  C   UNL     1      47.468  10.123  19.823  0.00  0.00    +0.000 A 
ATOM     30  N   UNL     1      47.317   8.758  19.892  0.00  0.00    +0.000 N 
ATOM     31  C   UNL     1      47.637   7.918  18.849  0.00  0.00    +0.000 A 
ATOM     32  O   UNL     1      47.396   6.720  18.899  0.00  0.00    +0.000 OA
ATOM     33  C   UNL     1      48.238   8.586  17.713  0.00  0.00    +0.000 A 
ATOM     34  H   UNL     1      46.903   8.329  20.702  0.00  0.00    +0.000 HD
ENDBRANCH  21  24
ENDBRANCH   2  20
TORSDOF 7
ENDMDL
MODEL 5
REMARK VINA RESULT:    -7.674      2.108      2.615
REMARK INTER + INTRA:         -11.838
REMARK INTER:                 -10.751
REMARK INTRA:                  -1.087
REMARK UNBOUND:                -1.023
REMARK  Name = 
REMARK  9 active torsions:
REMARK  status: ('A' for Active; 'I' for Inactive)
REMARK    1  A    between atoms: C_1  and  C_2
REMARK    2  A    between atoms: C_2  and  N_3
REMARK    3  A    between atoms: C_2  and  C_16
REMARK    4  A    between atoms: C_4  and  C_6
REMARK    5  A    between atoms: C_19  and  C_20
REMARK    6  A    between atoms: C_20  and  N_21
REMARK    7  A    between atoms: N_21  and  C_22
REMARK    8  A    between atoms: C_22  and  C_23
REMARK    9  A    between atoms: C_22  and  C_24
REMARK                            x       y       z     vdW  Elec       q    Type
REMARK                         _______ _______ _______ _____ _____    ______ ____
ROOT
ATOM      1  C   UNL     1      48.933   8.603  11.938  0.00  0.00    +0.000 C 
ATOM      2  C   UNL     1      47.867   8.116  12.930  0.00  0.00    +0.000 C 
ENDROOT
BRANCH   2   3
ATOM      3  C   UNL     1      46.764   7.330  12.278  0.00  0.00    +0.000 A 
ATOM      4  C   UNL     1      45.485   7.250  12.792  0.00  0.00    +0.000 A 
ATOM      5  N   UNL     1      44.488   6.551  12.218  0.00  0.00    +0.000 NA
ATOM      6  C   UNL     1      44.800   5.890  11.083  0.00  0.00    +0.000 A 
ATOM      7  N   UNL     1      46.009   5.883  10.505  0.00  0.00    +0.000 NA
ATOM      8  C   UNL     1      46.966   6.600  11.125  0.00  0.00    +0.000 A 
BRANCH   6   9
ATOM      9  C   UNL     1      43.674   5.171  10.371  0.00  0.00    +0.000 C 
BRANCH   9  10
ATOM     10  N   UNL     1      44.082   4.353   9.212  0.00  0.00    +0.000 NA
ATOM     11  H   UNL     1      44.692   4.937   8.631  0.00  0.00    +0.000 HD
BRANCH  10  12
ATOM     12  C   UNL     1      44.872   3.164   9.598  0.00  0.00    +0.000 C 
ATOM     13  C   UNL     1      43.969   2.055  10.158  0.00  0.00    +0.000 C 
BRANCH  12  14
ATOM     14  C   UNL     1      45.697   2.679   8.404  0.00  0.00    +0.000 A 
ATOM     15  C   UNL     1      46.041   3.543   7.363  0.00  0.00    +0.000 A 
ATOM     16  C   UNL     1      46.813   3.065   6.308  0.00  0.00    +0.000 A 
ATOM     17  C   UNL     1      47.247   1.747   6.325  0.00  0.00    +0.000 A 
ATOM     18  C   UNL     1      46.893   0.960   7.407  0.00  0.00    +0.000 A 
ATOM     19  N   UNL     1      46.130   1.389   8.436  0.00  0.00    +0.000 NA
ENDBRANCH  12  14
ENDBRANCH  10  12
ENDBRANCH   9  10
ENDBRANCH   6   9
ENDBRANCH   2   3
BRANCH   2  20
ATOM     20  N   UNL     1      48.481   7.320  13.977  0.00  0.00    +0.000 N 
ATOM     21  C   UNL     1      48.498   7.731  15.285  0.00  0.00    +0.000 C 
ATOM     22  O   UNL     1      47.971   8.780  15.651  0.00  0.00    +0.000 OA
ATOM     23  H   UNL     1      49.099   6.567  13.694  0.00  0.00    +0.000 HD
BRANCH  21  24
ATOM     24  C   UNL     1      49.120   6.816  16.241  0.00  0.00    +0.000 A 
ATOM     25  C   UNL     1      50.179   7.246  17.025  0.00  0.00    +0.000 A 
ATOM     26  S   UNL     1      50.792   6.039  18.062  0.00  0.00    +0.000 S 
ATOM     27  C   UNL     1      49.680   4.893  17.474  0.00  0.00    +0.000 A 
ATOM     28  N   UNL     1      49.693   3.609  17.920  0.00  0.00    +0.000 NA
ATOM     29  C   UNL     1      48.822   2.841  17.355  0.00  0.00    +0.000 A 
ATOM     30  N   UNL     1      47.922   3.243  16.398  0.00  0.00    +0.000 N 
ATOM     31  C   UNL     1      47.826   4.546  15.962  0.00  0.00    +0.000 A 
ATOM     32  O   UNL     1      46.947   4.896  15.187  0.00  0.00    +0.000 OA
ATOM     33  C   UNL     1      48.822   5.434  16.527  0.00  0.00    +0.000 A 
ATOM     34  H   UNL     1      47.249   2.595  16.022  0.00  0.00    +0.000 HD
ENDBRANCH  21  24
ENDBRANCH   2  20
TORSDOF 7
ENDMDL
MODEL 6
REMARK VINA RESULT:    -7.441      3.063      4.863
REMARK INTER + INTRA:         -11.510
REMARK INTER:                 -10.290
REMARK INTRA:                  -1.220
REMARK UNBOUND:                -1.023
REMARK  Name = 
REMARK  9 active torsions:
REMARK  status: ('A' for Active; 'I' for Inactive)
REMARK    1  A    between atoms: C_1  and  C_2
REMARK    2  A    between atoms: C_2  and  N_3
REMARK    3  A    between atoms: C_2  and  C_16
REMARK    4  A    between atoms: C_4  and  C_6
REMARK    5  A    between atoms: C_19  and  C_20
REMARK    6  A    between atoms: C_20  and  N_21
REMARK    7  A    between atoms: N_21  and  C_22
REMARK    8  A    between atoms: C_22  and  C_23
REMARK    9  A    between atoms: C_22  and  C_24
REMARK                            x       y       z     vdW  Elec       q    Type
REMARK                         _______ _______ _______ _____ _____    ______ ____
ROOT
ATOM      1  C   UNL     1      47.234   4.514  17.109  0.00  0.00    +0.000 C 
ATOM      2  C   UNL     1      47.802   4.879  15.731  0.00  0.00    +0.000 C 
ENDROOT
BRANCH   2   3
ATOM      3  C   UNL     1      46.904   4.479  14.593  0.00  0.00    +0.000 A 
ATOM      4  C   UNL     1      46.948   3.236  13.995  0.00  0.00    +0.000 A 
ATOM      5  N   UNL     1      46.150   2.865  12.976  0.00  0.00    +0.000 NA
ATOM      6  C   UNL     1      45.279   3.796  12.533  0.00  0.00    +0.000 A 
ATOM      7  N   UNL     1      45.161   5.036  13.025  0.00  0.00    +0.000 NA
ATOM      8  C   UNL     1      45.987   5.350  14.042  0.00  0.00    +0.000 A 
BRANCH   6   9
ATOM      9  C   UNL     1      44.309   3.373  11.449  0.00  0.00    +0.000 C 
BRANCH   9  10
ATOM     10  N   UNL     1      44.880   2.513  10.393  0.00  0.00    +0.000 NA
ATOM     11  H   UNL     1      44.486   1.575  10.524  0.00  0.00    +0.000 HD
BRANCH  10  12
ATOM     12  C   UNL     1      44.503   2.949   9.032  0.00  0.00    +0.000 C 
ATOM     13  C   UNL     1      44.104   4.432   9.014  0.00  0.00    +0.000 C 
BRANCH  12  14
ATOM     14  C   UNL     1      45.646   2.654   8.057  0.00  0.00    +0.000 A 
ATOM     15  C   UNL     1      46.313   1.429   8.074  0.00  0.00    +0.000 A 
ATOM     16  C   UNL     1      47.331   1.194   7.154  0.00  0.00    +0.000 A 
ATOM     17  C   UNL     1      47.644   2.174   6.222  0.00  0.00    +0.000 A 
ATOM     18  C   UNL     1      46.917   3.351   6.247  0.00  0.00    +0.000 A 
ATOM     19  N   UNL     1      45.936   3.615   7.139  0.00  0.00    +0.000 NA
ENDBRANCH  12  14
ENDBRANCH  10  12
ENDBRANCH   9  10
ENDBRANCH   6   9
ENDBRANCH   2   3
BRANCH   2  20
ATOM     20  N   UNL     1      48.075   6.303  15.661  0.00  0.00    +0.000 N 
ATOM     21  C   UNL     1      49.342   6.806  15.806  0.00  0.00    +0.000 C 
ATOM     22  O   UNL     1      50.322   6.083  15.975  0.00  0.00    +0.000 OA
ATOM     23  H   UNL     1      47.287   6.936  15.733  0.00  0.00    +0.000 HD
BRANCH  21  24
ATOM     24  C   UNL     1      49.479   8.257  15.679  0.00  0.00    +0.000 A 
ATOM     25  C   UNL     1      49.922   9.009  16.756  0.00  0.00    +0.000 A 
ATOM     26  S   UNL     1      49.996  10.682  16.433  0.00  0.00    +0.000 S 
ATOM     27  C   UNL     1      49.408  10.457  14.852  0.00  0.00    +0.000 A 
ATOM     28  N   UNL     1      49.186  11.516  14.028  0.00  0.00    +0.000 NA
ATOM     29  C   UNL     1      48.699  11.200  12.874  0.00  0.00    +0.000 A 
ATOM     30  N   UNL     1      48.433   9.917  12.458  0.00  0.00    +0.000 N 
ATOM     31  C   UNL     1      48.702   8.809  13.230  0.00  0.00    +0.000 A 
ATOM     32  O   UNL     1      48.552   7.676  12.794  0.00  0.00    +0.000 OA
ATOM     33  C   UNL     1      49.196   9.118  14.557  0.00  0.00    +0.000 A 
ATOM     34  H   UNL     1      48.081   9.742  11.531  0.00  0.00    +0.000 HD
ENDBRANCH  21  24
ENDBRANCH   2  20
TORSDOF 7
ENDMDL
MODEL 7
REMARK VINA RESULT:    -7.329      2.558      3.480
REMARK INTER + INTRA:         -11.352
REMARK INTER:                 -10.642
REMARK INTRA:                  -0.710
REMARK UNBOUND:                -1.023
REMARK  Name = 
REMARK  9 active torsions:
REMARK  status: ('A' for Active; 'I' for Inactive)
REMARK    1  A    between atoms: C_1  and  C_2
REMARK    2  A    between atoms: C_2  and  N_3
REMARK    3  A    between atoms: C_2  and  C_16
REMARK    4  A    between atoms: C_4  and  C_6
REMARK    5  A    between atoms: C_19  and  C_20
REMARK    6  A    between atoms: C_20  and  N_21
REMARK    7  A    between atoms: N_21  and  C_22
REMARK    8  A    between atoms: C_22  and  C_23
REMARK    9  A    between atoms: C_22  and  C_24
REMARK                            x       y       z     vdW  Elec       q    Type
REMARK                         _______ _______ _______ _____ _____    ______ ____
ROOT
ATOM      1  C   UNL     1      48.616   9.072  12.584  0.00  0.00    +0.000 C 
ATOM      2  C   UNL     1      47.344   9.032  13.442  0.00  0.00    +0.000 C 
ENDROOT
BRANCH   2   3
ATOM      3  C   UNL     1      46.242   8.211  12.834  0.00  0.00    +0.000 A 
ATOM      4  C   UNL     1      46.077   6.862  13.083  0.00  0.00    +0.000 A 
ATOM      5  N   UNL     1      45.094   6.116  12.545  0.00  0.00    +0.000 NA
ATOM      6  C   UNL     1      44.249   6.754  11.709  0.00  0.00    +0.000 A 
ATOM      7  N   UNL     1      44.325   8.052  11.383  0.00  0.00    +0.000 NA
ATOM      8  C   UNL     1      45.329   8.748  11.950  0.00  0.00    +0.000 A 
BRANCH   6   9
ATOM      9  C   UNL     1      43.084   5.957  11.163  0.00  0.00    +0.000 C 
BRANCH   9  10
ATOM     10  N   UNL     1      43.419   5.010  10.082  0.00  0.00    +0.000 NA
ATOM     11  H   UNL     1      43.937   5.536   9.370  0.00  0.00    +0.000 HD
BRANCH  10  12
ATOM     12  C   UNL     1      44.306   3.915  10.532  0.00  0.00    +0.000 C 
ATOM     13  C   UNL     1      43.506   2.802  11.225  0.00  0.00    +0.000 C 
BRANCH  12  14
ATOM     14  C   UNL     1      45.116   3.382   9.348  0.00  0.00    +0.000 A 
ATOM     15  C   UNL     1      45.690   4.248   8.416  0.00  0.00    +0.000 A 
ATOM     16  C   UNL     1      46.439   3.721   7.367  0.00  0.00    +0.000 A 
ATOM     17  C   UNL     1      46.621   2.348   7.285  0.00  0.00    +0.000 A 
ATOM     18  C   UNL     1      46.047   1.556   8.265  0.00  0.00    +0.000 A 
ATOM     19  N   UNL     1      45.300   2.036   9.283  0.00  0.00    +0.000 NA
ENDBRANCH  12  14
ENDBRANCH  10  12
ENDBRANCH   9  10
ENDBRANCH   6   9
ENDBRANCH   2   3
BRANCH   2  20
ATOM     20  N   UNL     1      47.649   8.533  14.771  0.00  0.00    +0.000 N 
ATOM     21  C   UNL     1      48.346   9.281  15.684  0.00  0.00    +0.000 C 
ATOM     22  O   UNL     1      48.727  10.425  15.444  0.00  0.00    +0.000 OA
ATOM     23  H   UNL     1      47.541   7.538  14.935  0.00  0.00    +0.000 HD
BRANCH  21  24
ATOM     24  C   UNL     1      48.553   8.669  16.996  0.00  0.00    +0.000 A 
ATOM     25  C   UNL     1      48.305   9.398  18.149  0.00  0.00    +0.000 A 
ATOM     26  S   UNL     1      48.626   8.532  19.583  0.00  0.00    +0.000 S 
ATOM     27  C   UNL     1      49.135   7.165  18.709  0.00  0.00    +0.000 A 
ATOM     28  N   UNL     1      49.595   6.056  19.345  0.00  0.00    +0.000 NA
ATOM     29  C   UNL     1      49.988   5.113  18.554  0.00  0.00    +0.000 A 
ATOM     30  N   UNL     1      49.943   5.168  17.182  0.00  0.00    +0.000 N 
ATOM     31  C   UNL     1      49.425   6.241  16.493  0.00  0.00    +0.000 A 
ATOM     32  O   UNL     1      49.302   6.220  15.276  0.00  0.00    +0.000 OA
ATOM     33  C   UNL     1      49.025   7.349  17.338  0.00  0.00    +0.000 A 
ATOM     34  H   UNL     1      50.238   4.381  16.628  0.00  0.00    +0.000 HD
ENDBRANCH  21  24
ENDBRANCH   2  20
TORSDOF 7
ENDMDL
MODEL 8
REMARK VINA RESULT:    -7.113      1.949      2.686
REMARK INTER + INTRA:         -11.047
REMARK INTER:                  -9.790
REMARK INTRA:                  -1.258
REMARK UNBOUND:                -1.023
REMARK  Name = 
REMARK  9 active torsions:
REMARK  status: ('A' for Active; 'I' for Inactive)
REMARK    1  A    between atoms: C_1  and  C_2
REMARK    2  A    between atoms: C_2  and  N_3
REMARK    3  A    between atoms: C_2  and  C_16
REMARK    4  A    between atoms: C_4  and  C_6
REMARK    5  A    between atoms: C_19  and  C_20
REMARK    6  A    between atoms: C_20  and  N_21
REMARK    7  A    between atoms: N_21  and  C_22
REMARK    8  A    between atoms: C_22  and  C_23
REMARK    9  A    between atoms: C_22  and  C_24
REMARK                            x       y       z     vdW  Elec       q    Type
REMARK                         _______ _______ _______ _____ _____    ______ ____
ROOT
ATOM      1  C   UNL     1      50.147   7.834  11.593  0.00  0.00    +0.000 C 
ATOM      2  C   UNL     1      49.358   7.906  12.908  0.00  0.00    +0.000 C 
ENDROOT
BRANCH   2   3
ATOM      3  C   UNL     1      47.959   7.370  12.792  0.00  0.00    +0.000 A 
ATOM      4  C   UNL     1      46.939   8.048  12.153  0.00  0.00    +0.000 A 
ATOM      5  N   UNL     1      45.682   7.579  12.042  0.00  0.00    +0.000 NA
ATOM      6  C   UNL     1      45.440   6.380  12.613  0.00  0.00    +0.000 A 
ATOM      7  N   UNL     1      46.347   5.645  13.272  0.00  0.00    +0.000 NA
ATOM      8  C   UNL     1      47.587   6.166  13.351  0.00  0.00    +0.000 A 
BRANCH   6   9
ATOM      9  C   UNL     1      44.059   5.791  12.423  0.00  0.00    +0.000 C 
BRANCH   9  10
ATOM     10  N   UNL     1      43.840   5.097  11.139  0.00  0.00    +0.000 NA
ATOM     11  H   UNL     1      44.348   5.625  10.421  0.00  0.00    +0.000 HD
BRANCH  10  12
ATOM     12  C   UNL     1      44.390   3.724  11.127  0.00  0.00    +0.000 C 
ATOM     13  C   UNL     1      43.307   2.690  11.469  0.00  0.00    +0.000 C 
BRANCH  12  14
ATOM     14  C   UNL     1      45.044   3.438   9.774  0.00  0.00    +0.000 A 
ATOM     15  C   UNL     1      45.446   4.475   8.931  0.00  0.00    +0.000 A 
ATOM     16  C   UNL     1      46.059   4.169   7.719  0.00  0.00    +0.000 A 
ATOM     17  C   UNL     1      46.280   2.841   7.385  0.00  0.00    +0.000 A 
ATOM     18  C   UNL     1      45.883   1.868   8.287  0.00  0.00    +0.000 A 
ATOM     19  N   UNL     1      45.269   2.133   9.461  0.00  0.00    +0.000 NA
ENDBRANCH  12  14
ENDBRANCH  10  12
ENDBRANCH   9  10
ENDBRANCH   6   9
ENDBRANCH   2   3
BRANCH   2  20
ATOM     20  N   UNL     1      50.067   7.199  13.959  0.00  0.00    +0.000 N 
ATOM     21  C   UNL     1      50.924   7.841  14.815  0.00  0.00    +0.000 C 
ATOM     22  O   UNL     1      51.120   9.053  14.762  0.00  0.00    +0.000 OA
ATOM     23  H   UNL     1      50.098   6.186  13.905  0.00  0.00    +0.000 HD
BRANCH  21  24
ATOM     24  C   UNL     1      51.545   7.013  15.849  0.00  0.00    +0.000 A 
ATOM     25  C   UNL     1      52.926   6.955  15.955  0.00  0.00    +0.000 A 
ATOM     26  S   UNL     1      53.470   5.922  17.198  0.00  0.00    +0.000 S 
ATOM     27  C   UNL     1      51.877   5.495  17.614  0.00  0.00    +0.000 A 
ATOM     28  N   UNL     1      51.627   4.588  18.596  0.00  0.00    +0.000 NA
ATOM     29  C   UNL     1      50.374   4.328  18.774  0.00  0.00    +0.000 A 
ATOM     30  N   UNL     1      49.343   4.909  18.074  0.00  0.00    +0.000 N 
ATOM     31  C   UNL     1      49.542   5.879  17.118  0.00  0.00    +0.000 A 
ATOM     32  O   UNL     1      48.602   6.452  16.585  0.00  0.00    +0.000 OA
ATOM     33  C   UNL     1      50.937   6.162  16.842  0.00  0.00    +0.000 A 
ATOM     34  H   UNL     1      48.387   4.681  18.288  0.00  0.00    +0.000 HD
ENDBRANCH  21  24
ENDBRANCH   2  20
TORSDOF 7
ENDMDL
MODEL 9
REMARK VINA RESULT:    -6.850      3.517      8.670
REMARK INTER + INTRA:         -10.677
REMARK INTER:                  -9.974
REMARK INTRA:                  -0.703
REMARK UNBOUND:                -1.023
REMARK  Name = 
REMARK  9 active torsions:
REMARK  status: ('A' for Active; 'I' for Inactive)
REMARK    1  A    between atoms: C_1  and  C_2
REMARK    2  A    between atoms: C_2  and  N_3
REMARK    3  A    between atoms: C_2  and  C_16
REMARK    4  A    between atoms: C_4  and  C_6
REMARK    5  A    between atoms: C_19  and  C_20
REMARK    6  A    between atoms: C_20  and  N_21
REMARK    7  A    between atoms: N_21  and  C_22
REMARK    8  A    between atoms: C_22  and  C_23
REMARK    9  A    between atoms: C_22  and  C_24
REMARK                            x       y       z     vdW  Elec       q    Type
REMARK                         _______ _______ _______ _____ _____    ______ ____
ROOT
ATOM      1  C   UNL     1      46.489   9.028  11.848  0.00  0.00    +0.000 C 
ATOM      2  C   UNL     1      47.398   7.819  12.106  0.00  0.00    +0.000 C 
ENDROOT
BRANCH   2   3
ATOM      3  C   UNL     1      47.927   7.763  13.512  0.00  0.00    +0.000 A 
ATOM      4  C   UNL     1      47.851   8.824  14.393  0.00  0.00    +0.000 A 
ATOM      5  N   UNL     1      48.320   8.787  15.654  0.00  0.00    +0.000 NA
ATOM      6  C   UNL     1      48.903   7.633  16.039  0.00  0.00    +0.000 A 
ATOM      7  N   UNL     1      49.046   6.548  15.266  0.00  0.00    +0.000 NA
ATOM      8  C   UNL     1      48.559   6.645  14.014  0.00  0.00    +0.000 A 
BRANCH   6   9
ATOM      9  C   UNL     1      49.356   7.536  17.481  0.00  0.00    +0.000 C 
BRANCH   9  10
ATOM     10  N   UNL     1      48.288   7.249  18.459  0.00  0.00    +0.000 NA
ATOM     11  H   UNL     1      47.437   7.045  17.925  0.00  0.00    +0.000 HD
BRANCH  10  12
ATOM     12  C   UNL     1      48.572   6.056  19.285  0.00  0.00    +0.000 C 
ATOM     13  C   UNL     1      47.601   5.957  20.470  0.00  0.00    +0.000 C 
BRANCH  12  14
ATOM     14  C   UNL     1      48.534   4.800  18.411  0.00  0.00    +0.000 A 
ATOM     15  C   UNL     1      47.377   4.431  17.723  0.00  0.00    +0.000 A 
ATOM     16  C   UNL     1      47.394   3.293  16.921  0.00  0.00    +0.000 A 
ATOM     17  C   UNL     1      48.569   2.564  16.802  0.00  0.00    +0.000 A 
ATOM     18  C   UNL     1      49.684   3.009  17.489  0.00  0.00    +0.000 A 
ATOM     19  N   UNL     1      49.693   4.098  18.290  0.00  0.00    +0.000 NA
ENDBRANCH  12  14
ENDBRANCH  10  12
ENDBRANCH   9  10
ENDBRANCH   6   9
ENDBRANCH   2   3
BRANCH   2  20
ATOM     20  N   UNL     1      46.696   6.587  11.799  0.00  0.00    +0.000 N 
ATOM     21  C   UNL     1      45.414   6.356  12.228  0.00  0.00    +0.000 C 
ATOM     22  O   UNL     1      44.776   7.187  12.871  0.00  0.00    +0.000 OA
ATOM     23  H   UNL     1      47.246   5.805  11.460  0.00  0.00    +0.000 HD
BRANCH  21  24
ATOM     24  C   UNL     1      44.815   5.086  11.817  0.00  0.00    +0.000 A 
ATOM     25  C   UNL     1      44.062   4.351  12.719  0.00  0.00    +0.000 A 
ATOM     26  S   UNL     1      43.464   2.890  12.074  0.00  0.00    +0.000 S 
ATOM     27  C   UNL     1      44.219   3.179  10.577  0.00  0.00    +0.000 A 
ATOM     28  N   UNL     1      44.143   2.274   9.566  0.00  0.00    +0.000 NA
ATOM     29  C   UNL     1      44.799   2.605   8.504  0.00  0.00    +0.000 A 
ATOM     30  N   UNL     1      45.509   3.772   8.351  0.00  0.00    +0.000 N 
ATOM     31  C   UNL     1      45.561   4.749   9.320  0.00  0.00    +0.000 A 
ATOM     32  O   UNL     1      46.113   5.821   9.117  0.00  0.00    +0.000 OA
ATOM     33  C   UNL     1      44.886   4.395  10.553  0.00  0.00    +0.000 A 
ATOM     34  H   UNL     1      45.973   3.980   7.482  0.00  0.00    +0.000 HD
ENDBRANCH  21  24
ENDBRANCH   2  20
TORSDOF 7
ENDMDL
