MODEL 1
REMARK VINA RESULT:    -8.377      0.000      0.000
REMARK INTER + INTRA:         -12.554
REMARK INTER:                 -11.805
REMARK INTRA:                  -0.749
REMARK UNBOUND:                -0.749
REMARK  Name = 
REMARK  8 active torsions:
REMARK  status: ('A' for Active; 'I' for Inactive)
REMARK    1  A    between atoms: C_1  and  C_2
REMARK    2  A    between atoms: C_2  and  C_3
REMARK    3  A    between atoms: C_3  and  N_4
REMARK    4  A    between atoms: C_3  and  C_17
REMARK    5  A    between atoms: C_5  and  C_7
REMARK    6  A    between atoms: C_20  and  C_21
REMARK    7  A    between atoms: C_21  and  O_22
REMARK    8  A    between atoms: O_22  and  C_23
REMARK                            x       y       z     vdW  Elec       q    Type
REMARK                         _______ _______ _______ _____ _____    ______ ____
ROOT
ATOM      1  C   UNL     1      46.050   7.766  12.881  0.00  0.00    +0.000 C 
ENDROOT
BRANCH   1   2
ATOM      2  C   UNL     1      45.623   6.546  12.079  0.00  0.00    +0.000 A 
ATOM      3  C   UNL     1      44.847   5.551  12.693  0.00  0.00    +0.000 A 
ATOM      4  C   UNL     1      44.476   4.399  11.992  0.00  0.00    +0.000 A 
ATOM      5  C   UNL     1      44.891   4.211  10.669  0.00  0.00    +0.000 A 
ATOM      6  C   UNL     1      45.644   5.210  10.045  0.00  0.00    +0.000 A 
ATOM      7  C   UNL     1      46.025   6.352  10.749  0.00  0.00    +0.000 A 
BRANCH   5   8
ATOM      8  C   UNL     1      44.597   2.923   9.937  0.00  0.00    +0.000 C 
BRANCH   8   9
ATOM      9  O   UNL     1      44.641   3.123   8.522  0.00  0.00    +0.000 OA
BRANCH   9  10
ATOM     10  C   UNL     1      45.725   2.475   7.957  0.00  0.00    +0.000 A 
ATOM     11  C   UNL     1      46.511   3.207   7.098  0.00  0.00    +0.000 A 
ATOM     12  C   UNL     1      47.586   2.534   6.566  0.00  0.00    +0.000 A 
ATOM     13  N   UNL     1      47.878   1.252   6.846  0.00  0.00    +0.000 NA
ATOM     14  C   UNL     1      47.040   0.639   7.697  0.00  0.00    +0.000 A 
ATOM     15  N   UNL     1      45.965   1.186   8.272  0.00  0.00    +0.000 NA
ENDBRANCH   9  10
ENDBRANCH   8   9
ENDBRANCH   5   8
ENDBRANCH   1   2
BRANCH   1  16
ATOM     16  N   UNL     1      46.798   7.311  14.042  0.00  0.00    +0.000 N 
ATOM     17  C   UNL     1      48.062   6.788  13.970  0.00  0.00    +0.000 C 
ATOM     18  O   UNL     1      48.690   6.734  12.915  0.00  0.00    +0.000 OA
ATOM     19  H   UNL     1      46.270   7.224  14.905  0.00  0.00    +0.000 HD
BRANCH  17  20
ATOM     20  C   UNL     1      48.653   6.336  15.236  0.00  0.00    +0.000 A 
ATOM     21  C   UNL     1      49.745   7.006  15.769  0.00  0.00    +0.000 A 
ATOM     22  S   UNL     1      50.322   6.326  17.223  0.00  0.00    +0.000 S 
ATOM     23  C   UNL     1      49.161   5.084  17.166  0.00  0.00    +0.000 A 
ATOM     24  N   UNL     1      49.143   4.098  18.108  0.00  0.00    +0.000 NA
ATOM     25  C   UNL     1      48.234   3.201  17.919  0.00  0.00    +0.000 A 
ATOM     26  N   UNL     1      47.326   3.212  16.894  0.00  0.00    +0.000 N 
ATOM     27  C   UNL     1      47.265   4.217  15.960  0.00  0.00    +0.000 A 
ATOM     28  O   UNL     1      46.371   4.252  15.121  0.00  0.00    +0.000 OA
ATOM     29  C   UNL     1      48.309   5.219  16.084  0.00  0.00    +0.000 A 
ATOM     30  H   UNL     1      46.614   2.500  16.829  0.00  0.00    +0.000 HD
ENDBRANCH  17  20
ENDBRANCH   1  16
BRANCH   1  32
ATOM     31  C   UNL     1      46.141  10.111  11.870  0.00  0.00    +0.000 C 
ATOM     32  C   UNL     1      46.879   8.793  12.081  0.00  0.00    +0.000 C 
ENDBRANCH   1  32
TORSDOF 7
ENDMDL
MODEL 2
REMARK VINA RESULT:    -8.197      1.595      2.038
REMARK INTER + INTRA:         -12.300
REMARK INTER:                 -10.597
REMARK INTRA:                  -1.703
REMARK UNBOUND:                -0.749
REMARK  Name = 
REMARK  8 active torsions:
REMARK  status: ('A' for Active; 'I' for Inactive)
REMARK    1  A    between atoms: C_1  and  C_2
REMARK    2  A    between atoms: C_2  and  C_3
REMARK    3  A    between atoms: C_3  and  N_4
REMARK    4  A    between atoms: C_3  and  C_17
REMARK    5  A    between atoms: C_5  and  C_7
REMARK    6  A    between atoms: C_20  and  C_21
REMARK    7  A    between atoms: C_21  and  O_22
REMARK    8  A    between atoms: O_22  and  C_23
REMARK                            x       y       z     vdW  Elec       q    Type
REMARK                         _______ _______ _______ _____ _____    ______ ____
ROOT
ATOM      1  C   UNL     1      47.362   7.762  13.625  0.00  0.00    +0.000 C 
ENDROOT
BRANCH   1   2
ATOM      2  C   UNL     1      46.364   6.825  12.962  0.00  0.00    +0.000 A 
ATOM      3  C   UNL     1      46.496   5.439  13.132  0.00  0.00    +0.000 A 
ATOM      4  C   UNL     1      45.619   4.553  12.499  0.00  0.00    +0.000 A 
ATOM      5  C   UNL     1      44.602   5.037  11.668  0.00  0.00    +0.000 A 
ATOM      6  C   UNL     1      44.450   6.418  11.514  0.00  0.00    +0.000 A 
ATOM      7  C   UNL     1      45.335   7.300  12.134  0.00  0.00    +0.000 A 
BRANCH   5   8
ATOM      8  C   UNL     1      43.720   4.092  10.888  0.00  0.00    +0.000 C 
BRANCH   8   9
ATOM      9  O   UNL     1      43.751   4.404   9.493  0.00  0.00    +0.000 OA
BRANCH   9  10
ATOM     10  C   UNL     1      44.755   3.707   8.844  0.00  0.00    +0.000 A 
ATOM     11  C   UNL     1      44.852   2.361   9.110  0.00  0.00    +0.000 A 
ATOM     12  C   UNL     1      45.853   1.700   8.438  0.00  0.00    +0.000 A 
ATOM     13  N   UNL     1      46.694   2.296   7.574  0.00  0.00    +0.000 NA
ATOM     14  C   UNL     1      46.503   3.612   7.395  0.00  0.00    +0.000 A 
ATOM     15  N   UNL     1      45.571   4.360   7.992  0.00  0.00    +0.000 NA
ENDBRANCH   9  10
ENDBRANCH   8   9
ENDBRANCH   5   8
ENDBRANCH   1   2
BRANCH   1  16
ATOM     16  N   UNL     1      48.253   6.967  14.454  0.00  0.00    +0.000 N 
ATOM     17  C   UNL     1      48.779   7.408  15.639  0.00  0.00    +0.000 C 
ATOM     18  O   UNL     1      48.473   8.493  16.128  0.00  0.00    +0.000 OA
ATOM     19  H   UNL     1      48.624   6.124  14.026  0.00  0.00    +0.000 HD
BRANCH  17  20
ATOM     20  C   UNL     1      49.698   6.492  16.325  0.00  0.00    +0.000 A 
ATOM     21  C   UNL     1      51.003   6.886  16.586  0.00  0.00    +0.000 A 
ATOM     22  S   UNL     1      51.939   5.688  17.358  0.00  0.00    +0.000 S 
ATOM     23  C   UNL     1      50.646   4.583  17.330  0.00  0.00    +0.000 A 
ATOM     24  N   UNL     1      50.802   3.309  17.793  0.00  0.00    +0.000 NA
ATOM     25  C   UNL     1      49.750   2.570  17.675  0.00  0.00    +0.000 A 
ATOM     26  N   UNL     1      48.552   2.992  17.162  0.00  0.00    +0.000 N 
ATOM     27  C   UNL     1      48.329   4.280  16.744  0.00  0.00    +0.000 A 
ATOM     28  O   UNL     1      47.214   4.651  16.393  0.00  0.00    +0.000 OA
ATOM     29  C   UNL     1      49.499   5.140  16.791  0.00  0.00    +0.000 A 
ATOM     30  H   UNL     1      47.756   2.371  17.138  0.00  0.00    +0.000 HD
ENDBRANCH  17  20
ENDBRANCH   1  16
BRANCH   1  32
ATOM     31  C   UNL     1      49.006   7.786  11.670  0.00  0.00    +0.000 C 
ATOM     32  C   UNL     1      48.177   8.623  12.638  0.00  0.00    +0.000 C 
ENDBRANCH   1  32
TORSDOF 7
ENDMDL
MODEL 3
REMARK VINA RESULT:    -7.756      2.055      2.718
REMARK INTER + INTRA:         -11.680
REMARK INTER:                 -10.407
REMARK INTRA:                  -1.273
REMARK UNBOUND:                -0.749
REMARK  Name = 
REMARK  8 active torsions:
REMARK  status: ('A' for Active; 'I' for Inactive)
REMARK    1  A    between atoms: C_1  and  C_2
REMARK    2  A    between atoms: C_2  and  C_3
REMARK    3  A    between atoms: C_3  and  N_4
REMARK    4  A    between atoms: C_3  and  C_17
REMARK    5  A    between atoms: C_5  and  C_7
REMARK    6  A    between atoms: C_20  and  C_21
REMARK    7  A    between atoms: C_21  and  O_22
REMARK    8  A    between atoms: O_22  and  C_23
REMARK                            x       y       z     vdW  Elec       q    Type
REMARK                         _______ _______ _______ _____ _____    ______ ____
ROOT
ATOM      1  C   UNL     1      48.021   7.666  13.546  0.00  0.00    +0.000 C 
ENDROOT
BRANCH   1   2
ATOM      2  C   UNL     1      46.939   6.835  12.874  0.00  0.00    +0.000 A 
ATOM      3  C   UNL     1      46.047   7.449  11.981  0.00  0.00    +0.000 A 
ATOM      4  C   UNL     1      45.016   6.718  11.382  0.00  0.00    +0.000 A 
ATOM      5  C   UNL     1      44.846   5.361  11.679  0.00  0.00    +0.000 A 
ATOM      6  C   UNL     1      45.746   4.738  12.549  0.00  0.00    +0.000 A 
ATOM      7  C   UNL     1      46.765   5.472  13.157  0.00  0.00    +0.000 A 
BRANCH   5   8
ATOM      8  C   UNL     1      43.671   4.586  11.131  0.00  0.00    +0.000 C 
BRANCH   8   9
ATOM      9  O   UNL     1      43.596   4.717   9.710  0.00  0.00    +0.000 OA
BRANCH   9  10
ATOM     10  C   UNL     1      44.525   3.908   9.081  0.00  0.00    +0.000 A 
ATOM     11  C   UNL     1      44.534   2.578   9.433  0.00  0.00    +0.000 A 
ATOM     12  C   UNL     1      45.462   1.803   8.778  0.00  0.00    +0.000 A 
ATOM     13  N   UNL     1      46.313   2.278   7.852  0.00  0.00    +0.000 NA
ATOM     14  C   UNL     1      46.212   3.591   7.591  0.00  0.00    +0.000 A 
ATOM     15  N   UNL     1      45.356   4.442   8.163  0.00  0.00    +0.000 NA
ENDBRANCH   9  10
ENDBRANCH   8   9
ENDBRANCH   5   8
ENDBRANCH   1   2
BRANCH   1  16
ATOM     16  N   UNL     1      47.928   7.462  14.982  0.00  0.00    +0.000 N 
ATOM     17  C   UNL     1      48.653   8.178  15.897  0.00  0.00    +0.000 C 
ATOM     18  O   UNL     1      49.388   9.106  15.569  0.00  0.00    +0.000 OA
ATOM     19  H   UNL     1      47.431   6.628  15.281  0.00  0.00    +0.000 HD
BRANCH  17  20
ATOM     20  C   UNL     1      48.469   7.810  17.306  0.00  0.00    +0.000 A 
ATOM     21  C   UNL     1      48.188   8.790  18.247  0.00  0.00    +0.000 A 
ATOM     22  S   UNL     1      48.040   8.191  19.837  0.00  0.00    +0.000 S 
ATOM     23  C   UNL     1      48.393   6.606  19.330  0.00  0.00    +0.000 A 
ATOM     24  N   UNL     1      48.490   5.586  20.231  0.00  0.00    +0.000 NA
ATOM     25  C   UNL     1      48.801   4.447  19.711  0.00  0.00    +0.000 A 
ATOM     26  N   UNL     1      48.999   4.226  18.374  0.00  0.00    +0.000 N 
ATOM     27  C   UNL     1      48.849   5.206  17.423  0.00  0.00    +0.000 A 
ATOM     28  O   UNL     1      48.926   4.948  16.227  0.00  0.00    +0.000 OA
ATOM     29  C   UNL     1      48.565   6.525  17.959  0.00  0.00    +0.000 A 
ATOM     30  H   UNL     1      49.200   3.299  18.030  0.00  0.00    +0.000 HD
ENDBRANCH  17  20
ENDBRANCH   1  16
BRANCH   1  32
ATOM     31  C   UNL     1      49.658   7.716  11.585  0.00  0.00    +0.000 C 
ATOM     32  C   UNL     1      49.451   7.363  13.054  0.00  0.00    +0.000 C 
ENDBRANCH   1  32
TORSDOF 7
ENDMDL
MODEL 4
REMARK VINA RESULT:    -7.619      2.046      2.845
REMARK INTER + INTRA:         -11.487
REMARK INTER:                 -10.160
REMARK INTRA:                  -1.326
REMARK UNBOUND:                -0.749
REMARK  Name = 
REMARK  8 active torsions:
REMARK  status: ('A' for Active; 'I' for Inactive)
REMARK    1  A    between atoms: C_1  and  C_2
REMARK    2  A    between atoms: C_2  and  C_3
REMARK    3  A    between atoms: C_3  and  N_4
REMARK    4  A    between atoms: C_3  and  C_17
REMARK    5  A    between atoms: C_5  and  C_7
REMARK    6  A    between atoms: C_20  and  C_21
REMARK    7  A    between atoms: C_21  and  O_22
REMARK    8  A    between atoms: O_22  and  C_23
REMARK                            x       y       z     vdW  Elec       q    Type
REMARK                         _______ _______ _______ _____ _____    ______ ____
ROOT
ATOM      1  C   UNL     1      47.319   7.293  13.440  0.00  0.00    +0.000 C 
ENDROOT
BRANCH   1   2
ATOM      2  C   UNL     1      46.473   6.280  12.683  0.00  0.00    +0.000 A 
ATOM      3  C   UNL     1      46.300   4.991  13.209  0.00  0.00    +0.000 A 
ATOM      4  C   UNL     1      45.563   4.027  12.514  0.00  0.00    +0.000 A 
ATOM      5  C   UNL     1      45.001   4.329  11.268  0.00  0.00    +0.000 A 
ATOM      6  C   UNL     1      45.150   5.619  10.750  0.00  0.00    +0.000 A 
ATOM      7  C   UNL     1      45.897   6.575  11.438  0.00  0.00    +0.000 A 
BRANCH   5   8
ATOM      8  C   UNL     1      44.301   3.267  10.453  0.00  0.00    +0.000 C 
BRANCH   8   9
ATOM      9  O   UNL     1      44.326   3.597   9.063  0.00  0.00    +0.000 OA
BRANCH   9  10
ATOM     10  C   UNL     1      45.352   2.940   8.408  0.00  0.00    +0.000 A 
ATOM     11  C   UNL     1      46.145   3.695   7.575  0.00  0.00    +0.000 A 
ATOM     12  C   UNL     1      47.162   3.010   6.952  0.00  0.00    +0.000 A 
ATOM     13  N   UNL     1      47.394   1.697   7.124  0.00  0.00    +0.000 NA
ATOM     14  C   UNL     1      46.555   1.065   7.959  0.00  0.00    +0.000 A 
ATOM     15  N   UNL     1      45.533   1.620   8.616  0.00  0.00    +0.000 NA
ENDBRANCH   9  10
ENDBRANCH   8   9
ENDBRANCH   5   8
ENDBRANCH   1   2
BRANCH   1  16
ATOM     16  N   UNL     1      48.129   6.576  14.412  0.00  0.00    +0.000 N 
ATOM     17  C   UNL     1      48.644   7.155  15.541  0.00  0.00    +0.000 C 
ATOM     18  O   UNL     1      48.394   8.317  15.854  0.00  0.00    +0.000 OA
ATOM     19  H   UNL     1      48.457   5.659  14.126  0.00  0.00    +0.000 HD
BRANCH  17  20
ATOM     20  C   UNL     1      49.477   6.296  16.391  0.00  0.00    +0.000 A 
ATOM     21  C   UNL     1      48.881   5.376  17.242  0.00  0.00    +0.000 A 
ATOM     22  S   UNL     1      49.996   4.488  18.179  0.00  0.00    +0.000 S 
ATOM     23  C   UNL     1      51.313   5.335  17.512  0.00  0.00    +0.000 A 
ATOM     24  N   UNL     1      52.587   5.099  17.939  0.00  0.00    +0.000 NA
ATOM     25  C   UNL     1      53.481   5.839  17.374  0.00  0.00    +0.000 A 
ATOM     26  N   UNL     1      53.224   6.774  16.407  0.00  0.00    +0.000 N 
ATOM     27  C   UNL     1      51.968   7.001  15.900  0.00  0.00    +0.000 A 
ATOM     28  O   UNL     1      51.790   7.766  14.959  0.00  0.00    +0.000 OA
ATOM     29  C   UNL     1      50.912   6.242  16.547  0.00  0.00    +0.000 A 
ATOM     30  H   UNL     1      53.977   7.291  15.978  0.00  0.00    +0.000 HD
ENDBRANCH  17  20
ENDBRANCH   1  16
BRANCH   1  32
ATOM     31  C   UNL     1      49.460   7.437  12.054  0.00  0.00    +0.000 C 
ATOM     32  C   UNL     1      48.215   8.170  12.540  0.00  0.00    +0.000 C 
ENDBRANCH   1  32
TORSDOF 7
ENDMDL
MODEL 5
REMARK VINA RESULT:    -7.612      2.765      3.927
REMARK INTER + INTRA:         -11.476
REMARK INTER:                 -10.067
REMARK INTRA:                  -1.409
REMARK UNBOUND:                -0.749
REMARK  Name = 
REMARK  8 active torsions:
REMARK  status: ('A' for Active; 'I' for Inactive)
REMARK    1  A    between atoms: C_1  and  C_2
REMARK    2  A    between atoms: C_2  and  C_3
REMARK    3  A    between atoms: C_3  and  N_4
REMARK    4  A    between atoms: C_3  and  C_17
REMARK    5  A    between atoms: C_5  and  C_7
REMARK    6  A    between atoms: C_20  and  C_21
REMARK    7  A    between atoms: C_21  and  O_22
REMARK    8  A    between atoms: O_22  and  C_23
REMARK                            x       y       z     vdW  Elec       q    Type
REMARK                         _______ _______ _______ _____ _____    ______ ____
ROOT
ATOM      1  C   UNL     1      47.655   4.751  15.101  0.00  0.00    +0.000 C 
ENDROOT
BRANCH   1   2
ATOM      2  C   UNL     1      46.736   4.774  13.889  0.00  0.00    +0.000 A 
ATOM      3  C   UNL     1      46.253   3.566  13.363  0.00  0.00    +0.000 A 
ATOM      4  C   UNL     1      45.443   3.554  12.224  0.00  0.00    +0.000 A 
ATOM      5  C   UNL     1      45.113   4.751  11.577  0.00  0.00    +0.000 A 
ATOM      6  C   UNL     1      45.571   5.959  12.111  0.00  0.00    +0.000 A 
ATOM      7  C   UNL     1      46.392   5.968  13.239  0.00  0.00    +0.000 A 
BRANCH   5   8
ATOM      8  C   UNL     1      44.336   4.747  10.283  0.00  0.00    +0.000 C 
BRANCH   8   9
ATOM      9  O   UNL     1      44.189   3.416   9.783  0.00  0.00    +0.000 OA
BRANCH   9  10
ATOM     10  C   UNL     1      45.147   3.130   8.827  0.00  0.00    +0.000 A 
ATOM     11  C   UNL     1      45.595   1.831   8.763  0.00  0.00    +0.000 A 
ATOM     12  C   UNL     1      46.538   1.582   7.794  0.00  0.00    +0.000 A 
ATOM     13  N   UNL     1      47.008   2.516   6.949  0.00  0.00    +0.000 NA
ATOM     14  C   UNL     1      46.497   3.748   7.106  0.00  0.00    +0.000 A 
ATOM     15  N   UNL     1      45.584   4.111   8.011  0.00  0.00    +0.000 NA
ENDBRANCH   9  10
ENDBRANCH   8   9
ENDBRANCH   5   8
ENDBRANCH   1   2
BRANCH   1  16
ATOM     16  N   UNL     1      47.732   6.099  15.641  0.00  0.00    +0.000 N 
ATOM     17  C   UNL     1      48.911   6.735  15.921  0.00  0.00    +0.000 C 
ATOM     18  O   UNL     1      50.004   6.234  15.665  0.00  0.00    +0.000 OA
ATOM     19  H   UNL     1      46.859   6.493  15.979  0.00  0.00    +0.000 HD
BRANCH  17  20
ATOM     20  C   UNL     1      48.805   8.079  16.504  0.00  0.00    +0.000 A 
ATOM     21  C   UNL     1      49.268   9.179  15.796  0.00  0.00    +0.000 A 
ATOM     22  S   UNL     1      49.097  10.654  16.635  0.00  0.00    +0.000 S 
ATOM     23  C   UNL     1      48.439   9.867  17.993  0.00  0.00    +0.000 A 
ATOM     24  N   UNL     1      48.122  10.564  19.122  0.00  0.00    +0.000 NA
ATOM     25  C   UNL     1      47.668   9.835  20.085  0.00  0.00    +0.000 A 
ATOM     26  N   UNL     1      47.479   8.480  20.018  0.00  0.00    +0.000 N 
ATOM     27  C   UNL     1      47.724   7.746  18.883  0.00  0.00    +0.000 A 
ATOM     28  O   UNL     1      47.440   6.555  18.822  0.00  0.00    +0.000 OA
ATOM     29  C   UNL     1      48.299   8.506  17.787  0.00  0.00    +0.000 A 
ATOM     30  H   UNL     1      47.082   7.976  20.796  0.00  0.00    +0.000 HD
ENDBRANCH  17  20
ENDBRANCH   1  16
BRANCH   1  32
ATOM     31  C   UNL     1      48.414   3.154  16.946  0.00  0.00    +0.000 C 
ATOM     32  C   UNL     1      47.227   3.759  16.203  0.00  0.00    +0.000 C 
ENDBRANCH   1  32
TORSDOF 7
ENDMDL
MODEL 6
REMARK VINA RESULT:    -6.948      3.510      7.371
REMARK INTER + INTRA:         -10.541
REMARK INTER:                  -9.265
REMARK INTRA:                  -1.276
REMARK UNBOUND:                -0.749
REMARK  Name = 
REMARK  8 active torsions:
REMARK  status: ('A' for Active; 'I' for Inactive)
REMARK    1  A    between atoms: C_1  and  C_2
REMARK    2  A    between atoms: C_2  and  C_3
REMARK    3  A    between atoms: C_3  and  N_4
REMARK    4  A    between atoms: C_3  and  C_17
REMARK    5  A    between atoms: C_5  and  C_7
REMARK    6  A    between atoms: C_20  and  C_21
REMARK    7  A    between atoms: C_21  and  O_22
REMARK    8  A    between atoms: O_22  and  C_23
REMARK                            x       y       z     vdW  Elec       q    Type
REMARK                         _______ _______ _______ _____ _____    ______ ____
ROOT
ATOM      1  C   UNL     1      49.200   8.588  14.289  0.00  0.00    +0.000 C 
ENDROOT
BRANCH   1   2
ATOM      2  C   UNL     1      49.535   7.827  15.564  0.00  0.00    +0.000 A 
ATOM      3  C   UNL     1      50.729   7.094  15.640  0.00  0.00    +0.000 A 
ATOM      4  C   UNL     1      51.042   6.352  16.782  0.00  0.00    +0.000 A 
ATOM      5  C   UNL     1      50.156   6.313  17.865  0.00  0.00    +0.000 A 
ATOM      6  C   UNL     1      48.977   7.061  17.805  0.00  0.00    +0.000 A 
ATOM      7  C   UNL     1      48.659   7.790  16.659  0.00  0.00    +0.000 A 
BRANCH   5   8
ATOM      8  C   UNL     1      50.425   5.426  19.058  0.00  0.00    +0.000 C 
BRANCH   8   9
ATOM      9  O   UNL     1      49.393   4.448  19.205  0.00  0.00    +0.000 OA
BRANCH   9  10
ATOM     10  C   UNL     1      49.420   3.529  18.172  0.00  0.00    +0.000 A 
ATOM     11  C   UNL     1      50.605   2.862  17.961  0.00  0.00    +0.000 A 
ATOM     12  C   UNL     1      50.590   1.948  16.934  0.00  0.00    +0.000 A 
ATOM     13  N   UNL     1      49.511   1.697  16.172  0.00  0.00    +0.000 NA
ATOM     14  C   UNL     1      48.413   2.408  16.470  0.00  0.00    +0.000 A 
ATOM     15  N   UNL     1      48.307   3.323  17.438  0.00  0.00    +0.000 NA
ENDBRANCH   9  10
ENDBRANCH   8   9
ENDBRANCH   5   8
ENDBRANCH   1   2
BRANCH   1  16
ATOM     16  N   UNL     1      47.973   8.036  13.738  0.00  0.00    +0.000 N 
ATOM     17  C   UNL     1      47.927   6.881  13.004  0.00  0.00    +0.000 C 
ATOM     18  O   UNL     1      48.920   6.181  12.819  0.00  0.00    +0.000 OA
ATOM     19  H   UNL     1      47.161   8.645  13.762  0.00  0.00    +0.000 HD
BRANCH  17  20
ATOM     20  C   UNL     1      46.610   6.491  12.484  0.00  0.00    +0.000 A 
ATOM     21  C   UNL     1      45.783   7.446  11.909  0.00  0.00    +0.000 A 
ATOM     22  S   UNL     1      44.281   6.826  11.390  0.00  0.00    +0.000 S 
ATOM     23  C   UNL     1      44.665   5.270  11.959  0.00  0.00    +0.000 A 
ATOM     24  N   UNL     1      43.761   4.251  11.880  0.00  0.00    +0.000 NA
ATOM     25  C   UNL     1      44.173   3.136  12.384  0.00  0.00    +0.000 A 
ATOM     26  N   UNL     1      45.411   2.938  12.934  0.00  0.00    +0.000 N 
ATOM     27  C   UNL     1      46.377   3.914  12.977  0.00  0.00    +0.000 A 
ATOM     28  O   UNL     1      47.510   3.671  13.377  0.00  0.00    +0.000 OA
ATOM     29  C   UNL     1      45.944   5.210  12.484  0.00  0.00    +0.000 A 
ATOM     30  H   UNL     1      45.684   2.027  13.273  0.00  0.00    +0.000 HD
ENDBRANCH  17  20
ENDBRANCH   1  16
BRANCH   1  32
ATOM     31  C   UNL     1      50.328  10.756  15.033  0.00  0.00    +0.000 C 
ATOM     32  C   UNL     1      49.061  10.113  14.479  0.00  0.00    +0.000 C 
ENDBRANCH   1  32
TORSDOF 7
ENDMDL
MODEL 7
REMARK VINA RESULT:    -6.801      4.402      8.548
REMARK INTER + INTRA:         -10.334
REMARK INTER:                  -9.315
REMARK INTRA:                  -1.018
REMARK UNBOUND:                -0.749
REMARK  Name = 
REMARK  8 active torsions:
REMARK  status: ('A' for Active; 'I' for Inactive)
REMARK    1  A    between atoms: C_1  and  C_2
REMARK    2  A    between atoms: C_2  and  C_3
REMARK    3  A    between atoms: C_3  and  N_4
REMARK    4  A    between atoms: C_3  and  C_17
REMARK    5  A    between atoms: C_5  and  C_7
REMARK    6  A    between atoms: C_20  and  C_21
REMARK    7  A    between atoms: C_21  and  O_22
REMARK    8  A    between atoms: O_22  and  C_23
REMARK                            x       y       z     vdW  Elec       q    Type
REMARK                         _______ _______ _______ _____ _____    ______ ____
ROOT
ATOM      1  C   UNL     1      48.517   5.958  17.766  0.00  0.00    +0.000 C 
ENDROOT
BRANCH   1   2
ATOM      2  C   UNL     1      49.653   4.946  17.790  0.00  0.00    +0.000 A 
ATOM      3  C   UNL     1      50.956   5.375  18.082  0.00  0.00    +0.000 A 
ATOM      4  C   UNL     1      52.026   4.475  18.070  0.00  0.00    +0.000 A 
ATOM      5  C   UNL     1      51.814   3.129  17.747  0.00  0.00    +0.000 A 
ATOM      6  C   UNL     1      50.514   2.692  17.479  0.00  0.00    +0.000 A 
ATOM      7  C   UNL     1      49.450   3.594  17.477  0.00  0.00    +0.000 A 
BRANCH   5   8
ATOM      8  C   UNL     1      52.973   2.169  17.617  0.00  0.00    +0.000 C 
BRANCH   8   9
ATOM      9  O   UNL     1      52.507   0.846  17.346  0.00  0.00    +0.000 OA
BRANCH   9  10
ATOM     10  C   UNL     1      53.499  -0.092  17.568  0.00  0.00    +0.000 A 
ATOM     11  C   UNL     1      54.346  -0.365  16.519  0.00  0.00    +0.000 A 
ATOM     12  C   UNL     1      55.327  -1.292  16.781  0.00  0.00    +0.000 A 
ATOM     13  N   UNL     1      55.478  -1.906  17.968  0.00  0.00    +0.000 NA
ATOM     14  C   UNL     1      54.593  -1.560  18.916  0.00  0.00    +0.000 A 
ATOM     15  N   UNL     1      53.598  -0.678  18.778  0.00  0.00    +0.000 NA
ENDBRANCH   9  10
ENDBRANCH   8   9
ENDBRANCH   5   8
ENDBRANCH   1   2
BRANCH   1  16
ATOM     16  N   UNL     1      47.885   5.904  16.457  0.00  0.00    +0.000 N 
ATOM     17  C   UNL     1      48.500   6.312  15.303  0.00  0.00    +0.000 C 
ATOM     18  O   UNL     1      49.669   6.690  15.282  0.00  0.00    +0.000 OA
ATOM     19  H   UNL     1      46.887   5.718  16.453  0.00  0.00    +0.000 HD
BRANCH  17  20
ATOM     20  C   UNL     1      47.700   6.230  14.075  0.00  0.00    +0.000 A 
ATOM     21  C   UNL     1      47.495   7.367  13.305  0.00  0.00    +0.000 A 
ATOM     22  S   UNL     1      46.516   7.098  11.935  0.00  0.00    +0.000 S 
ATOM     23  C   UNL     1      46.294   5.463  12.348  0.00  0.00    +0.000 A 
ATOM     24  N   UNL     1      45.486   4.655  11.602  0.00  0.00    +0.000 NA
ATOM     25  C   UNL     1      45.380   3.450  12.053  0.00  0.00    +0.000 A 
ATOM     26  N   UNL     1      46.024   2.971  13.162  0.00  0.00    +0.000 N 
ATOM     27  C   UNL     1      46.896   3.727  13.906  0.00  0.00    +0.000 A 
ATOM     28  O   UNL     1      47.539   3.236  14.827  0.00  0.00    +0.000 OA
ATOM     29  C   UNL     1      47.003   5.113  13.483  0.00  0.00    +0.000 A 
ATOM     30  H   UNL     1      45.928   2.004  13.436  0.00  0.00    +0.000 HD
ENDBRANCH  17  20
ENDBRANCH   1  16
BRANCH   1  32
ATOM     31  C   UNL     1      47.590   6.779  20.000  0.00  0.00    +0.000 C 
ATOM     32  C   UNL     1      47.464   5.757  18.876  0.00  0.00    +0.000 C 
ENDBRANCH   1  32
TORSDOF 7
ENDMDL
MODEL 8
REMARK VINA RESULT:    -6.500      4.757      7.018
REMARK INTER + INTRA:          -9.910
REMARK INTER:                  -8.520
REMARK INTRA:                  -1.390
REMARK UNBOUND:                -0.749
REMARK  Name = 
REMARK  8 active torsions:
REMARK  status: ('A' for Active; 'I' for Inactive)
REMARK    1  A    between atoms: C_1  and  C_2
REMARK    2  A    between atoms: C_2  and  C_3
REMARK    3  A    between atoms: C_3  and  N_4
REMARK    4  A    between atoms: C_3  and  C_17
REMARK    5  A    between atoms: C_5  and  C_7
REMARK    6  A    between atoms: C_20  and  C_21
REMARK    7  A    between atoms: C_21  and  O_22
REMARK    8  A    between atoms: O_22  and  C_23
REMARK                            x       y       z     vdW  Elec       q    Type
REMARK                         _______ _______ _______ _____ _____    ______ ____
ROOT
ATOM      1  C   UNL     1      47.857   7.626  13.196  0.00  0.00    +0.000 C 
ENDROOT
BRANCH   1   2
ATOM      2  C   UNL     1      49.022   8.194  12.400  0.00  0.00    +0.000 A 
ATOM      3  C   UNL     1      49.039   9.559  12.074  0.00  0.00    +0.000 A 
ATOM      4  C   UNL     1      50.075  10.100  11.307  0.00  0.00    +0.000 A 
ATOM      5  C   UNL     1      51.107   9.281  10.835  0.00  0.00    +0.000 A 
ATOM      6  C   UNL     1      51.108   7.925  11.176  0.00  0.00    +0.000 A 
ATOM      7  C   UNL     1      50.066   7.384  11.929  0.00  0.00    +0.000 A 
BRANCH   5   8
ATOM      8  C   UNL     1      52.171   9.825   9.911  0.00  0.00    +0.000 C 
BRANCH   8   9
ATOM      9  O   UNL     1      53.221   8.872   9.730  0.00  0.00    +0.000 OA
BRANCH   9  10
ATOM     10  C   UNL     1      53.208   8.347   8.450  0.00  0.00    +0.000 A 
ATOM     11  C   UNL     1      52.957   9.223   7.419  0.00  0.00    +0.000 A 
ATOM     12  C   UNL     1      52.964   8.667   6.161  0.00  0.00    +0.000 A 
ATOM     13  N   UNL     1      53.200   7.365   5.920  0.00  0.00    +0.000 NA
ATOM     14  C   UNL     1      53.432   6.608   7.004  0.00  0.00    +0.000 A 
ATOM     15  N   UNL     1      53.447   7.032   8.271  0.00  0.00    +0.000 NA
ENDBRANCH   9  10
ENDBRANCH   8   9
ENDBRANCH   5   8
ENDBRANCH   1   2
BRANCH   1  16
ATOM     16  N   UNL     1      47.222   6.589  12.399  0.00  0.00    +0.000 N 
ATOM     17  C   UNL     1      46.135   6.811  11.596  0.00  0.00    +0.000 C 
ATOM     18  O   UNL     1      45.658   7.932  11.433  0.00  0.00    +0.000 OA
ATOM     19  H   UNL     1      47.507   5.635  12.602  0.00  0.00    +0.000 HD
BRANCH  17  20
ATOM     20  C   UNL     1      45.593   5.641  10.895  0.00  0.00    +0.000 A 
ATOM     21  C   UNL     1      45.702   5.548   9.514  0.00  0.00    +0.000 A 
ATOM     22  S   UNL     1      44.989   4.142   8.864  0.00  0.00    +0.000 S 
ATOM     23  C   UNL     1      44.468   3.630  10.401  0.00  0.00    +0.000 A 
ATOM     24  N   UNL     1      43.723   2.497  10.547  0.00  0.00    +0.000 NA
ATOM     25  C   UNL     1      43.366   2.251  11.763  0.00  0.00    +0.000 A 
ATOM     26  N   UNL     1      43.705   3.016  12.847  0.00  0.00    +0.000 N 
ATOM     27  C   UNL     1      44.506   4.128  12.758  0.00  0.00    +0.000 A 
ATOM     28  O   UNL     1      44.879   4.726  13.761  0.00  0.00    +0.000 OA
ATOM     29  C   UNL     1      44.882   4.491  11.403  0.00  0.00    +0.000 A 
ATOM     30  H   UNL     1      43.426   2.742  13.778  0.00  0.00    +0.000 HD
ENDBRANCH  17  20
ENDBRANCH   1  16
BRANCH   1  32
ATOM     31  C   UNL     1      48.885   8.124  15.481  0.00  0.00    +0.000 C 
ATOM     32  C   UNL     1      48.246   7.071  14.582  0.00  0.00    +0.000 C 
ENDBRANCH   1  32
TORSDOF 7
ENDMDL
MODEL 9
REMARK VINA RESULT:    -6.474      3.682      7.949
REMARK INTER + INTRA:          -9.873
REMARK INTER:                  -8.440
REMARK INTRA:                  -1.433
REMARK UNBOUND:                -0.749
REMARK  Name = 
REMARK  8 active torsions:
REMARK  status: ('A' for Active; 'I' for Inactive)
REMARK    1  A    between atoms: C_1  and  C_2
REMARK    2  A    between atoms: C_2  and  C_3
REMARK    3  A    between atoms: C_3  and  N_4
REMARK    4  A    between atoms: C_3  and  C_17
REMARK    5  A    between atoms: C_5  and  C_7
REMARK    6  A    between atoms: C_20  and  C_21
REMARK    7  A    between atoms: C_21  and  O_22
REMARK    8  A    between atoms: O_22  and  C_23
REMARK                            x       y       z     vdW  Elec       q    Type
REMARK                         _______ _______ _______ _____ _____    ______ ____
ROOT
ATOM      1  C   UNL     1      48.450   7.652  14.634  0.00  0.00    +0.000 C 
ENDROOT
BRANCH   1   2
ATOM      2  C   UNL     1      48.981   6.641  15.639  0.00  0.00    +0.000 A 
ATOM      3  C   UNL     1      50.300   6.753  16.104  0.00  0.00    +0.000 A 
ATOM      4  C   UNL     1      50.828   5.813  16.995  0.00  0.00    +0.000 A 
ATOM      5  C   UNL     1      50.050   4.731  17.425  0.00  0.00    +0.000 A 
ATOM      6  C   UNL     1      48.728   4.628  16.984  0.00  0.00    +0.000 A 
ATOM      7  C   UNL     1      48.208   5.559  16.084  0.00  0.00    +0.000 A 
BRANCH   5   8
ATOM      8  C   UNL     1      50.640   3.647  18.294  0.00  0.00    +0.000 C 
BRANCH   8   9
ATOM      9  O   UNL     1      52.022   3.900  18.554  0.00  0.00    +0.000 OA
BRANCH   9  10
ATOM     10  C   UNL     1      52.822   2.890  18.049  0.00  0.00    +0.000 A 
ATOM     11  C   UNL     1      54.133   3.209  17.781  0.00  0.00    +0.000 A 
ATOM     12  C   UNL     1      54.900   2.177  17.292  0.00  0.00    +0.000 A 
ATOM     13  N   UNL     1      54.434   0.933  17.083  0.00  0.00    +0.000 NA
ATOM     14  C   UNL     1      53.140   0.741  17.382  0.00  0.00    +0.000 A 
ATOM     15  N   UNL     1      52.297   1.663  17.856  0.00  0.00    +0.000 NA
ENDBRANCH   9  10
ENDBRANCH   8   9
ENDBRANCH   5   8
ENDBRANCH   1   2
BRANCH   1  16
ATOM     16  N   UNL     1      47.257   7.098  14.016  0.00  0.00    +0.000 N 
ATOM     17  C   UNL     1      47.040   7.090  12.664  0.00  0.00    +0.000 C 
ATOM     18  O   UNL     1      47.881   7.491  11.863  0.00  0.00    +0.000 OA
ATOM     19  H   UNL     1      46.493   6.875  14.646  0.00  0.00    +0.000 HD
BRANCH  17  20
ATOM     20  C   UNL     1      45.760   6.531  12.213  0.00  0.00    +0.000 A 
ATOM     21  C   UNL     1      44.805   7.361  11.640  0.00  0.00    +0.000 A 
ATOM     22  S   UNL     1      43.368   6.552  11.206  0.00  0.00    +0.000 S 
ATOM     23  C   UNL     1      43.953   5.074  11.811  0.00  0.00    +0.000 A 
ATOM     24  N   UNL     1      43.172   3.955  11.805  0.00  0.00    +0.000 NA
ATOM     25  C   UNL     1      43.730   2.916  12.329  0.00  0.00    +0.000 A 
ATOM     26  N   UNL     1      45.002   2.884  12.834  0.00  0.00    +0.000 N 
ATOM     27  C   UNL     1      45.848   3.966  12.803  0.00  0.00    +0.000 A 
ATOM     28  O   UNL     1      47.015   3.871  13.164  0.00  0.00    +0.000 OA
ATOM     29  C   UNL     1      45.248   5.183  12.285  0.00  0.00    +0.000 A 
ATOM     30  H   UNL     1      45.392   2.025  13.193  0.00  0.00    +0.000 HD
ENDBRANCH  17  20
ENDBRANCH   1  16
BRANCH   1  32
ATOM     31  C   UNL     1      48.959  10.156  14.582  0.00  0.00    +0.000 C 
ATOM     32  C   UNL     1      48.146   9.041  15.233  0.00  0.00    +0.000 C 
ENDBRANCH   1  32
TORSDOF 7
ENDMDL
