MODEL 1
REMARK VINA RESULT:    -7.694      0.000      0.000
REMARK INTER + INTRA:         -10.757
REMARK INTER:                 -10.168
REMARK INTRA:                  -0.588
REMARK UNBOUND:                -0.588
REMARK  Name = 
REMARK  6 active torsions:
REMARK  status: ('A' for Active; 'I' for Inactive)
REMARK    1  A    between atoms: N_1  and  C_2
REMARK    2  A    between atoms: C_2  and  C_3
REMARK    3  A    between atoms: C_3  and  C_4
REMARK    4  A    between atoms: C_7  and  C_8
REMARK    5  A    between atoms: C_8  and  N_9
REMARK    6  A    between atoms: C_14  and  C_15
REMARK                            x       y       z     vdW  Elec       q    Type
REMARK                         _______ _______ _______ _____ _____    ______ ____
ROOT
ATOM      1  N   UNL     1      43.891   4.388  10.764  0.00  0.00    +0.000 N 
ATOM      2  C   UNL     1      43.385   3.275  11.394  0.00  0.00    +0.000 A 
ATOM      3  C   UNL     1      43.903   2.161  10.774  0.00  0.00    +0.000 A 
ATOM      4  C   UNL     1      44.745   2.605   9.721  0.00  0.00    +0.000 A 
ATOM      5  C   UNL     1      45.507   1.935   8.740  0.00  0.00    +0.000 A 
ATOM      6  C   UNL     1      46.244   2.670   7.796  0.00  0.00    +0.000 A 
ATOM      7  C   UNL     1      46.225   4.070   7.850  0.00  0.00    +0.000 A 
ATOM      8  C   UNL     1      45.481   4.756   8.818  0.00  0.00    +0.000 A 
ATOM      9  C   UNL     1      44.738   4.002   9.738  0.00  0.00    +0.000 A 
ENDROOT
BRANCH   6  10
ATOM     10  C   UNL     1      47.044   1.969   6.727  0.00  0.00    +0.000 C 
ATOM     11  F   UNL     1      46.804   0.628   6.653  0.00  0.00    +0.000 F 
ATOM     12  F   UNL     1      46.792   2.457   5.480  0.00  0.00    +0.000 F 
ATOM     13  F   UNL     1      48.388   2.095   6.909  0.00  0.00    +0.000 F 
ENDBRANCH   6  10
BRANCH   1  14
ATOM     14  C   UNL     1      43.436   5.748  11.024  0.00  0.00    +0.000 C 
BRANCH  14  18
ATOM     15  C   UNL     1      46.555   8.092  12.765  0.00  0.00    +0.000 A 
ATOM     16  C   UNL     1      45.599   8.717  11.963  0.00  0.00    +0.000 A 
ATOM     17  C   UNL     1      44.550   7.973  11.424  0.00  0.00    +0.000 A 
ATOM     18  C   UNL     1      44.480   6.606  11.690  0.00  0.00    +0.000 A 
ATOM     19  N   UNL     1      45.387   5.982  12.483  0.00  0.00    +0.000 NA
ATOM     20  C   UNL     1      46.382   6.735  13.011  0.00  0.00    +0.000 A 
BRANCH  15  21
ATOM     21  C   UNL     1      47.715   8.859  13.347  0.00  0.00    +0.000 C 
BRANCH  21  22
ATOM     22  C   UNL     1      48.114   8.367  14.747  0.00  0.00    +0.000 C 
BRANCH  22  23
ATOM     23  N   UNL     1      47.560   9.227  15.791  0.00  0.00    +0.000 NA
ATOM     24  H   UNL     1      47.176  10.070  15.363  0.00  0.00    +0.000 HD
ATOM     25  H   UNL     1      48.305   9.543  16.412  0.00  0.00    +0.000 HD
ENDBRANCH  22  23
ENDBRANCH  21  22
ENDBRANCH  15  21
ENDBRANCH  14  18
ENDBRANCH   1  14
TORSDOF 6
ENDMDL
MODEL 2
REMARK VINA RESULT:    -7.687      3.855      7.037
REMARK INTER + INTRA:         -10.747
REMARK INTER:                 -10.050
REMARK INTRA:                  -0.697
REMARK UNBOUND:                -0.588
REMARK  Name = 
REMARK  6 active torsions:
REMARK  status: ('A' for Active; 'I' for Inactive)
REMARK    1  A    between atoms: N_1  and  C_2
REMARK    2  A    between atoms: C_2  and  C_3
REMARK    3  A    between atoms: C_3  and  C_4
REMARK    4  A    between atoms: C_7  and  C_8
REMARK    5  A    between atoms: C_8  and  N_9
REMARK    6  A    between atoms: C_14  and  C_15
REMARK                            x       y       z     vdW  Elec       q    Type
REMARK                         _______ _______ _______ _____ _____    ______ ____
ROOT
ATOM      1  N   UNL     1      44.376   4.919  11.584  0.00  0.00    +0.000 N 
ATOM      2  C   UNL     1      43.966   4.184  12.671  0.00  0.00    +0.000 A 
ATOM      3  C   UNL     1      44.850   4.415  13.700  0.00  0.00    +0.000 A 
ATOM      4  C   UNL     1      45.843   5.312  13.224  0.00  0.00    +0.000 A 
ATOM      5  C   UNL     1      47.000   5.874  13.803  0.00  0.00    +0.000 A 
ATOM      6  C   UNL     1      47.815   6.739  13.053  0.00  0.00    +0.000 A 
ATOM      7  C   UNL     1      47.457   7.046  11.733  0.00  0.00    +0.000 A 
ATOM      8  C   UNL     1      46.310   6.505  11.140  0.00  0.00    +0.000 A 
ATOM      9  C   UNL     1      45.522   5.629  11.902  0.00  0.00    +0.000 A 
ENDROOT
BRANCH   6  10
ATOM     10  C   UNL     1      49.068   7.329  13.650  0.00  0.00    +0.000 C 
ATOM     11  F   UNL     1      49.527   6.652  14.741  0.00  0.00    +0.000 F 
ATOM     12  F   UNL     1      50.106   7.353  12.768  0.00  0.00    +0.000 F 
ATOM     13  F   UNL     1      48.899   8.618  14.058  0.00  0.00    +0.000 F 
ENDBRANCH   6  10
BRANCH   1  14
ATOM     14  C   UNL     1      43.794   4.797  10.252  0.00  0.00    +0.000 C 
BRANCH  14  18
ATOM     15  C   UNL     1      46.153   2.200   7.815  0.00  0.00    +0.000 A 
ATOM     16  C   UNL     1      45.343   1.651   8.810  0.00  0.00    +0.000 A 
ATOM     17  C   UNL     1      44.533   2.483   9.583  0.00  0.00    +0.000 A 
ATOM     18  C   UNL     1      44.557   3.858   9.355  0.00  0.00    +0.000 A 
ATOM     19  N   UNL     1      45.322   4.410   8.379  0.00  0.00    +0.000 NA
ATOM     20  C   UNL     1      46.080   3.575   7.629  0.00  0.00    +0.000 A 
BRANCH  15  21
ATOM     21  C   UNL     1      47.056   1.336   6.973  0.00  0.00    +0.000 C 
BRANCH  21  22
ATOM     22  C   UNL     1      48.331   2.064   6.521  0.00  0.00    +0.000 C 
BRANCH  22  23
ATOM     23  N   UNL     1      48.357   2.240   5.070  0.00  0.00    +0.000 NA
ATOM     24  H   UNL     1      49.306   2.468   4.776  0.00  0.00    +0.000 HD
ATOM     25  H   UNL     1      47.782   3.040   4.807  0.00  0.00    +0.000 HD
ENDBRANCH  22  23
ENDBRANCH  21  22
ENDBRANCH  15  21
ENDBRANCH  14  18
ENDBRANCH   1  14
TORSDOF 6
ENDMDL
MODEL 3
REMARK VINA RESULT:    -7.677      4.170      7.305
REMARK INTER + INTRA:         -10.733
REMARK INTER:                 -10.186
REMARK INTRA:                  -0.547
REMARK UNBOUND:                -0.588
REMARK  Name = 
REMARK  6 active torsions:
REMARK  status: ('A' for Active; 'I' for Inactive)
REMARK    1  A    between atoms: N_1  and  C_2
REMARK    2  A    between atoms: C_2  and  C_3
REMARK    3  A    between atoms: C_3  and  C_4
REMARK    4  A    between atoms: C_7  and  C_8
REMARK    5  A    between atoms: C_8  and  N_9
REMARK    6  A    between atoms: C_14  and  C_15
REMARK                            x       y       z     vdW  Elec       q    Type
REMARK                         _______ _______ _______ _____ _____    ______ ____
ROOT
ATOM      1  N   UNL     1      44.661   5.536  11.195  0.00  0.00    +0.000 N 
ATOM      2  C   UNL     1      44.731   6.908  11.264  0.00  0.00    +0.000 A 
ATOM      3  C   UNL     1      45.486   7.242  12.365  0.00  0.00    +0.000 A 
ATOM      4  C   UNL     1      45.882   6.035  13.000  0.00  0.00    +0.000 A 
ATOM      5  C   UNL     1      46.626   5.751  14.164  0.00  0.00    +0.000 A 
ATOM      6  C   UNL     1      46.842   4.418  14.555  0.00  0.00    +0.000 A 
ATOM      7  C   UNL     1      46.325   3.380  13.768  0.00  0.00    +0.000 A 
ATOM      8  C   UNL     1      45.589   3.638  12.605  0.00  0.00    +0.000 A 
ATOM      9  C   UNL     1      45.370   4.977  12.245  0.00  0.00    +0.000 A 
ENDROOT
BRANCH   6  10
ATOM     10  C   UNL     1      47.614   4.098  15.810  0.00  0.00    +0.000 C 
ATOM     11  F   UNL     1      48.616   4.984  16.079  0.00  0.00    +0.000 F 
ATOM     12  F   UNL     1      46.825   4.088  16.921  0.00  0.00    +0.000 F 
ATOM     13  F   UNL     1      48.206   2.872  15.765  0.00  0.00    +0.000 F 
ENDBRANCH   6  10
BRANCH   1  14
ATOM     14  C   UNL     1      43.802   4.810  10.267  0.00  0.00    +0.000 C 
BRANCH  14  18
ATOM     15  C   UNL     1      46.162   2.277   7.763  0.00  0.00    +0.000 A 
ATOM     16  C   UNL     1      45.347   1.702   8.739  0.00  0.00    +0.000 A 
ATOM     17  C   UNL     1      44.537   2.514   9.534  0.00  0.00    +0.000 A 
ATOM     18  C   UNL     1      44.565   3.895   9.345  0.00  0.00    +0.000 A 
ATOM     19  N   UNL     1      45.336   4.472   8.389  0.00  0.00    +0.000 NA
ATOM     20  C   UNL     1      46.094   3.658   7.617  0.00  0.00    +0.000 A 
BRANCH  15  21
ATOM     21  C   UNL     1      47.066   1.435   6.899  0.00  0.00    +0.000 C 
BRANCH  21  22
ATOM     22  C   UNL     1      48.320   2.189   6.433  0.00  0.00    +0.000 C 
BRANCH  22  23
ATOM     23  N   UNL     1      48.275   2.457   4.996  0.00  0.00    +0.000 NA
ATOM     24  H   UNL     1      48.706   1.681   4.495  0.00  0.00    +0.000 HD
ATOM     25  H   UNL     1      48.839   3.279   4.779  0.00  0.00    +0.000 HD
ENDBRANCH  22  23
ENDBRANCH  21  22
ENDBRANCH  15  21
ENDBRANCH  14  18
ENDBRANCH   1  14
TORSDOF 6
ENDMDL
MODEL 4
REMARK VINA RESULT:    -7.409      4.059      7.409
REMARK INTER + INTRA:         -10.379
REMARK INTER:                  -9.740
REMARK INTRA:                  -0.639
REMARK UNBOUND:                -0.588
REMARK  Name = 
REMARK  6 active torsions:
REMARK  status: ('A' for Active; 'I' for Inactive)
REMARK    1  A    between atoms: N_1  and  C_2
REMARK    2  A    between atoms: C_2  and  C_3
REMARK    3  A    between atoms: C_3  and  C_4
REMARK    4  A    between atoms: C_7  and  C_8
REMARK    5  A    between atoms: C_8  and  N_9
REMARK    6  A    between atoms: C_14  and  C_15
REMARK                            x       y       z     vdW  Elec       q    Type
REMARK                         _______ _______ _______ _____ _____    ______ ____
ROOT
ATOM      1  N   UNL     1      44.598   6.211  11.327  0.00  0.00    +0.000 N 
ATOM      2  C   UNL     1      44.366   7.536  11.041  0.00  0.00    +0.000 A 
ATOM      3  C   UNL     1      45.240   8.294  11.787  0.00  0.00    +0.000 A 
ATOM      4  C   UNL     1      46.026   7.405  12.566  0.00  0.00    +0.000 A 
ATOM      5  C   UNL     1      47.044   7.597  13.523  0.00  0.00    +0.000 A 
ATOM      6  C   UNL     1      47.637   6.488  14.153  0.00  0.00    +0.000 A 
ATOM      7  C   UNL     1      47.217   5.197  13.808  0.00  0.00    +0.000 A 
ATOM      8  C   UNL     1      46.213   4.983  12.856  0.00  0.00    +0.000 A 
ATOM      9  C   UNL     1      45.622   6.104  12.254  0.00  0.00    +0.000 A 
ENDROOT
BRANCH   6  10
ATOM     10  C   UNL     1      48.710   6.678  15.197  0.00  0.00    +0.000 C 
ATOM     11  F   UNL     1      48.519   7.773  15.987  0.00  0.00    +0.000 F 
ATOM     12  F   UNL     1      48.801   5.620  16.051  0.00  0.00    +0.000 F 
ATOM     13  F   UNL     1      49.950   6.825  14.654  0.00  0.00    +0.000 F 
ENDBRANCH   6  10
BRANCH   1  14
ATOM     14  C   UNL     1      43.752   5.117  10.866  0.00  0.00    +0.000 C 
BRANCH  14  18
ATOM     15  C   UNL     1      45.903   2.608   8.157  0.00  0.00    +0.000 A 
ATOM     16  C   UNL     1      45.114   2.023   9.149  0.00  0.00    +0.000 A 
ATOM     17  C   UNL     1      44.371   2.828  10.012  0.00  0.00    +0.000 A 
ATOM     18  C   UNL     1      44.439   4.214   9.874  0.00  0.00    +0.000 A 
ATOM     19  N   UNL     1      45.183   4.803   8.904  0.00  0.00    +0.000 NA
ATOM     20  C   UNL     1      45.876   3.995   8.066  0.00  0.00    +0.000 A 
BRANCH  15  21
ATOM     21  C   UNL     1      46.735   1.771   7.220  0.00  0.00    +0.000 C 
BRANCH  21  22
ATOM     22  C   UNL     1      47.992   2.501   6.723  0.00  0.00    +0.000 C 
BRANCH  22  23
ATOM     23  N   UNL     1      48.542   1.858   5.530  0.00  0.00    +0.000 NA
ATOM     24  H   UNL     1      48.120   0.937   5.420  0.00  0.00    +0.000 HD
ATOM     25  H   UNL     1      49.542   1.696   5.654  0.00  0.00    +0.000 HD
ENDBRANCH  22  23
ENDBRANCH  21  22
ENDBRANCH  15  21
ENDBRANCH  14  18
ENDBRANCH   1  14
TORSDOF 6
ENDMDL
MODEL 5
REMARK VINA RESULT:    -6.123      4.717      7.950
REMARK INTER + INTRA:          -8.680
REMARK INTER:                  -8.397
REMARK INTRA:                  -0.282
REMARK UNBOUND:                -0.588
REMARK  Name = 
REMARK  6 active torsions:
REMARK  status: ('A' for Active; 'I' for Inactive)
REMARK    1  A    between atoms: N_1  and  C_2
REMARK    2  A    between atoms: C_2  and  C_3
REMARK    3  A    between atoms: C_3  and  C_4
REMARK    4  A    between atoms: C_7  and  C_8
REMARK    5  A    between atoms: C_8  and  N_9
REMARK    6  A    between atoms: C_14  and  C_15
REMARK                            x       y       z     vdW  Elec       q    Type
REMARK                         _______ _______ _______ _____ _____    ______ ____
ROOT
ATOM      1  N   UNL     1      45.997   5.756  12.796  0.00  0.00    +0.000 N 
ATOM      2  C   UNL     1      46.466   6.971  12.356  0.00  0.00    +0.000 A 
ATOM      3  C   UNL     1      47.478   7.369  13.199  0.00  0.00    +0.000 A 
ATOM      4  C   UNL     1      47.626   6.371  14.198  0.00  0.00    +0.000 A 
ATOM      5  C   UNL     1      48.464   6.245  15.326  0.00  0.00    +0.000 A 
ATOM      6  C   UNL     1      48.361   5.116  16.158  0.00  0.00    +0.000 A 
ATOM      7  C   UNL     1      47.432   4.115  15.844  0.00  0.00    +0.000 A 
ATOM      8  C   UNL     1      46.595   4.217  14.726  0.00  0.00    +0.000 A 
ATOM      9  C   UNL     1      46.701   5.361  13.921  0.00  0.00    +0.000 A 
ENDROOT
BRANCH   6  10
ATOM     10  C   UNL     1      49.232   4.978  17.381  0.00  0.00    +0.000 C 
ATOM     11  F   UNL     1      49.103   6.009  18.265  0.00  0.00    +0.000 F 
ATOM     12  F   UNL     1      48.961   3.848  18.091  0.00  0.00    +0.000 F 
ATOM     13  F   UNL     1      50.558   4.916  17.077  0.00  0.00    +0.000 F 
ENDBRANCH   6  10
BRANCH   1  14
ATOM     14  C   UNL     1      44.808   5.100  12.264  0.00  0.00    +0.000 C 
BRANCH  14  18
ATOM     15  C   UNL     1      45.643   3.432   8.420  0.00  0.00    +0.000 A 
ATOM     16  C   UNL     1      45.162   2.601   9.434  0.00  0.00    +0.000 A 
ATOM     17  C   UNL     1      44.843   3.140  10.681  0.00  0.00    +0.000 A 
ATOM     18  C   UNL     1      45.021   4.506  10.896  0.00  0.00    +0.000 A 
ATOM     19  N   UNL     1      45.468   5.334   9.918  0.00  0.00    +0.000 NA
ATOM     20  C   UNL     1      45.747   4.787   8.711  0.00  0.00    +0.000 A 
BRANCH  15  21
ATOM     21  C   UNL     1      46.017   2.883   7.067  0.00  0.00    +0.000 C 
BRANCH  21  22
ATOM     22  C   UNL     1      47.360   2.136   7.076  0.00  0.00    +0.000 C 
BRANCH  22  23
ATOM     23  N   UNL     1      47.169   0.698   6.895  0.00  0.00    +0.000 NA
ATOM     24  H   UNL     1      46.833   0.520   5.948  0.00  0.00    +0.000 HD
ATOM     25  H   UNL     1      46.435   0.364   7.520  0.00  0.00    +0.000 HD
ENDBRANCH  22  23
ENDBRANCH  21  22
ENDBRANCH  15  21
ENDBRANCH  14  18
ENDBRANCH   1  14
TORSDOF 6
ENDMDL
MODEL 6
REMARK VINA RESULT:    -6.060      4.048      6.309
REMARK INTER + INTRA:          -8.597
REMARK INTER:                  -7.955
REMARK INTRA:                  -0.642
REMARK UNBOUND:                -0.588
REMARK  Name = 
REMARK  6 active torsions:
REMARK  status: ('A' for Active; 'I' for Inactive)
REMARK    1  A    between atoms: N_1  and  C_2
REMARK    2  A    between atoms: C_2  and  C_3
REMARK    3  A    between atoms: C_3  and  C_4
REMARK    4  A    between atoms: C_7  and  C_8
REMARK    5  A    between atoms: C_8  and  N_9
REMARK    6  A    between atoms: C_14  and  C_15
REMARK                            x       y       z     vdW  Elec       q    Type
REMARK                         _______ _______ _______ _____ _____    ______ ____
ROOT
ATOM      1  N   UNL     1      47.561   7.431  13.698  0.00  0.00    +0.000 N 
ATOM      2  C   UNL     1      47.134   8.729  13.546  0.00  0.00    +0.000 A 
ATOM      3  C   UNL     1      45.900   8.703  12.937  0.00  0.00    +0.000 A 
ATOM      4  C   UNL     1      45.564   7.345  12.697  0.00  0.00    +0.000 A 
ATOM      5  C   UNL     1      44.461   6.713  12.086  0.00  0.00    +0.000 A 
ATOM      6  C   UNL     1      44.422   5.311  11.979  0.00  0.00    +0.000 A 
ATOM      7  C   UNL     1      45.481   4.554  12.499  0.00  0.00    +0.000 A 
ATOM      8  C   UNL     1      46.582   5.160  13.115  0.00  0.00    +0.000 A 
ATOM      9  C   UNL     1      46.609   6.561  13.193  0.00  0.00    +0.000 A 
ENDROOT
BRANCH   6  10
ATOM     10  C   UNL     1      43.262   4.621  11.307  0.00  0.00    +0.000 C 
ATOM     11  F   UNL     1      43.346   4.607   9.945  0.00  0.00    +0.000 F 
ATOM     12  F   UNL     1      43.141   3.317  11.682  0.00  0.00    +0.000 F 
ATOM     13  F   UNL     1      42.065   5.203  11.597  0.00  0.00    +0.000 F 
ENDBRANCH   6  10
BRANCH   1  14
ATOM     14  C   UNL     1      48.900   7.060  14.141  0.00  0.00    +0.000 C 
BRANCH  14  18
ATOM     15  C   UNL     1      49.339   6.177  18.298  0.00  0.00    +0.000 A 
ATOM     16  C   UNL     1      49.331   7.509  17.882  0.00  0.00    +0.000 A 
ATOM     17  C   UNL     1      49.144   7.815  16.533  0.00  0.00    +0.000 A 
ATOM     18  C   UNL     1      48.978   6.775  15.619  0.00  0.00    +0.000 A 
ATOM     19  N   UNL     1      48.962   5.475  16.005  0.00  0.00    +0.000 NA
ATOM     20  C   UNL     1      49.123   5.210  17.324  0.00  0.00    +0.000 A 
BRANCH  15  21
ATOM     21  C   UNL     1      49.559   5.808  19.743  0.00  0.00    +0.000 C 
BRANCH  21  22
ATOM     22  C   UNL     1      48.303   5.226  20.409  0.00  0.00    +0.000 C 
BRANCH  22  23
ATOM     23  N   UNL     1      48.442   3.788  20.639  0.00  0.00    +0.000 NA
ATOM     24  H   UNL     1      47.600   3.313  20.313  0.00  0.00    +0.000 HD
ATOM     25  H   UNL     1      48.500   3.601  21.640  0.00  0.00    +0.000 HD
ENDBRANCH  22  23
ENDBRANCH  21  22
ENDBRANCH  15  21
ENDBRANCH  14  18
ENDBRANCH   1  14
TORSDOF 6
ENDMDL
MODEL 7
REMARK VINA RESULT:    -5.732      4.037      7.347
REMARK INTER + INTRA:          -8.163
REMARK INTER:                  -7.657
REMARK INTRA:                  -0.506
REMARK UNBOUND:                -0.588
REMARK  Name = 
REMARK  6 active torsions:
REMARK  status: ('A' for Active; 'I' for Inactive)
REMARK    1  A    between atoms: N_1  and  C_2
REMARK    2  A    between atoms: C_2  and  C_3
REMARK    3  A    between atoms: C_3  and  C_4
REMARK    4  A    between atoms: C_7  and  C_8
REMARK    5  A    between atoms: C_8  and  N_9
REMARK    6  A    between atoms: C_14  and  C_15
REMARK                            x       y       z     vdW  Elec       q    Type
REMARK                         _______ _______ _______ _____ _____    ______ ____
ROOT
ATOM      1  N   UNL     1      46.447   7.823  12.550  0.00  0.00    +0.000 N 
ATOM      2  C   UNL     1      45.722   8.991  12.528  0.00  0.00    +0.000 A 
ATOM      3  C   UNL     1      46.561  10.007  12.132  0.00  0.00    +0.000 A 
ATOM      4  C   UNL     1      47.847   9.446  11.916  0.00  0.00    +0.000 A 
ATOM      5  C   UNL     1      49.092   9.991  11.538  0.00  0.00    +0.000 A 
ATOM      6  C   UNL     1      50.220   9.159  11.420  0.00  0.00    +0.000 A 
ATOM      7  C   UNL     1      50.088   7.786  11.667  0.00  0.00    +0.000 A 
ATOM      8  C   UNL     1      48.861   7.222  12.038  0.00  0.00    +0.000 A 
ATOM      9  C   UNL     1      47.754   8.074  12.168  0.00  0.00    +0.000 A 
ENDROOT
BRANCH   6  10
ATOM     10  C   UNL     1      51.563   9.731  11.041  0.00  0.00    +0.000 C 
ATOM     11  F   UNL     1      52.343   8.870  10.327  0.00  0.00    +0.000 F 
ATOM     12  F   UNL     1      51.455  10.853  10.274  0.00  0.00    +0.000 F 
ATOM     13  F   UNL     1      52.305  10.092  12.124  0.00  0.00    +0.000 F 
ENDBRANCH   6  10
BRANCH   1  14
ATOM     14  C   UNL     1      45.946   6.564  13.089  0.00  0.00    +0.000 C 
BRANCH  14  18
ATOM     15  C   UNL     1      44.909   3.662  10.129  0.00  0.00    +0.000 A 
ATOM     16  C   UNL     1      45.276   4.947   9.725  0.00  0.00    +0.000 A 
ATOM     17  C   UNL     1      45.661   5.891  10.677  0.00  0.00    +0.000 A 
ATOM     18  C   UNL     1      45.660   5.535  12.025  0.00  0.00    +0.000 A 
ATOM     19  N   UNL     1      45.326   4.287  12.437  0.00  0.00    +0.000 NA
ATOM     20  C   UNL     1      44.980   3.384  11.489  0.00  0.00    +0.000 A 
BRANCH  15  21
ATOM     21  C   UNL     1      44.468   2.621   9.131  0.00  0.00    +0.000 C 
BRANCH  21  22
ATOM     22  C   UNL     1      45.625   1.737   8.640  0.00  0.00    +0.000 C 
BRANCH  22  23
ATOM     23  N   UNL     1      46.408   2.413   7.606  0.00  0.00    +0.000 NA
ATOM     24  H   UNL     1      46.986   3.133   8.040  0.00  0.00    +0.000 HD
ATOM     25  H   UNL     1      45.785   2.902   6.964  0.00  0.00    +0.000 HD
ENDBRANCH  22  23
ENDBRANCH  21  22
ENDBRANCH  15  21
ENDBRANCH  14  18
ENDBRANCH   1  14
TORSDOF 6
ENDMDL
MODEL 8
REMARK VINA RESULT:    -5.644      2.666      3.400
REMARK INTER + INTRA:          -8.048
REMARK INTER:                  -7.495
REMARK INTRA:                  -0.553
REMARK UNBOUND:                -0.588
REMARK  Name = 
REMARK  6 active torsions:
REMARK  status: ('A' for Active; 'I' for Inactive)
REMARK    1  A    between atoms: N_1  and  C_2
REMARK    2  A    between atoms: C_2  and  C_3
REMARK    3  A    between atoms: C_3  and  C_4
REMARK    4  A    between atoms: C_7  and  C_8
REMARK    5  A    between atoms: C_8  and  N_9
REMARK    6  A    between atoms: C_14  and  C_15
REMARK                            x       y       z     vdW  Elec       q    Type
REMARK                         _______ _______ _______ _____ _____    ______ ____
ROOT
ATOM      1  N   UNL     1      45.311   6.499  12.318  0.00  0.00    +0.000 N 
ATOM      2  C   UNL     1      44.623   5.841  13.310  0.00  0.00    +0.000 A 
ATOM      3  C   UNL     1      44.276   4.597  12.836  0.00  0.00    +0.000 A 
ATOM      4  C   UNL     1      44.756   4.493  11.504  0.00  0.00    +0.000 A 
ATOM      5  C   UNL     1      44.675   3.485  10.521  0.00  0.00    +0.000 A 
ATOM      6  C   UNL     1      45.251   3.688   9.254  0.00  0.00    +0.000 A 
ATOM      7  C   UNL     1      45.915   4.892   8.988  0.00  0.00    +0.000 A 
ATOM      8  C   UNL     1      46.013   5.904   9.951  0.00  0.00    +0.000 A 
ATOM      9  C   UNL     1      45.415   5.687  11.201  0.00  0.00    +0.000 A 
ENDROOT
BRANCH   6  10
ATOM     10  C   UNL     1      45.152   2.629   8.184  0.00  0.00    +0.000 C 
ATOM     11  F   UNL     1      44.108   1.769   8.358  0.00  0.00    +0.000 F 
ATOM     12  F   UNL     1      44.989   3.159   6.939  0.00  0.00    +0.000 F 
ATOM     13  F   UNL     1      46.266   1.849   8.113  0.00  0.00    +0.000 F 
ENDBRANCH   6  10
BRANCH   1  14
ATOM     14  C   UNL     1      45.687   7.906  12.384  0.00  0.00    +0.000 C 
BRANCH  14  18
ATOM     15  C   UNL     1      49.934   8.361  12.273  0.00  0.00    +0.000 A 
ATOM     16  C   UNL     1      49.126   9.394  11.797  0.00  0.00    +0.000 A 
ATOM     17  C   UNL     1      47.738   9.279  11.868  0.00  0.00    +0.000 A 
ATOM     18  C   UNL     1      47.179   8.120  12.407  0.00  0.00    +0.000 A 
ATOM     19  N   UNL     1      47.947   7.113  12.894  0.00  0.00    +0.000 NA
ATOM     20  C   UNL     1      49.291   7.263  12.833  0.00  0.00    +0.000 A 
BRANCH  15  21
ATOM     21  C   UNL     1      51.438   8.441  12.195  0.00  0.00    +0.000 C 
BRANCH  21  22
ATOM     22  C   UNL     1      51.977   8.196  10.777  0.00  0.00    +0.000 C 
BRANCH  22  23
ATOM     23  N   UNL     1      52.495   6.836  10.634  0.00  0.00    +0.000 NA
ATOM     24  H   UNL     1      51.991   6.216  11.268  0.00  0.00    +0.000 HD
ATOM     25  H   UNL     1      53.471   6.805  10.929  0.00  0.00    +0.000 HD
ENDBRANCH  22  23
ENDBRANCH  21  22
ENDBRANCH  15  21
ENDBRANCH  14  18
ENDBRANCH   1  14
TORSDOF 6
ENDMDL
MODEL 9
REMARK VINA RESULT:    -5.461      4.279      5.886
REMARK INTER + INTRA:          -7.806
REMARK INTER:                  -7.128
REMARK INTRA:                  -0.678
REMARK UNBOUND:                -0.588
REMARK  Name = 
REMARK  6 active torsions:
REMARK  status: ('A' for Active; 'I' for Inactive)
REMARK    1  A    between atoms: N_1  and  C_2
REMARK    2  A    between atoms: C_2  and  C_3
REMARK    3  A    between atoms: C_3  and  C_4
REMARK    4  A    between atoms: C_7  and  C_8
REMARK    5  A    between atoms: C_8  and  N_9
REMARK    6  A    between atoms: C_14  and  C_15
REMARK                            x       y       z     vdW  Elec       q    Type
REMARK                         _______ _______ _______ _____ _____    ______ ____
ROOT
ATOM      1  N   UNL     1      47.768   6.806  13.748  0.00  0.00    +0.000 N 
ATOM      2  C   UNL     1      48.017   5.869  14.723  0.00  0.00    +0.000 A 
ATOM      3  C   UNL     1      47.145   4.820  14.539  0.00  0.00    +0.000 A 
ATOM      4  C   UNL     1      46.327   5.128  13.422  0.00  0.00    +0.000 A 
ATOM      5  C   UNL     1      45.256   4.462  12.791  0.00  0.00    +0.000 A 
ATOM      6  C   UNL     1      44.616   5.046  11.683  0.00  0.00    +0.000 A 
ATOM      7  C   UNL     1      45.065   6.285  11.206  0.00  0.00    +0.000 A 
ATOM      8  C   UNL     1      46.130   6.961  11.813  0.00  0.00    +0.000 A 
ATOM      9  C   UNL     1      46.740   6.369  12.929  0.00  0.00    +0.000 A 
ENDROOT
BRANCH   6  10
ATOM     10  C   UNL     1      43.454   4.357  11.012  0.00  0.00    +0.000 C 
ATOM     11  F   UNL     1      42.236   4.795  11.441  0.00  0.00    +0.000 F 
ATOM     12  F   UNL     1      43.453   4.530   9.661  0.00  0.00    +0.000 F 
ATOM     13  F   UNL     1      43.455   3.010  11.213  0.00  0.00    +0.000 F 
ENDBRANCH   6  10
BRANCH   1  14
ATOM     14  C   UNL     1      48.369   8.134  13.722  0.00  0.00    +0.000 C 
BRANCH  14  18
ATOM     15  C   UNL     1      52.079   8.099  11.603  0.00  0.00    +0.000 A 
ATOM     16  C   UNL     1      50.911   7.720  10.939  0.00  0.00    +0.000 A 
ATOM     17  C   UNL     1      49.686   7.769  11.605  0.00  0.00    +0.000 A 
ATOM     18  C   UNL     1      49.652   8.188  12.934  0.00  0.00    +0.000 A 
ATOM     19  N   UNL     1      50.773   8.580  13.592  0.00  0.00    +0.000 NA
ATOM     20  C   UNL     1      51.944   8.544  12.913  0.00  0.00    +0.000 A 
BRANCH  15  21
ATOM     21  C   UNL     1      53.423   8.039  10.923  0.00  0.00    +0.000 C 
BRANCH  21  22
ATOM     22  C   UNL     1      53.588   6.799  10.031  0.00  0.00    +0.000 C 
BRANCH  22  23
ATOM     23  N   UNL     1      54.005   5.635  10.812  0.00  0.00    +0.000 NA
ATOM     24  H   UNL     1      53.226   4.981  10.882  0.00  0.00    +0.000 HD
ATOM     25  H   UNL     1      54.220   5.919  11.768  0.00  0.00    +0.000 HD
ENDBRANCH  22  23
ENDBRANCH  21  22
ENDBRANCH  15  21
ENDBRANCH  14  18
ENDBRANCH   1  14
TORSDOF 6
ENDMDL
