MODEL 1
REMARK VINA RESULT:    -7.583      0.000      0.000
REMARK INTER + INTRA:         -13.266
REMARK INTER:                 -11.573
REMARK INTRA:                  -1.693
REMARK UNBOUND:                -1.693
REMARK  Name = 
REMARK  10 active torsions:
REMARK  status: ('A' for Active; 'I' for Inactive)
REMARK    1  A    between atoms: C_2  and  C_3
REMARK    2  A    between atoms: C_7  and  C_8
REMARK    3  A    between atoms: C_8  and  O_9
REMARK    4  A    between atoms: O_9  and  C_10
REMARK    5  A    between atoms: C_10  and  C_11
REMARK    6  A    between atoms: C_14  and  C_15
REMARK    7  A    between atoms: C_15  and  N_16
REMARK    8  A    between atoms: C_17  and  C_19
REMARK    9  A    between atoms: C_26  and  O_27
REMARK   10  A    between atoms: O_27  and  C_28
REMARK                            x       y       z     vdW  Elec       q    Type
REMARK                         _______ _______ _______ _____ _____    ______ ____
ROOT
ATOM      1  C   UNL     1      44.623   5.647  12.815  0.00  0.00    +0.000 A 
ATOM      2  C   UNL     1      44.753   6.955  12.333  0.00  0.00    +0.000 A 
ATOM      3  C   UNL     1      46.009   7.565  12.244  0.00  0.00    +0.000 A 
ATOM      4  C   UNL     1      47.166   6.871  12.619  0.00  0.00    +0.000 A 
ATOM      5  C   UNL     1      47.031   5.571  13.126  0.00  0.00    +0.000 A 
ATOM      6  C   UNL     1      45.775   4.964  13.223  0.00  0.00    +0.000 A 
ENDROOT
BRANCH   1   7
ATOM      7  C   UNL     1      43.264   4.995  12.897  0.00  0.00    +0.000 C 
BRANCH   7   8
ATOM      8  O   UNL     1      42.875   4.576  11.591  0.00  0.00    +0.000 OA
BRANCH   8   9
ATOM      9  C   UNL     1      43.383   3.279  11.279  0.00  0.00    +0.000 C 
BRANCH   9  14
ATOM     10  C   UNL     1      45.743   2.200   8.487  0.00  0.00    +0.000 A 
ATOM     11  C   UNL     1      46.078   3.422   7.905  0.00  0.00    +0.000 A 
ATOM     12  C   UNL     1      45.546   4.606   8.417  0.00  0.00    +0.000 A 
ATOM     13  C   UNL     1      44.672   4.566   9.506  0.00  0.00    +0.000 A 
ATOM     14  C   UNL     1      44.306   3.344  10.087  0.00  0.00    +0.000 A 
ATOM     15  C   UNL     1      44.864   2.161   9.574  0.00  0.00    +0.000 A 
BRANCH  10  17
ATOM     16  C   UNL     1      46.771  -0.040   7.562  0.00  0.00    +0.000 C 
ATOM     17  C   UNL     1      46.299   0.984   7.978  0.00  0.00    +0.000 C 
ENDBRANCH  10  17
ENDBRANCH   9  14
ENDBRANCH   8   9
ENDBRANCH   7   8
ENDBRANCH   1   7
BRANCH   4  18
ATOM     18  C   UNL     1      48.528   7.509  12.504  0.00  0.00    +0.000 C 
BRANCH  18  19
ATOM     19  N   UNL     1      49.433   6.996  13.501  0.00  0.00    +0.000 N 
ATOM     20  C   UNL     1      49.579   7.596  14.726  0.00  0.00    +0.000 C 
ATOM     21  O   UNL     1      48.899   8.557  15.072  0.00  0.00    +0.000 OA
ATOM     22  H   UNL     1      50.127   6.330  13.193  0.00  0.00    +0.000 HD
BRANCH  20  23
ATOM     23  C   UNL     1      50.555   6.978  15.632  0.00  0.00    +0.000 A 
ATOM     24  C   UNL     1      51.882   7.383  15.598  0.00  0.00    +0.000 A 
ATOM     25  S   UNL     1      52.853   6.618  16.771  0.00  0.00    +0.000 S 
ATOM     26  C   UNL     1      51.544   5.682  17.318  0.00  0.00    +0.000 A 
ATOM     27  N   UNL     1      51.722   4.801  18.319  0.00  0.00    +0.000 NA
ATOM     28  C   UNL     1      50.605   4.135  18.618  0.00  0.00    +0.000 A 
ATOM     29  N   UNL     1      49.403   4.255  18.041  0.00  0.00    +0.000 NA
ATOM     30  C   UNL     1      49.278   5.150  17.038  0.00  0.00    +0.000 A 
ATOM     31  C   UNL     1      50.364   5.938  16.633  0.00  0.00    +0.000 A 
BRANCH  30  32
ATOM     32  O   UNL     1      48.059   5.290  16.411  0.00  0.00    +0.000 OA
ATOM     33  C   UNL     1      47.146   4.227  16.655  0.00  0.00    +0.000 C 
ENDBRANCH  30  32
ENDBRANCH  20  23
ENDBRANCH  18  19
ENDBRANCH   4  18
TORSDOF 9
ENDMDL
MODEL 2
REMARK VINA RESULT:    -7.165      2.407      4.089
REMARK INTER + INTRA:         -12.627
REMARK INTER:                 -11.274
REMARK INTRA:                  -1.353
REMARK UNBOUND:                -1.693
REMARK  Name = 
REMARK  10 active torsions:
REMARK  status: ('A' for Active; 'I' for Inactive)
REMARK    1  A    between atoms: C_2  and  C_3
REMARK    2  A    between atoms: C_7  and  C_8
REMARK    3  A    between atoms: C_8  and  O_9
REMARK    4  A    between atoms: O_9  and  C_10
REMARK    5  A    between atoms: C_10  and  C_11
REMARK    6  A    between atoms: C_14  and  C_15
REMARK    7  A    between atoms: C_15  and  N_16
REMARK    8  A    between atoms: C_17  and  C_19
REMARK    9  A    between atoms: C_26  and  O_27
REMARK   10  A    between atoms: O_27  and  C_28
REMARK                            x       y       z     vdW  Elec       q    Type
REMARK                         _______ _______ _______ _____ _____    ______ ____
ROOT
ATOM      1  C   UNL     1      47.239   5.688  13.695  0.00  0.00    +0.000 A 
ATOM      2  C   UNL     1      46.719   4.391  13.776  0.00  0.00    +0.000 A 
ATOM      3  C   UNL     1      46.897   3.617  14.928  0.00  0.00    +0.000 A 
ATOM      4  C   UNL     1      47.585   4.133  16.033  0.00  0.00    +0.000 A 
ATOM      5  C   UNL     1      48.128   5.422  15.941  0.00  0.00    +0.000 A 
ATOM      6  C   UNL     1      47.957   6.192  14.786  0.00  0.00    +0.000 A 
ENDROOT
BRANCH   1   7
ATOM      7  C   UNL     1      47.032   6.518  12.452  0.00  0.00    +0.000 C 
BRANCH   7   8
ATOM      8  O   UNL     1      45.670   6.406  12.045  0.00  0.00    +0.000 OA
BRANCH   8   9
ATOM      9  C   UNL     1      45.536   6.461  10.626  0.00  0.00    +0.000 C 
BRANCH   9  14
ATOM     10  C   UNL     1      45.615   3.487   8.242  0.00  0.00    +0.000 A 
ATOM     11  C   UNL     1      44.865   2.540   8.939  0.00  0.00    +0.000 A 
ATOM     12  C   UNL     1      44.323   2.860  10.184  0.00  0.00    +0.000 A 
ATOM     13  C   UNL     1      44.539   4.125  10.737  0.00  0.00    +0.000 A 
ATOM     14  C   UNL     1      45.311   5.080  10.060  0.00  0.00    +0.000 A 
ATOM     15  C   UNL     1      45.834   4.751   8.798  0.00  0.00    +0.000 A 
BRANCH  10  17
ATOM     16  C   UNL     1      46.621   2.898   5.882  0.00  0.00    +0.000 C 
ATOM     17  C   UNL     1      46.158   3.171   6.957  0.00  0.00    +0.000 C 
ENDBRANCH  10  17
ENDBRANCH   9  14
ENDBRANCH   8   9
ENDBRANCH   7   8
ENDBRANCH   1   7
BRANCH   4  18
ATOM     18  C   UNL     1      47.762   3.317  17.290  0.00  0.00    +0.000 C 
BRANCH  18  19
ATOM     19  N   UNL     1      49.155   3.159  17.620  0.00  0.00    +0.000 N 
ATOM     20  C   UNL     1      49.969   2.290  16.940  0.00  0.00    +0.000 C 
ATOM     21  O   UNL     1      49.579   1.652  15.967  0.00  0.00    +0.000 OA
ATOM     22  H   UNL     1      49.461   3.525  18.512  0.00  0.00    +0.000 HD
BRANCH  20  23
ATOM     23  C   UNL     1      51.361   2.216  17.402  0.00  0.00    +0.000 A 
ATOM     24  C   UNL     1      51.960   0.978  17.592  0.00  0.00    +0.000 A 
ATOM     25  S   UNL     1      53.598   1.083  18.051  0.00  0.00    +0.000 S 
ATOM     26  C   UNL     1      53.537   2.781  18.066  0.00  0.00    +0.000 A 
ATOM     27  N   UNL     1      54.634   3.488  18.396  0.00  0.00    +0.000 NA
ATOM     28  C   UNL     1      54.419   4.804  18.377  0.00  0.00    +0.000 A 
ATOM     29  N   UNL     1      53.278   5.441  18.084  0.00  0.00    +0.000 NA
ATOM     30  C   UNL     1      52.205   4.687  17.764  0.00  0.00    +0.000 A 
ATOM     31  C   UNL     1      52.292   3.288  17.720  0.00  0.00    +0.000 A 
BRANCH  30  32
ATOM     32  O   UNL     1      51.010   5.307  17.471  0.00  0.00    +0.000 OA
ATOM     33  C   UNL     1      50.923   6.655  17.914  0.00  0.00    +0.000 C 
ENDBRANCH  30  32
ENDBRANCH  20  23
ENDBRANCH  18  19
ENDBRANCH   4  18
TORSDOF 9
ENDMDL
MODEL 3
REMARK VINA RESULT:    -7.161      2.098      2.342
REMARK INTER + INTRA:         -12.622
REMARK INTER:                 -11.083
REMARK INTRA:                  -1.540
REMARK UNBOUND:                -1.693
REMARK  Name = 
REMARK  10 active torsions:
REMARK  status: ('A' for Active; 'I' for Inactive)
REMARK    1  A    between atoms: C_2  and  C_3
REMARK    2  A    between atoms: C_7  and  C_8
REMARK    3  A    between atoms: C_8  and  O_9
REMARK    4  A    between atoms: O_9  and  C_10
REMARK    5  A    between atoms: C_10  and  C_11
REMARK    6  A    between atoms: C_14  and  C_15
REMARK    7  A    between atoms: C_15  and  N_16
REMARK    8  A    between atoms: C_17  and  C_19
REMARK    9  A    between atoms: C_26  and  O_27
REMARK   10  A    between atoms: O_27  and  C_28
REMARK                            x       y       z     vdW  Elec       q    Type
REMARK                         _______ _______ _______ _____ _____    ______ ____
ROOT
ATOM      1  C   UNL     1      44.447   5.252  13.086  0.00  0.00    +0.000 A 
ATOM      2  C   UNL     1      45.578   4.710  13.710  0.00  0.00    +0.000 A 
ATOM      3  C   UNL     1      46.759   5.452  13.825  0.00  0.00    +0.000 A 
ATOM      4  C   UNL     1      46.828   6.761  13.334  0.00  0.00    +0.000 A 
ATOM      5  C   UNL     1      45.704   7.293  12.686  0.00  0.00    +0.000 A 
ATOM      6  C   UNL     1      44.526   6.549  12.564  0.00  0.00    +0.000 A 
ENDROOT
BRANCH   1   7
ATOM      7  C   UNL     1      43.176   4.447  12.977  0.00  0.00    +0.000 C 
BRANCH   7   8
ATOM      8  O   UNL     1      42.876   4.245  11.598  0.00  0.00    +0.000 OA
BRANCH   8   9
ATOM      9  C   UNL     1      43.332   2.974  11.138  0.00  0.00    +0.000 C 
BRANCH   9  14
ATOM     10  C   UNL     1      45.816   2.146   8.368  0.00  0.00    +0.000 A 
ATOM     11  C   UNL     1      46.078   3.407   7.831  0.00  0.00    +0.000 A 
ATOM     12  C   UNL     1      45.456   4.535   8.366  0.00  0.00    +0.000 A 
ATOM     13  C   UNL     1      44.565   4.401   9.433  0.00  0.00    +0.000 A 
ATOM     14  C   UNL     1      44.272   3.139   9.969  0.00  0.00    +0.000 A 
ATOM     15  C   UNL     1      44.921   2.014   9.433  0.00  0.00    +0.000 A 
BRANCH  10  17
ATOM     16  C   UNL     1      47.016   0.022   7.381  0.00  0.00    +0.000 C 
ATOM     17  C   UNL     1      46.465   0.988   7.836  0.00  0.00    +0.000 C 
ENDBRANCH  10  17
ENDBRANCH   9  14
ENDBRANCH   8   9
ENDBRANCH   7   8
ENDBRANCH   1   7
BRANCH   4  18
ATOM     18  C   UNL     1      48.088   7.580  13.474  0.00  0.00    +0.000 C 
BRANCH  18  19
ATOM     19  N   UNL     1      48.261   8.047  14.826  0.00  0.00    +0.000 N 
ATOM     20  C   UNL     1      49.066   7.392  15.723  0.00  0.00    +0.000 C 
ATOM     21  O   UNL     1      49.741   6.416  15.409  0.00  0.00    +0.000 OA
ATOM     22  H   UNL     1      47.596   8.727  15.166  0.00  0.00    +0.000 HD
BRANCH  20  23
ATOM     23  C   UNL     1      49.128   7.969  17.072  0.00  0.00    +0.000 A 
ATOM     24  C   UNL     1      49.759   9.189  17.273  0.00  0.00    +0.000 A 
ATOM     25  S   UNL     1      49.665   9.742  18.882  0.00  0.00    +0.000 S 
ATOM     26  C   UNL     1      48.832   8.342  19.367  0.00  0.00    +0.000 A 
ATOM     27  N   UNL     1      48.466   8.193  20.653  0.00  0.00    +0.000 NA
ATOM     28  C   UNL     1      47.839   7.037  20.875  0.00  0.00    +0.000 A 
ATOM     29  N   UNL     1      47.567   6.072  19.988  0.00  0.00    +0.000 NA
ATOM     30  C   UNL     1      47.959   6.268  18.711  0.00  0.00    +0.000 A 
ATOM     31  C   UNL     1      48.609   7.449  18.328  0.00  0.00    +0.000 A 
BRANCH  30  32
ATOM     32  O   UNL     1      47.709   5.289  17.773  0.00  0.00    +0.000 OA
ATOM     33  C   UNL     1      48.066   3.976  18.184  0.00  0.00    +0.000 C 
ENDBRANCH  30  32
ENDBRANCH  20  23
ENDBRANCH  18  19
ENDBRANCH   4  18
TORSDOF 9
ENDMDL
MODEL 4
REMARK VINA RESULT:    -6.818      2.250      3.396
REMARK INTER + INTRA:         -12.098
REMARK INTER:                 -10.995
REMARK INTRA:                  -1.104
REMARK UNBOUND:                -1.693
REMARK  Name = 
REMARK  10 active torsions:
REMARK  status: ('A' for Active; 'I' for Inactive)
REMARK    1  A    between atoms: C_2  and  C_3
REMARK    2  A    between atoms: C_7  and  C_8
REMARK    3  A    between atoms: C_8  and  O_9
REMARK    4  A    between atoms: O_9  and  C_10
REMARK    5  A    between atoms: C_10  and  C_11
REMARK    6  A    between atoms: C_14  and  C_15
REMARK    7  A    between atoms: C_15  and  N_16
REMARK    8  A    between atoms: C_17  and  C_19
REMARK    9  A    between atoms: C_26  and  O_27
REMARK   10  A    between atoms: O_27  and  C_28
REMARK                            x       y       z     vdW  Elec       q    Type
REMARK                         _______ _______ _______ _____ _____    ______ ____
ROOT
ATOM      1  C   UNL     1      47.101   5.609  13.582  0.00  0.00    +0.000 A 
ATOM      2  C   UNL     1      47.166   5.085  14.878  0.00  0.00    +0.000 A 
ATOM      3  C   UNL     1      48.118   5.549  15.793  0.00  0.00    +0.000 A 
ATOM      4  C   UNL     1      49.014   6.564  15.435  0.00  0.00    +0.000 A 
ATOM      5  C   UNL     1      48.964   7.070  14.129  0.00  0.00    +0.000 A 
ATOM      6  C   UNL     1      48.018   6.599  13.212  0.00  0.00    +0.000 A 
ENDROOT
BRANCH   1   7
ATOM      7  C   UNL     1      46.063   5.108  12.607  0.00  0.00    +0.000 C 
BRANCH   7   8
ATOM      8  O   UNL     1      46.060   5.957  11.462  0.00  0.00    +0.000 OA
BRANCH   8   9
ATOM      9  C   UNL     1      44.892   5.766  10.666  0.00  0.00    +0.000 C 
BRANCH   9  14
ATOM     10  C   UNL     1      45.705   3.169   7.996  0.00  0.00    +0.000 A 
ATOM     11  C   UNL     1      45.060   2.036   8.492  0.00  0.00    +0.000 A 
ATOM     12  C   UNL     1      44.353   2.106   9.693  0.00  0.00    +0.000 A 
ATOM     13  C   UNL     1      44.297   3.308  10.402  0.00  0.00    +0.000 A 
ATOM     14  C   UNL     1      44.960   4.451   9.929  0.00  0.00    +0.000 A 
ATOM     15  C   UNL     1      45.652   4.370   8.709  0.00  0.00    +0.000 A 
BRANCH  10  17
ATOM     16  C   UNL     1      47.011   3.068   5.713  0.00  0.00    +0.000 C 
ATOM     17  C   UNL     1      46.416   3.108   6.757  0.00  0.00    +0.000 C 
ENDBRANCH  10  17
ENDBRANCH   9  14
ENDBRANCH   8   9
ENDBRANCH   7   8
ENDBRANCH   1   7
BRANCH   4  18
ATOM     18  C   UNL     1      50.028   7.090  16.421  0.00  0.00    +0.000 C 
BRANCH  18  19
ATOM     19  N   UNL     1      50.932   6.053  16.846  0.00  0.00    +0.000 N 
ATOM     20  C   UNL     1      51.119   5.752  18.171  0.00  0.00    +0.000 C 
ATOM     21  O   UNL     1      50.478   6.296  19.065  0.00  0.00    +0.000 OA
ATOM     22  H   UNL     1      51.598   5.715  16.166  0.00  0.00    +0.000 HD
BRANCH  20  23
ATOM     23  C   UNL     1      52.090   4.688  18.459  0.00  0.00    +0.000 A 
ATOM     24  C   UNL     1      53.249   4.983  19.164  0.00  0.00    +0.000 A 
ATOM     25  S   UNL     1      54.217   3.616  19.475  0.00  0.00    +0.000 S 
ATOM     26  C   UNL     1      53.148   2.602  18.628  0.00  0.00    +0.000 A 
ATOM     27  N   UNL     1      53.416   1.289  18.515  0.00  0.00    +0.000 NA
ATOM     28  C   UNL     1      52.492   0.636  17.808  0.00  0.00    +0.000 A 
ATOM     29  N   UNL     1      51.395   1.145  17.232  0.00  0.00    +0.000 NA
ATOM     30  C   UNL     1      51.173   2.469  17.371  0.00  0.00    +0.000 A 
ATOM     31  C   UNL     1      52.050   3.276  18.109  0.00  0.00    +0.000 A 
BRANCH  30  32
ATOM     32  O   UNL     1      50.061   3.030  16.779  0.00  0.00    +0.000 OA
ATOM     33  C   UNL     1      48.974   2.132  16.603  0.00  0.00    +0.000 C 
ENDBRANCH  30  32
ENDBRANCH  20  23
ENDBRANCH  18  19
ENDBRANCH   4  18
TORSDOF 9
ENDMDL
MODEL 5
REMARK VINA RESULT:    -6.504      4.881      6.607
REMARK INTER + INTRA:         -11.619
REMARK INTER:                 -10.472
REMARK INTRA:                  -1.147
REMARK UNBOUND:                -1.693
REMARK  Name = 
REMARK  10 active torsions:
REMARK  status: ('A' for Active; 'I' for Inactive)
REMARK    1  A    between atoms: C_2  and  C_3
REMARK    2  A    between atoms: C_7  and  C_8
REMARK    3  A    between atoms: C_8  and  O_9
REMARK    4  A    between atoms: O_9  and  C_10
REMARK    5  A    between atoms: C_10  and  C_11
REMARK    6  A    between atoms: C_14  and  C_15
REMARK    7  A    between atoms: C_15  and  N_16
REMARK    8  A    between atoms: C_17  and  C_19
REMARK    9  A    between atoms: C_26  and  O_27
REMARK   10  A    between atoms: O_27  and  C_28
REMARK                            x       y       z     vdW  Elec       q    Type
REMARK                         _______ _______ _______ _____ _____    ______ ____
ROOT
ATOM      1  C   UNL     1      47.203   7.864  12.414  0.00  0.00    +0.000 A 
ATOM      2  C   UNL     1      48.260   6.946  12.406  0.00  0.00    +0.000 A 
ATOM      3  C   UNL     1      49.550   7.341  12.035  0.00  0.00    +0.000 A 
ATOM      4  C   UNL     1      49.814   8.670  11.682  0.00  0.00    +0.000 A 
ATOM      5  C   UNL     1      48.750   9.582  11.666  0.00  0.00    +0.000 A 
ATOM      6  C   UNL     1      47.458   9.185  12.028  0.00  0.00    +0.000 A 
ENDROOT
BRANCH   1   7
ATOM      7  C   UNL     1      45.817   7.429  12.825  0.00  0.00    +0.000 C 
BRANCH   7   8
ATOM      8  O   UNL     1      45.544   6.156  12.247  0.00  0.00    +0.000 OA
BRANCH   8   9
ATOM      9  C   UNL     1      45.075   6.275  10.904  0.00  0.00    +0.000 C 
BRANCH   9  14
ATOM     10  C   UNL     1      45.469   3.447   8.378  0.00  0.00    +0.000 A 
ATOM     11  C   UNL     1      44.748   2.418   8.984  0.00  0.00    +0.000 A 
ATOM     12  C   UNL     1      44.125   2.634  10.213  0.00  0.00    +0.000 A 
ATOM     13  C   UNL     1      44.229   3.878  10.841  0.00  0.00    +0.000 A 
ATOM     14  C   UNL     1      44.970   4.916  10.256  0.00  0.00    +0.000 A 
ATOM     15  C   UNL     1      45.576   4.690   9.010  0.00  0.00    +0.000 A 
BRANCH  10  17
ATOM     16  C   UNL     1      46.612   3.067   6.038  0.00  0.00    +0.000 C 
ATOM     17  C   UNL     1      46.095   3.237   7.110  0.00  0.00    +0.000 C 
ENDBRANCH  10  17
ENDBRANCH   9  14
ENDBRANCH   8   9
ENDBRANCH   7   8
ENDBRANCH   1   7
BRANCH   4  18
ATOM     18  C   UNL     1      51.206   9.114  11.305  0.00  0.00    +0.000 C 
BRANCH  18  19
ATOM     19  N   UNL     1      52.022   7.995  10.906  0.00  0.00    +0.000 N 
ATOM     20  C   UNL     1      53.030   8.124   9.985  0.00  0.00    +0.000 C 
ATOM     21  O   UNL     1      53.344   9.208   9.503  0.00  0.00    +0.000 OA
ATOM     22  H   UNL     1      51.684   7.072  11.139  0.00  0.00    +0.000 HD
BRANCH  20  23
ATOM     23  C   UNL     1      53.763   6.895   9.656  0.00  0.00    +0.000 A 
ATOM     24  C   UNL     1      54.655   6.356  10.574  0.00  0.00    +0.000 A 
ATOM     25  S   UNL     1      55.352   4.890  10.059  0.00  0.00    +0.000 S 
ATOM     26  C   UNL     1      54.530   4.962   8.573  0.00  0.00    +0.000 A 
ATOM     27  N   UNL     1      54.708   3.989   7.661  0.00  0.00    +0.000 NA
ATOM     28  C   UNL     1      54.008   4.201   6.545  0.00  0.00    +0.000 A 
ATOM     29  N   UNL     1      53.202   5.234   6.270  0.00  0.00    +0.000 NA
ATOM     30  C   UNL     1      53.060   6.185   7.217  0.00  0.00    +0.000 A 
ATOM     31  C   UNL     1      53.718   6.082   8.450  0.00  0.00    +0.000 A 
BRANCH  30  32
ATOM     32  O   UNL     1      52.249   7.271   6.964  0.00  0.00    +0.000 OA
ATOM     33  C   UNL     1      52.846   8.274   6.152  0.00  0.00    +0.000 C 
ENDBRANCH  30  32
ENDBRANCH  20  23
ENDBRANCH  18  19
ENDBRANCH   4  18
TORSDOF 9
ENDMDL
MODEL 6
REMARK VINA RESULT:    -6.460      3.590      8.112
REMARK INTER + INTRA:         -11.552
REMARK INTER:                  -9.217
REMARK INTRA:                  -2.334
REMARK UNBOUND:                -1.693
REMARK  Name = 
REMARK  10 active torsions:
REMARK  status: ('A' for Active; 'I' for Inactive)
REMARK    1  A    between atoms: C_2  and  C_3
REMARK    2  A    between atoms: C_7  and  C_8
REMARK    3  A    between atoms: C_8  and  O_9
REMARK    4  A    between atoms: O_9  and  C_10
REMARK    5  A    between atoms: C_10  and  C_11
REMARK    6  A    between atoms: C_14  and  C_15
REMARK    7  A    between atoms: C_15  and  N_16
REMARK    8  A    between atoms: C_17  and  C_19
REMARK    9  A    between atoms: C_26  and  O_27
REMARK   10  A    between atoms: O_27  and  C_28
REMARK                            x       y       z     vdW  Elec       q    Type
REMARK                         _______ _______ _______ _____ _____    ______ ____
ROOT
ATOM      1  C   UNL     1      49.397   8.187  18.582  0.00  0.00    +0.000 A 
ATOM      2  C   UNL     1      48.287   8.965  18.231  0.00  0.00    +0.000 A 
ATOM      3  C   UNL     1      47.925   9.134  16.890  0.00  0.00    +0.000 A 
ATOM      4  C   UNL     1      48.657   8.513  15.871  0.00  0.00    +0.000 A 
ATOM      5  C   UNL     1      49.783   7.756  16.222  0.00  0.00    +0.000 A 
ATOM      6  C   UNL     1      50.150   7.594  17.562  0.00  0.00    +0.000 A 
ENDROOT
BRANCH   1   7
ATOM      7  C   UNL     1      49.772   8.003  20.032  0.00  0.00    +0.000 C 
BRANCH   7   8
ATOM      8  O   UNL     1      49.870   6.608  20.309  0.00  0.00    +0.000 OA
BRANCH   8   9
ATOM      9  C   UNL     1      48.587   5.985  20.347  0.00  0.00    +0.000 C 
BRANCH   9  14
ATOM     10  C   UNL     1      49.254   3.307  17.718  0.00  0.00    +0.000 A 
ATOM     11  C   UNL     1      48.125   3.413  16.906  0.00  0.00    +0.000 A 
ATOM     12  C   UNL     1      47.141   4.357  17.202  0.00  0.00    +0.000 A 
ATOM     13  C   UNL     1      47.283   5.190  18.314  0.00  0.00    +0.000 A 
ATOM     14  C   UNL     1      48.401   5.079  19.154  0.00  0.00    +0.000 A 
ATOM     15  C   UNL     1      49.393   4.138  18.833  0.00  0.00    +0.000 A 
BRANCH  10  17
ATOM     16  C   UNL     1      51.141   1.561  17.152  0.00  0.00    +0.000 C 
ATOM     17  C   UNL     1      50.275   2.353  17.409  0.00  0.00    +0.000 C 
ENDBRANCH  10  17
ENDBRANCH   9  14
ENDBRANCH   8   9
ENDBRANCH   7   8
ENDBRANCH   1   7
BRANCH   4  18
ATOM     18  C   UNL     1      48.262   8.668  14.423  0.00  0.00    +0.000 C 
BRANCH  18  19
ATOM     19  N   UNL     1      47.331   7.644  14.022  0.00  0.00    +0.000 N 
ATOM     20  C   UNL     1      47.731   6.529  13.330  0.00  0.00    +0.000 C 
ATOM     21  O   UNL     1      48.910   6.303  13.075  0.00  0.00    +0.000 OA
ATOM     22  H   UNL     1      46.348   7.878  14.053  0.00  0.00    +0.000 HD
BRANCH  20  23
ATOM     23  C   UNL     1      46.669   5.582  12.966  0.00  0.00    +0.000 A 
ATOM     24  C   UNL     1      46.837   4.227  13.218  0.00  0.00    +0.000 A 
ATOM     25  S   UNL     1      45.475   3.289  12.806  0.00  0.00    +0.000 S 
ATOM     26  C   UNL     1      44.647   4.655  12.226  0.00  0.00    +0.000 A 
ATOM     27  N   UNL     1      43.408   4.522  11.717  0.00  0.00    +0.000 NA
ATOM     28  C   UNL     1      42.903   5.680  11.290  0.00  0.00    +0.000 A 
ATOM     29  N   UNL     1      43.488   6.885  11.316  0.00  0.00    +0.000 NA
ATOM     30  C   UNL     1      44.732   6.965  11.832  0.00  0.00    +0.000 A 
ATOM     31  C   UNL     1      45.378   5.830  12.341  0.00  0.00    +0.000 A 
BRANCH  30  32
ATOM     32  O   UNL     1      45.371   8.186  11.862  0.00  0.00    +0.000 OA
ATOM     33  C   UNL     1      44.602   9.264  11.345  0.00  0.00    +0.000 C 
ENDBRANCH  30  32
ENDBRANCH  20  23
ENDBRANCH  18  19
ENDBRANCH   4  18
TORSDOF 9
ENDMDL
MODEL 7
REMARK VINA RESULT:    -6.427      3.312      8.944
REMARK INTER + INTRA:         -11.502
REMARK INTER:                  -9.180
REMARK INTRA:                  -2.322
REMARK UNBOUND:                -1.693
REMARK  Name = 
REMARK  10 active torsions:
REMARK  status: ('A' for Active; 'I' for Inactive)
REMARK    1  A    between atoms: C_2  and  C_3
REMARK    2  A    between atoms: C_7  and  C_8
REMARK    3  A    between atoms: C_8  and  O_9
REMARK    4  A    between atoms: O_9  and  C_10
REMARK    5  A    between atoms: C_10  and  C_11
REMARK    6  A    between atoms: C_14  and  C_15
REMARK    7  A    between atoms: C_15  and  N_16
REMARK    8  A    between atoms: C_17  and  C_19
REMARK    9  A    between atoms: C_26  and  O_27
REMARK   10  A    between atoms: O_27  and  C_28
REMARK                            x       y       z     vdW  Elec       q    Type
REMARK                         _______ _______ _______ _____ _____    ______ ____
ROOT
ATOM      1  C   UNL     1      50.841   4.257  18.905  0.00  0.00    +0.000 A 
ATOM      2  C   UNL     1      50.848   3.460  17.754  0.00  0.00    +0.000 A 
ATOM      3  C   UNL     1      49.658   3.158  17.082  0.00  0.00    +0.000 A 
ATOM      4  C   UNL     1      48.435   3.666  17.537  0.00  0.00    +0.000 A 
ATOM      5  C   UNL     1      48.426   4.443  18.704  0.00  0.00    +0.000 A 
ATOM      6  C   UNL     1      49.615   4.737  19.381  0.00  0.00    +0.000 A 
ENDROOT
BRANCH   1   7
ATOM      7  C   UNL     1      52.132   4.584  19.615  0.00  0.00    +0.000 C 
BRANCH   7   8
ATOM      8  O   UNL     1      53.023   5.202  18.690  0.00  0.00    +0.000 OA
BRANCH   8   9
ATOM      9  C   UNL     1      52.907   6.623  18.713  0.00  0.00    +0.000 C 
BRANCH   9  14
ATOM     10  C   UNL     1      49.697   8.256  17.464  0.00  0.00    +0.000 A 
ATOM     11  C   UNL     1      49.701   7.904  16.115  0.00  0.00    +0.000 A 
ATOM     12  C   UNL     1      50.743   7.132  15.600  0.00  0.00    +0.000 A 
ATOM     13  C   UNL     1      51.784   6.717  16.434  0.00  0.00    +0.000 A 
ATOM     14  C   UNL     1      51.806   7.082  17.788  0.00  0.00    +0.000 A 
ATOM     15  C   UNL     1      50.741   7.844  18.297  0.00  0.00    +0.000 A 
BRANCH  10  17
ATOM     16  C   UNL     1      47.717   9.688  18.443  0.00  0.00    +0.000 C 
ATOM     17  C   UNL     1      48.623   9.033  18.002  0.00  0.00    +0.000 C 
ENDBRANCH  10  17
ENDBRANCH   9  14
ENDBRANCH   8   9
ENDBRANCH   7   8
ENDBRANCH   1   7
BRANCH   4  18
ATOM     18  C   UNL     1      47.149   3.369  16.807  0.00  0.00    +0.000 C 
BRANCH  18  19
ATOM     19  N   UNL     1      46.827   4.413  15.868  0.00  0.00    +0.000 N 
ATOM     20  C   UNL     1      46.927   4.227  14.513  0.00  0.00    +0.000 C 
ATOM     21  O   UNL     1      47.226   3.143  14.020  0.00  0.00    +0.000 OA
ATOM     22  H   UNL     1      46.754   5.353  16.232  0.00  0.00    +0.000 HD
BRANCH  20  23
ATOM     23  C   UNL     1      46.590   5.386  13.677  0.00  0.00    +0.000 A 
ATOM     24  C   UNL     1      47.495   6.431  13.549  0.00  0.00    +0.000 A 
ATOM     25  S   UNL     1      46.972   7.651  12.480  0.00  0.00    +0.000 S 
ATOM     26  C   UNL     1      45.499   6.848  12.204  0.00  0.00    +0.000 A 
ATOM     27  N   UNL     1      44.586   7.389  11.376  0.00  0.00    +0.000 NA
ATOM     28  C   UNL     1      43.481   6.648  11.280  0.00  0.00    +0.000 A 
ATOM     29  N   UNL     1      43.217   5.492  11.901  0.00  0.00    +0.000 NA
ATOM     30  C   UNL     1      44.164   4.993  12.725  0.00  0.00    +0.000 A 
ATOM     31  C   UNL     1      45.387   5.654  12.904  0.00  0.00    +0.000 A 
BRANCH  30  32
ATOM     32  O   UNL     1      43.920   3.812  13.392  0.00  0.00    +0.000 OA
ATOM     33  C   UNL     1      43.661   2.701  12.545  0.00  0.00    +0.000 C 
ENDBRANCH  30  32
ENDBRANCH  20  23
ENDBRANCH  18  19
ENDBRANCH   4  18
TORSDOF 9
ENDMDL
MODEL 8
REMARK VINA RESULT:    -6.245      4.847      9.525
REMARK INTER + INTRA:         -11.224
REMARK INTER:                 -10.161
REMARK INTRA:                  -1.063
REMARK UNBOUND:                -1.693
REMARK  Name = 
REMARK  10 active torsions:
REMARK  status: ('A' for Active; 'I' for Inactive)
REMARK    1  A    between atoms: C_2  and  C_3
REMARK    2  A    between atoms: C_7  and  C_8
REMARK    3  A    between atoms: C_8  and  O_9
REMARK    4  A    between atoms: O_9  and  C_10
REMARK    5  A    between atoms: C_10  and  C_11
REMARK    6  A    between atoms: C_14  and  C_15
REMARK    7  A    between atoms: C_15  and  N_16
REMARK    8  A    between atoms: C_17  and  C_19
REMARK    9  A    between atoms: C_26  and  O_27
REMARK   10  A    between atoms: O_27  and  C_28
REMARK                            x       y       z     vdW  Elec       q    Type
REMARK                         _______ _______ _______ _____ _____    ______ ____
ROOT
ATOM      1  C   UNL     1      51.386   3.180  17.786  0.00  0.00    +0.000 A 
ATOM      2  C   UNL     1      50.741   2.089  17.190  0.00  0.00    +0.000 A 
ATOM      3  C   UNL     1      49.376   2.141  16.885  0.00  0.00    +0.000 A 
ATOM      4  C   UNL     1      48.631   3.296  17.153  0.00  0.00    +0.000 A 
ATOM      5  C   UNL     1      49.272   4.377  17.773  0.00  0.00    +0.000 A 
ATOM      6  C   UNL     1      50.634   4.321  18.086  0.00  0.00    +0.000 A 
ENDROOT
BRANCH   1   7
ATOM      7  C   UNL     1      52.860   3.115  18.101  0.00  0.00    +0.000 C 
BRANCH   7   8
ATOM      8  O   UNL     1      53.236   1.751  18.268  0.00  0.00    +0.000 OA
BRANCH   8   9
ATOM      9  C   UNL     1      54.281   1.377  17.372  0.00  0.00    +0.000 C 
BRANCH   9  14
ATOM     10  C   UNL     1      55.039  -2.222  16.367  0.00  0.00    +0.000 A 
ATOM     11  C   UNL     1      55.023  -2.874  17.600  0.00  0.00    +0.000 A 
ATOM     12  C   UNL     1      54.762  -2.153  18.765  0.00  0.00    +0.000 A 
ATOM     13  C   UNL     1      54.524  -0.778  18.699  0.00  0.00    +0.000 A 
ATOM     14  C   UNL     1      54.560  -0.104  17.470  0.00  0.00    +0.000 A 
ATOM     15  C   UNL     1      54.805  -0.845  16.302  0.00  0.00    +0.000 A 
BRANCH  10  17
ATOM     16  C   UNL     1      55.492  -3.587  14.162  0.00  0.00    +0.000 C 
ATOM     17  C   UNL     1      55.288  -2.958  15.166  0.00  0.00    +0.000 C 
ENDBRANCH  10  17
ENDBRANCH   9  14
ENDBRANCH   8   9
ENDBRANCH   7   8
ENDBRANCH   1   7
BRANCH   4  18
ATOM     18  C   UNL     1      47.164   3.374  16.806  0.00  0.00    +0.000 C 
BRANCH  18  19
ATOM     19  N   UNL     1      46.903   4.442  15.876  0.00  0.00    +0.000 N 
ATOM     20  C   UNL     1      46.957   4.253  14.518  0.00  0.00    +0.000 C 
ATOM     21  O   UNL     1      47.159   3.151  14.017  0.00  0.00    +0.000 OA
ATOM     22  H   UNL     1      46.912   5.384  16.242  0.00  0.00    +0.000 HD
BRANCH  20  23
ATOM     23  C   UNL     1      46.691   5.438  13.692  0.00  0.00    +0.000 A 
ATOM     24  C   UNL     1      47.652   6.434  13.584  0.00  0.00    +0.000 A 
ATOM     25  S   UNL     1      47.207   7.691  12.524  0.00  0.00    +0.000 S 
ATOM     26  C   UNL     1      45.696   6.972  12.225  0.00  0.00    +0.000 A 
ATOM     27  N   UNL     1      44.822   7.570  11.394  0.00  0.00    +0.000 NA
ATOM     28  C   UNL     1      43.680   6.891  11.280  0.00  0.00    +0.000 A 
ATOM     29  N   UNL     1      43.347   5.744  11.885  0.00  0.00    +0.000 NA
ATOM     30  C   UNL     1      44.257   5.186  12.712  0.00  0.00    +0.000 A 
ATOM     31  C   UNL     1      45.512   5.779  12.910  0.00  0.00    +0.000 A 
BRANCH  30  32
ATOM     32  O   UNL     1      43.944   4.013  13.364  0.00  0.00    +0.000 OA
ATOM     33  C   UNL     1      43.762   2.894  12.506  0.00  0.00    +0.000 C 
ENDBRANCH  30  32
ENDBRANCH  20  23
ENDBRANCH  18  19
ENDBRANCH   4  18
TORSDOF 9
ENDMDL
MODEL 9
REMARK VINA RESULT:    -6.100      4.007      7.959
REMARK INTER + INTRA:         -11.003
REMARK INTER:                  -8.838
REMARK INTRA:                  -2.164
REMARK UNBOUND:                -1.693
REMARK  Name = 
REMARK  10 active torsions:
REMARK  status: ('A' for Active; 'I' for Inactive)
REMARK    1  A    between atoms: C_2  and  C_3
REMARK    2  A    between atoms: C_7  and  C_8
REMARK    3  A    between atoms: C_8  and  O_9
REMARK    4  A    between atoms: O_9  and  C_10
REMARK    5  A    between atoms: C_10  and  C_11
REMARK    6  A    between atoms: C_14  and  C_15
REMARK    7  A    between atoms: C_15  and  N_16
REMARK    8  A    between atoms: C_17  and  C_19
REMARK    9  A    between atoms: C_26  and  O_27
REMARK   10  A    between atoms: O_27  and  C_28
REMARK                            x       y       z     vdW  Elec       q    Type
REMARK                         _______ _______ _______ _____ _____    ______ ____
ROOT
ATOM      1  C   UNL     1      49.061   7.938  18.186  0.00  0.00    +0.000 A 
ATOM      2  C   UNL     1      49.636   7.257  17.106  0.00  0.00    +0.000 A 
ATOM      3  C   UNL     1      49.398   7.668  15.790  0.00  0.00    +0.000 A 
ATOM      4  C   UNL     1      48.592   8.783  15.527  0.00  0.00    +0.000 A 
ATOM      5  C   UNL     1      47.997   9.448  16.608  0.00  0.00    +0.000 A 
ATOM      6  C   UNL     1      48.228   9.032  17.923  0.00  0.00    +0.000 A 
ENDROOT
BRANCH   1   7
ATOM      7  C   UNL     1      49.334   7.492  19.602  0.00  0.00    +0.000 C 
BRANCH   7   8
ATOM      8  O   UNL     1      48.154   6.890  20.130  0.00  0.00    +0.000 OA
BRANCH   8   9
ATOM      9  C   UNL     1      48.359   5.515  20.447  0.00  0.00    +0.000 C 
BRANCH   9  14
ATOM     10  C   UNL     1      49.358   3.048  17.717  0.00  0.00    +0.000 A 
ATOM     11  C   UNL     1      48.268   3.121  16.851  0.00  0.00    +0.000 A 
ATOM     12  C   UNL     1      47.203   3.973  17.142  0.00  0.00    +0.000 A 
ATOM     13  C   UNL     1      47.225   4.748  18.304  0.00  0.00    +0.000 A 
ATOM     14  C   UNL     1      48.303   4.668  19.198  0.00  0.00    +0.000 A 
ATOM     15  C   UNL     1      49.377   3.820  18.883  0.00  0.00    +0.000 A 
BRANCH  10  17
ATOM     16  C   UNL     1      51.387   1.469  17.150  0.00  0.00    +0.000 C 
ATOM     17  C   UNL     1      50.461   2.189  17.415  0.00  0.00    +0.000 C 
ENDBRANCH  10  17
ENDBRANCH   9  14
ENDBRANCH   8   9
ENDBRANCH   7   8
ENDBRANCH   1   7
BRANCH   4  18
ATOM     18  C   UNL     1      48.348   9.251  14.113  0.00  0.00    +0.000 C 
BRANCH  18  19
ATOM     19  N   UNL     1      47.071   8.799  13.625  0.00  0.00    +0.000 N 
ATOM     20  C   UNL     1      46.962   7.787  12.706  0.00  0.00    +0.000 C 
ATOM     21  O   UNL     1      47.936   7.160  12.301  0.00  0.00    +0.000 OA
ATOM     22  H   UNL     1      46.275   9.399  13.794  0.00  0.00    +0.000 HD
BRANCH  20  23
ATOM     23  C   UNL     1      45.598   7.448  12.281  0.00  0.00    +0.000 A 
ATOM     24  C   UNL     1      44.857   8.362  11.544  0.00  0.00    +0.000 A 
ATOM     25  S   UNL     1      43.331   7.770  11.070  0.00  0.00    +0.000 S 
ATOM     26  C   UNL     1      43.592   6.301  11.883  0.00  0.00    +0.000 A 
ATOM     27  N   UNL     1      42.640   5.350  11.871  0.00  0.00    +0.000 NA
ATOM     28  C   UNL     1      42.989   4.268  12.568  0.00  0.00    +0.000 A 
ATOM     29  N   UNL     1      44.129   4.062  13.240  0.00  0.00    +0.000 NA
ATOM     30  C   UNL     1      45.050   5.048  13.225  0.00  0.00    +0.000 A 
ATOM     31  C   UNL     1      44.828   6.235  12.513  0.00  0.00    +0.000 A 
BRANCH  30  32
ATOM     32  O   UNL     1      46.230   4.877  13.918  0.00  0.00    +0.000 OA
ATOM     33  C   UNL     1      46.999   3.757  13.502  0.00  0.00    +0.000 C 
ENDBRANCH  30  32
ENDBRANCH  20  23
ENDBRANCH  18  19
ENDBRANCH   4  18
TORSDOF 9
ENDMDL
