MODEL 1
REMARK VINA RESULT:    -7.161      0.000      0.000
REMARK INTER + INTRA:         -10.509
REMARK INTER:                  -9.882
REMARK INTRA:                  -0.628
REMARK UNBOUND:                -0.628
REMARK  Name = 
REMARK  7 active torsions:
REMARK  status: ('A' for Active; 'I' for Inactive)
REMARK    1  A    between atoms: N_1  and  C_2
REMARK    2  A    between atoms: C_2  and  C_3
REMARK    3  A    between atoms: C_3  and  C_4
REMARK    4  A    between atoms: C_7  and  C_8
REMARK    5  A    between atoms: C_8  and  N_10
REMARK    6  A    between atoms: N_10  and  C_11
REMARK    7  A    between atoms: C_11  and  C_12
REMARK                            x       y       z     vdW  Elec       q    Type
REMARK                         _______ _______ _______ _____ _____    ______ ____
ROOT
ATOM      1  C   UNL     1      44.090   4.742  11.655  0.00  0.00    +0.000 C 
ATOM      2  S   UNL     1      42.577   5.467  11.741  0.00  0.00    +0.000 S 
ENDROOT
BRANCH   1   6
ATOM      3  C   UNL     1      45.836   3.330   7.978  0.00  0.00    +0.000 A 
ATOM      4  C   UNL     1      45.991   4.663   8.379  0.00  0.00    +0.000 A 
ATOM      5  C   UNL     1      45.402   5.120   9.559  0.00  0.00    +0.000 A 
ATOM      6  C   UNL     1      44.690   4.243  10.386  0.00  0.00    +0.000 A 
ATOM      7  C   UNL     1      44.532   2.909   9.987  0.00  0.00    +0.000 A 
ATOM      8  C   UNL     1      45.098   2.459   8.790  0.00  0.00    +0.000 A 
BRANCH   3   9
ATOM      9  C   UNL     1      46.450   2.843   6.688  0.00  0.00    +0.000 C 
BRANCH   9  10
ATOM     10  C   UNL     1      47.614   1.876   6.925  0.00  0.00    +0.000 C 
BRANCH  10  11
ATOM     11  N   UNL     1      48.512   1.850   5.772  0.00  0.00    +0.000 NA
ATOM     12  H   UNL     1      48.862   0.901   5.637  0.00  0.00    +0.000 HD
ATOM     13  H   UNL     1      49.330   2.429   5.958  0.00  0.00    +0.000 HD
ENDBRANCH  10  11
ENDBRANCH   9  10
ENDBRANCH   3   9
ENDBRANCH   1   6
BRANCH   1  14
ATOM     14  N   UNL     1      44.794   4.633  12.832  0.00  0.00    +0.000 N 
ATOM     15  H   UNL     1      44.246   4.777  13.675  0.00  0.00    +0.000 HD
BRANCH  14  16
ATOM     16  C   UNL     1      46.149   4.142  13.045  0.00  0.00    +0.000 C 
BRANCH  16  17
ATOM     17  C   UNL     1      47.075   5.263  13.457  0.00  0.00    +0.000 A 
ATOM     18  C   UNL     1      47.385   6.270  12.550  0.00  0.00    +0.000 A 
ATOM     19  C   UNL     1      48.239   7.281  12.967  0.00  0.00    +0.000 A 
ATOM     20 BR   UNL     1      48.663   8.693  11.784  0.00  0.00    +0.000 Br
ATOM     21  C   UNL     1      48.776   7.266  14.246  0.00  0.00    +0.000 A 
ATOM     22  C   UNL     1      48.430   6.215  15.073  0.00  0.00    +0.000 A 
ATOM     23  N   UNL     1      47.598   5.213  14.707  0.00  0.00    +0.000 NA
ENDBRANCH  16  17
ENDBRANCH  14  16
ENDBRANCH   1  14
TORSDOF 7
ENDMDL
MODEL 2
REMARK VINA RESULT:    -7.033      1.290      1.938
REMARK INTER + INTRA:         -10.333
REMARK INTER:                  -9.727
REMARK INTRA:                  -0.606
REMARK UNBOUND:                -0.628
REMARK  Name = 
REMARK  7 active torsions:
REMARK  status: ('A' for Active; 'I' for Inactive)
REMARK    1  A    between atoms: N_1  and  C_2
REMARK    2  A    between atoms: C_2  and  C_3
REMARK    3  A    between atoms: C_3  and  C_4
REMARK    4  A    between atoms: C_7  and  C_8
REMARK    5  A    between atoms: C_8  and  N_10
REMARK    6  A    between atoms: N_10  and  C_11
REMARK    7  A    between atoms: C_11  and  C_12
REMARK                            x       y       z     vdW  Elec       q    Type
REMARK                         _______ _______ _______ _____ _____    ______ ____
ROOT
ATOM      1  C   UNL     1      44.026   4.840  10.646  0.00  0.00    +0.000 C 
ATOM      2  S   UNL     1      42.970   4.202  11.785  0.00  0.00    +0.000 S 
ENDROOT
BRANCH   1   6
ATOM      3  C   UNL     1      46.197   2.404   7.835  0.00  0.00    +0.000 A 
ATOM      4  C   UNL     1      45.404   1.816   8.827  0.00  0.00    +0.000 A 
ATOM      5  C   UNL     1      44.723   2.611   9.751  0.00  0.00    +0.000 A 
ATOM      6  C   UNL     1      44.780   4.008   9.668  0.00  0.00    +0.000 A 
ATOM      7  C   UNL     1      45.574   4.598   8.677  0.00  0.00    +0.000 A 
ATOM      8  C   UNL     1      46.280   3.801   7.769  0.00  0.00    +0.000 A 
BRANCH   3   9
ATOM      9  C   UNL     1      46.956   1.542   6.853  0.00  0.00    +0.000 C 
BRANCH   9  10
ATOM     10  C   UNL     1      48.282   2.177   6.424  0.00  0.00    +0.000 C 
BRANCH  10  11
ATOM     11  N   UNL     1      48.262   2.514   5.002  0.00  0.00    +0.000 NA
ATOM     12  H   UNL     1      49.168   2.293   4.589  0.00  0.00    +0.000 HD
ATOM     13  H   UNL     1      48.137   3.519   4.886  0.00  0.00    +0.000 HD
ENDBRANCH  10  11
ENDBRANCH   9  10
ENDBRANCH   3   9
ENDBRANCH   1   6
BRANCH   1  14
ATOM     14  N   UNL     1      44.168   6.209  10.631  0.00  0.00    +0.000 N 
ATOM     15  H   UNL     1      43.863   6.662   9.775  0.00  0.00    +0.000 HD
BRANCH  14  16
ATOM     16  C   UNL     1      44.497   7.107  11.730  0.00  0.00    +0.000 C 
BRANCH  16  17
ATOM     17  C   UNL     1      45.867   6.803  12.290  0.00  0.00    +0.000 A 
ATOM     18  C   UNL     1      46.987   7.427  11.751  0.00  0.00    +0.000 A 
ATOM     19  C   UNL     1      48.227   7.121  12.293  0.00  0.00    +0.000 A 
ATOM     20 BR   UNL     1      49.776   7.969  11.620  0.00  0.00    +0.000 Br
ATOM     21  C   UNL     1      48.335   6.205  13.329  0.00  0.00    +0.000 A 
ATOM     22  C   UNL     1      47.172   5.618  13.788  0.00  0.00    +0.000 A 
ATOM     23  N   UNL     1      45.944   5.891  13.290  0.00  0.00    +0.000 NA
ENDBRANCH  16  17
ENDBRANCH  14  16
ENDBRANCH   1  14
TORSDOF 7
ENDMDL
MODEL 3
REMARK VINA RESULT:    -6.892      1.614      2.161
REMARK INTER + INTRA:         -10.138
REMARK INTER:                  -9.684
REMARK INTRA:                  -0.454
REMARK UNBOUND:                -0.628
REMARK  Name = 
REMARK  7 active torsions:
REMARK  status: ('A' for Active; 'I' for Inactive)
REMARK    1  A    between atoms: N_1  and  C_2
REMARK    2  A    between atoms: C_2  and  C_3
REMARK    3  A    between atoms: C_3  and  C_4
REMARK    4  A    between atoms: C_7  and  C_8
REMARK    5  A    between atoms: C_8  and  N_10
REMARK    6  A    between atoms: N_10  and  C_11
REMARK    7  A    between atoms: C_11  and  C_12
REMARK                            x       y       z     vdW  Elec       q    Type
REMARK                         _______ _______ _______ _____ _____    ______ ____
ROOT
ATOM      1  C   UNL     1      44.013   4.471  11.652  0.00  0.00    +0.000 C 
ATOM      2  S   UNL     1      42.636   5.426  11.762  0.00  0.00    +0.000 S 
ENDROOT
BRANCH   1   6
ATOM      3  C   UNL     1      45.834   3.330   7.918  0.00  0.00    +0.000 A 
ATOM      4  C   UNL     1      45.109   2.400   8.674  0.00  0.00    +0.000 A 
ATOM      5  C   UNL     1      44.543   2.770   9.896  0.00  0.00    +0.000 A 
ATOM      6  C   UNL     1      44.646   4.088  10.359  0.00  0.00    +0.000 A 
ATOM      7  C   UNL     1      45.371   5.019   9.605  0.00  0.00    +0.000 A 
ATOM      8  C   UNL     1      45.963   4.641   8.395  0.00  0.00    +0.000 A 
BRANCH   3   9
ATOM      9  C   UNL     1      46.470   2.922   6.610  0.00  0.00    +0.000 C 
BRANCH   9  10
ATOM     10  C   UNL     1      47.902   2.413   6.793  0.00  0.00    +0.000 C 
BRANCH  10  11
ATOM     11  N   UNL     1      48.396   1.797   5.562  0.00  0.00    +0.000 NA
ATOM     12  H   UNL     1      47.854   2.142   4.770  0.00  0.00    +0.000 HD
ATOM     13  H   UNL     1      48.241   0.790   5.593  0.00  0.00    +0.000 HD
ENDBRANCH  10  11
ENDBRANCH   9  10
ENDBRANCH   3   9
ENDBRANCH   1   6
BRANCH   1  14
ATOM     14  N   UNL     1      44.571   4.048  12.837  0.00  0.00    +0.000 N 
ATOM     15  H   UNL     1      43.915   3.933  13.603  0.00  0.00    +0.000 HD
BRANCH  14  16
ATOM     16  C   UNL     1      45.917   3.551  13.088  0.00  0.00    +0.000 C 
BRANCH  16  17
ATOM     17  C   UNL     1      46.790   4.625  13.695  0.00  0.00    +0.000 A 
ATOM     18  C   UNL     1      47.190   4.521  15.022  0.00  0.00    +0.000 A 
ATOM     19  C   UNL     1      47.991   5.527  15.542  0.00  0.00    +0.000 A 
ATOM     20 BR   UNL     1      48.592   5.413  17.330  0.00  0.00    +0.000 Br
ATOM     21  C   UNL     1      48.359   6.609  14.757  0.00  0.00    +0.000 A 
ATOM     22  C   UNL     1      47.898   6.641  13.454  0.00  0.00    +0.000 A 
ATOM     23  N   UNL     1      47.120   5.679  12.908  0.00  0.00    +0.000 NA
ENDBRANCH  16  17
ENDBRANCH  14  16
ENDBRANCH   1  14
TORSDOF 7
ENDMDL
MODEL 4
REMARK VINA RESULT:    -5.800      4.027      5.755
REMARK INTER + INTRA:          -8.632
REMARK INTER:                  -8.127
REMARK INTRA:                  -0.505
REMARK UNBOUND:                -0.628
REMARK  Name = 
REMARK  7 active torsions:
REMARK  status: ('A' for Active; 'I' for Inactive)
REMARK    1  A    between atoms: N_1  and  C_2
REMARK    2  A    between atoms: C_2  and  C_3
REMARK    3  A    between atoms: C_3  and  C_4
REMARK    4  A    between atoms: C_7  and  C_8
REMARK    5  A    between atoms: C_8  and  N_10
REMARK    6  A    between atoms: N_10  and  C_11
REMARK    7  A    between atoms: C_11  and  C_12
REMARK                            x       y       z     vdW  Elec       q    Type
REMARK                         _______ _______ _______ _____ _____    ______ ____
ROOT
ATOM      1  C   UNL     1      48.257   6.558  14.496  0.00  0.00    +0.000 C 
ATOM      2  S   UNL     1      49.509   7.565  14.009  0.00  0.00    +0.000 S 
ENDROOT
BRANCH   1   6
ATOM      3  C   UNL     1      45.428   4.766  11.786  0.00  0.00    +0.000 A 
ATOM      4  C   UNL     1      45.756   4.140  12.995  0.00  0.00    +0.000 A 
ATOM      5  C   UNL     1      46.692   4.714  13.857  0.00  0.00    +0.000 A 
ATOM      6  C   UNL     1      47.279   5.948  13.552  0.00  0.00    +0.000 A 
ATOM      7  C   UNL     1      46.953   6.576  12.343  0.00  0.00    +0.000 A 
ATOM      8  C   UNL     1      46.037   5.986  11.466  0.00  0.00    +0.000 A 
BRANCH   3   9
ATOM      9  C   UNL     1      44.435   4.131  10.841  0.00  0.00    +0.000 C 
BRANCH   9  10
ATOM     10  C   UNL     1      43.141   3.717  11.547  0.00  0.00    +0.000 C 
BRANCH  10  11
ATOM     11  N   UNL     1      43.038   2.261  11.633  0.00  0.00    +0.000 NA
ATOM     12  H   UNL     1      42.728   1.999  12.569  0.00  0.00    +0.000 HD
ATOM     13  H   UNL     1      43.960   1.842  11.514  0.00  0.00    +0.000 HD
ENDBRANCH  10  11
ENDBRANCH   9  10
ENDBRANCH   3   9
ENDBRANCH   1   6
BRANCH   1  14
ATOM     14  N   UNL     1      48.164   6.288  15.842  0.00  0.00    +0.000 N 
ATOM     15  H   UNL     1      47.253   5.965  16.154  0.00  0.00    +0.000 HD
BRANCH  14  16
ATOM     16  C   UNL     1      49.229   6.204  16.833  0.00  0.00    +0.000 C 
BRANCH  16  17
ATOM     17  C   UNL     1      49.666   4.772  17.042  0.00  0.00    +0.000 A 
ATOM     18  C   UNL     1      50.959   4.502  17.477  0.00  0.00    +0.000 A 
ATOM     19  C   UNL     1      51.322   3.176  17.657  0.00  0.00    +0.000 A 
ATOM     20 BR   UNL     1      53.056   2.757  18.281  0.00  0.00    +0.000 Br
ATOM     21  C   UNL     1      50.419   2.157  17.389  0.00  0.00    +0.000 A 
ATOM     22  C   UNL     1      49.163   2.517  16.940  0.00  0.00    +0.000 A 
ATOM     23  N   UNL     1      48.768   3.798  16.756  0.00  0.00    +0.000 NA
ENDBRANCH  16  17
ENDBRANCH  14  16
ENDBRANCH   1  14
TORSDOF 7
ENDMDL
MODEL 5
REMARK VINA RESULT:    -5.785      3.145      6.842
REMARK INTER + INTRA:          -8.611
REMARK INTER:                  -8.034
REMARK INTRA:                  -0.577
REMARK UNBOUND:                -0.628
REMARK  Name = 
REMARK  7 active torsions:
REMARK  status: ('A' for Active; 'I' for Inactive)
REMARK    1  A    between atoms: N_1  and  C_2
REMARK    2  A    between atoms: C_2  and  C_3
REMARK    3  A    between atoms: C_3  and  C_4
REMARK    4  A    between atoms: C_7  and  C_8
REMARK    5  A    between atoms: C_8  and  N_10
REMARK    6  A    between atoms: N_10  and  C_11
REMARK    7  A    between atoms: C_11  and  C_12
REMARK                            x       y       z     vdW  Elec       q    Type
REMARK                         _______ _______ _______ _____ _____    ______ ____
ROOT
ATOM      1  C   UNL     1      47.073   6.695  12.965  0.00  0.00    +0.000 C 
ATOM      2  S   UNL     1      48.246   7.564  12.134  0.00  0.00    +0.000 S 
ENDROOT
BRANCH   1   6
ATOM      3  C   UNL     1      47.972   4.130  16.307  0.00  0.00    +0.000 A 
ATOM      4  C   UNL     1      48.513   5.419  16.229  0.00  0.00    +0.000 A 
ATOM      5  C   UNL     1      48.238   6.236  15.130  0.00  0.00    +0.000 A 
ATOM      6  C   UNL     1      47.376   5.800  14.116  0.00  0.00    +0.000 A 
ATOM      7  C   UNL     1      46.834   4.511  14.192  0.00  0.00    +0.000 A 
ATOM      8  C   UNL     1      47.133   3.682  15.278  0.00  0.00    +0.000 A 
BRANCH   3   9
ATOM      9  C   UNL     1      48.292   3.237  17.482  0.00  0.00    +0.000 C 
BRANCH   9  10
ATOM     10  C   UNL     1      49.708   2.660  17.406  0.00  0.00    +0.000 C 
BRANCH  10  11
ATOM     11  N   UNL     1      49.839   1.751  16.269  0.00  0.00    +0.000 NA
ATOM     12  H   UNL     1      49.078   1.921  15.611  0.00  0.00    +0.000 HD
ATOM     13  H   UNL     1      49.730   0.787  16.582  0.00  0.00    +0.000 HD
ENDBRANCH  10  11
ENDBRANCH   9  10
ENDBRANCH   3   9
ENDBRANCH   1   6
BRANCH   1  14
ATOM     14  N   UNL     1      45.772   6.851  12.545  0.00  0.00    +0.000 N 
ATOM     15  H   UNL     1      45.118   7.128  13.271  0.00  0.00    +0.000 HD
BRANCH  14  16
ATOM     16  C   UNL     1      45.245   6.877  11.187  0.00  0.00    +0.000 C 
BRANCH  16  17
ATOM     17  C   UNL     1      45.054   5.476  10.652  0.00  0.00    +0.000 A 
ATOM     18  C   UNL     1      45.544   5.146   9.393  0.00  0.00    +0.000 A 
ATOM     19  C   UNL     1      45.348   3.851   8.937  0.00  0.00    +0.000 A 
ATOM     20 BR   UNL     1      46.026   3.342   7.248  0.00  0.00    +0.000 Br
ATOM     21  C   UNL     1      44.665   2.927   9.715  0.00  0.00    +0.000 A 
ATOM     22  C   UNL     1      44.195   3.348  10.944  0.00  0.00    +0.000 A 
ATOM     23  N   UNL     1      44.368   4.600  11.426  0.00  0.00    +0.000 NA
ENDBRANCH  16  17
ENDBRANCH  14  16
ENDBRANCH   1  14
TORSDOF 7
ENDMDL
MODEL 6
REMARK VINA RESULT:    -5.747      4.001      5.400
REMARK INTER + INTRA:          -8.558
REMARK INTER:                  -8.080
REMARK INTRA:                  -0.478
REMARK UNBOUND:                -0.628
REMARK  Name = 
REMARK  7 active torsions:
REMARK  status: ('A' for Active; 'I' for Inactive)
REMARK    1  A    between atoms: N_1  and  C_2
REMARK    2  A    between atoms: C_2  and  C_3
REMARK    3  A    between atoms: C_3  and  C_4
REMARK    4  A    between atoms: C_7  and  C_8
REMARK    5  A    between atoms: C_8  and  N_10
REMARK    6  A    between atoms: N_10  and  C_11
REMARK    7  A    between atoms: C_11  and  C_12
REMARK                            x       y       z     vdW  Elec       q    Type
REMARK                         _______ _______ _______ _____ _____    ______ ____
ROOT
ATOM      1  C   UNL     1      48.151   6.924  13.667  0.00  0.00    +0.000 C 
ATOM      2  S   UNL     1      49.466   7.600  12.871  0.00  0.00    +0.000 S 
ENDROOT
BRANCH   1   6
ATOM      3  C   UNL     1      44.861   5.057  11.606  0.00  0.00    +0.000 A 
ATOM      4  C   UNL     1      45.575   6.104  11.011  0.00  0.00    +0.000 A 
ATOM      5  C   UNL     1      46.624   6.721  11.696  0.00  0.00    +0.000 A 
ATOM      6  C   UNL     1      47.012   6.270  12.963  0.00  0.00    +0.000 A 
ATOM      7  C   UNL     1      46.298   5.224  13.560  0.00  0.00    +0.000 A 
ATOM      8  C   UNL     1      45.229   4.624  12.887  0.00  0.00    +0.000 A 
BRANCH   3   9
ATOM      9  C   UNL     1      43.709   4.407  10.877  0.00  0.00    +0.000 C 
BRANCH   9  10
ATOM     10  C   UNL     1      43.898   2.896  10.716  0.00  0.00    +0.000 C 
BRANCH  10  11
ATOM     11  N   UNL     1      43.035   2.162  11.641  0.00  0.00    +0.000 NA
ATOM     12  H   UNL     1      42.115   2.037  11.218  0.00  0.00    +0.000 HD
ATOM     13  H   UNL     1      42.885   2.714  12.485  0.00  0.00    +0.000 HD
ENDBRANCH  10  11
ENDBRANCH   9  10
ENDBRANCH   3   9
ENDBRANCH   1   6
BRANCH   1  14
ATOM     14  N   UNL     1      48.162   6.980  15.042  0.00  0.00    +0.000 N 
ATOM     15  H   UNL     1      47.251   7.097  15.474  0.00  0.00    +0.000 HD
BRANCH  14  16
ATOM     16  C   UNL     1      49.256   6.690  15.960  0.00  0.00    +0.000 C 
BRANCH  16  17
ATOM     17  C   UNL     1      48.923   5.515  16.850  0.00  0.00    +0.000 A 
ATOM     18  C   UNL     1      49.027   5.643  18.230  0.00  0.00    +0.000 A 
ATOM     19  C   UNL     1      48.712   4.542  19.013  0.00  0.00    +0.000 A 
ATOM     20 BR   UNL     1      48.802   4.677  20.895  0.00  0.00    +0.000 Br
ATOM     21  C   UNL     1      48.325   3.348  18.423  0.00  0.00    +0.000 A 
ATOM     22  C   UNL     1      48.270   3.304  17.043  0.00  0.00    +0.000 A 
ATOM     23  N   UNL     1      48.564   4.356  16.245  0.00  0.00    +0.000 NA
ENDBRANCH  16  17
ENDBRANCH  14  16
ENDBRANCH   1  14
TORSDOF 7
ENDMDL
MODEL 7
REMARK VINA RESULT:    -5.474      3.216      4.657
REMARK INTER + INTRA:          -8.183
REMARK INTER:                  -7.546
REMARK INTRA:                  -0.636
REMARK UNBOUND:                -0.628
REMARK  Name = 
REMARK  7 active torsions:
REMARK  status: ('A' for Active; 'I' for Inactive)
REMARK    1  A    between atoms: N_1  and  C_2
REMARK    2  A    between atoms: C_2  and  C_3
REMARK    3  A    between atoms: C_3  and  C_4
REMARK    4  A    between atoms: C_7  and  C_8
REMARK    5  A    between atoms: C_8  and  N_10
REMARK    6  A    between atoms: N_10  and  C_11
REMARK    7  A    between atoms: C_11  and  C_12
REMARK                            x       y       z     vdW  Elec       q    Type
REMARK                         _______ _______ _______ _____ _____    ______ ____
ROOT
ATOM      1  C   UNL     1      47.452   7.260  13.240  0.00  0.00    +0.000 C 
ATOM      2  S   UNL     1      48.207   8.476  12.362  0.00  0.00    +0.000 S 
ENDROOT
BRANCH   1   6
ATOM      3  C   UNL     1      44.925   4.245  11.484  0.00  0.00    +0.000 A 
ATOM      4  C   UNL     1      45.466   4.069  12.763  0.00  0.00    +0.000 A 
ATOM      5  C   UNL     1      46.305   5.039  13.316  0.00  0.00    +0.000 A 
ATOM      6  C   UNL     1      46.576   6.225  12.623  0.00  0.00    +0.000 A 
ATOM      7  C   UNL     1      46.037   6.403  11.343  0.00  0.00    +0.000 A 
ATOM      8  C   UNL     1      45.220   5.418  10.778  0.00  0.00    +0.000 A 
BRANCH   3   9
ATOM      9  C   UNL     1      44.041   3.183  10.875  0.00  0.00    +0.000 C 
BRANCH   9  10
ATOM     10  C   UNL     1      44.399   2.893   9.415  0.00  0.00    +0.000 C 
BRANCH  10  11
ATOM     11  N   UNL     1      45.363   1.797   9.324  0.00  0.00    +0.000 NA
ATOM     12  H   UNL     1      45.372   1.433   8.371  0.00  0.00    +0.000 HD
ATOM     13  H   UNL     1      45.065   1.024   9.919  0.00  0.00    +0.000 HD
ENDBRANCH  10  11
ENDBRANCH   9  10
ENDBRANCH   3   9
ENDBRANCH   1   6
BRANCH   1  14
ATOM     14  N   UNL     1      47.686   7.236  14.596  0.00  0.00    +0.000 N 
ATOM     15  H   UNL     1      46.911   6.900  15.159  0.00  0.00    +0.000 HD
BRANCH  14  16
ATOM     16  C   UNL     1      48.941   7.426  15.311  0.00  0.00    +0.000 C 
BRANCH  16  17
ATOM     17  C   UNL     1      49.285   6.211  16.141  0.00  0.00    +0.000 A 
ATOM     18  C   UNL     1      48.294   5.287  16.454  0.00  0.00    +0.000 A 
ATOM     19  C   UNL     1      48.650   4.184  17.217  0.00  0.00    +0.000 A 
ATOM     20 BR   UNL     1      47.348   2.881  17.639  0.00  0.00    +0.000 Br
ATOM     21  C   UNL     1      49.953   4.030  17.665  0.00  0.00    +0.000 A 
ATOM     22  C   UNL     1      50.867   5.008  17.324  0.00  0.00    +0.000 A 
ATOM     23  N   UNL     1      50.563   6.095  16.578  0.00  0.00    +0.000 NA
ENDBRANCH  16  17
ENDBRANCH  14  16
ENDBRANCH   1  14
TORSDOF 7
ENDMDL
MODEL 8
REMARK VINA RESULT:    -5.137      4.664      8.084
REMARK INTER + INTRA:          -7.717
REMARK INTER:                  -7.342
REMARK INTRA:                  -0.375
REMARK UNBOUND:                -0.628
REMARK  Name = 
REMARK  7 active torsions:
REMARK  status: ('A' for Active; 'I' for Inactive)
REMARK    1  A    between atoms: N_1  and  C_2
REMARK    2  A    between atoms: C_2  and  C_3
REMARK    3  A    between atoms: C_3  and  C_4
REMARK    4  A    between atoms: C_7  and  C_8
REMARK    5  A    between atoms: C_8  and  N_10
REMARK    6  A    between atoms: N_10  and  C_11
REMARK    7  A    between atoms: C_11  and  C_12
REMARK                            x       y       z     vdW  Elec       q    Type
REMARK                         _______ _______ _______ _____ _____    ______ ____
ROOT
ATOM      1  C   UNL     1      48.202   4.844  17.222  0.00  0.00    +0.000 C 
ATOM      2  S   UNL     1      47.259   5.350  18.517  0.00  0.00    +0.000 S 
ENDROOT
BRANCH   1   6
ATOM      3  C   UNL     1      51.924   2.724  17.682  0.00  0.00    +0.000 A 
ATOM      4  C   UNL     1      51.876   4.119  17.797  0.00  0.00    +0.000 A 
ATOM      5  C   UNL     1      50.671   4.802  17.622  0.00  0.00    +0.000 A 
ATOM      6  C   UNL     1      49.483   4.101  17.380  0.00  0.00    +0.000 A 
ATOM      7  C   UNL     1      49.528   2.706  17.263  0.00  0.00    +0.000 A 
ATOM      8  C   UNL     1      50.741   2.024  17.410  0.00  0.00    +0.000 A 
BRANCH   3   9
ATOM      9  C   UNL     1      53.232   1.988  17.844  0.00  0.00    +0.000 C 
BRANCH   9  10
ATOM     10  C   UNL     1      53.045   0.469  17.890  0.00  0.00    +0.000 C 
BRANCH  10  11
ATOM     11  N   UNL     1      53.512  -0.150  16.650  0.00  0.00    +0.000 NA
ATOM     12  H   UNL     1      52.842  -0.860  16.354  0.00  0.00    +0.000 HD
ATOM     13  H   UNL     1      54.389  -0.643  16.819  0.00  0.00    +0.000 HD
ENDBRANCH  10  11
ENDBRANCH   9  10
ENDBRANCH   3   9
ENDBRANCH   1   6
BRANCH   1  14
ATOM     14  N   UNL     1      47.732   5.134  15.962  0.00  0.00    +0.000 N 
ATOM     15  H   UNL     1      48.032   6.029  15.587  0.00  0.00    +0.000 HD
BRANCH  14  16
ATOM     16  C   UNL     1      47.044   4.261  15.019  0.00  0.00    +0.000 C 
BRANCH  16  17
ATOM     17  C   UNL     1      46.584   5.029  13.802  0.00  0.00    +0.000 A 
ATOM     18  C   UNL     1      45.294   4.844  13.316  0.00  0.00    +0.000 A 
ATOM     19  C   UNL     1      44.910   5.568  12.197  0.00  0.00    +0.000 A 
ATOM     20 BR   UNL     1      43.156   5.379  11.518  0.00  0.00    +0.000 Br
ATOM     21  C   UNL     1      45.800   6.433  11.579  0.00  0.00    +0.000 A 
ATOM     22  C   UNL     1      47.068   6.539  12.118  0.00  0.00    +0.000 A 
ATOM     23  N   UNL     1      47.481   5.855  13.209  0.00  0.00    +0.000 NA
ENDBRANCH  16  17
ENDBRANCH  14  16
ENDBRANCH   1  14
TORSDOF 7
ENDMDL
MODEL 9
REMARK VINA RESULT:    -5.027      4.463      8.031
REMARK INTER + INTRA:          -7.565
REMARK INTER:                  -7.130
REMARK INTRA:                  -0.435
REMARK UNBOUND:                -0.628
REMARK  Name = 
REMARK  7 active torsions:
REMARK  status: ('A' for Active; 'I' for Inactive)
REMARK    1  A    between atoms: N_1  and  C_2
REMARK    2  A    between atoms: C_2  and  C_3
REMARK    3  A    between atoms: C_3  and  C_4
REMARK    4  A    between atoms: C_7  and  C_8
REMARK    5  A    between atoms: C_8  and  N_10
REMARK    6  A    between atoms: N_10  and  C_11
REMARK    7  A    between atoms: C_11  and  C_12
REMARK                            x       y       z     vdW  Elec       q    Type
REMARK                         _______ _______ _______ _____ _____    ______ ____
ROOT
ATOM      1  C   UNL     1      48.234   4.792  17.229  0.00  0.00    +0.000 C 
ATOM      2  S   UNL     1      47.215   5.194  18.502  0.00  0.00    +0.000 S 
ENDROOT
BRANCH   1   6
ATOM      3  C   UNL     1      51.962   2.695  17.741  0.00  0.00    +0.000 A 
ATOM      4  C   UNL     1      50.790   2.002  17.416  0.00  0.00    +0.000 A 
ATOM      5  C   UNL     1      49.580   2.685  17.276  0.00  0.00    +0.000 A 
ATOM      6  C   UNL     1      49.529   4.078  17.407  0.00  0.00    +0.000 A 
ATOM      7  C   UNL     1      50.700   4.774  17.733  0.00  0.00    +0.000 A 
ATOM      8  C   UNL     1      51.906   4.086  17.901  0.00  0.00    +0.000 A 
BRANCH   3   9
ATOM      9  C   UNL     1      53.265   1.953  17.919  0.00  0.00    +0.000 C 
BRANCH   9  10
ATOM     10  C   UNL     1      53.087   0.435  17.835  0.00  0.00    +0.000 C 
BRANCH  10  11
ATOM     11  N   UNL     1      53.726  -0.099  16.633  0.00  0.00    +0.000 NA
ATOM     12  H   UNL     1      53.022  -0.550  16.048  0.00  0.00    +0.000 HD
ATOM     13  H   UNL     1      54.390  -0.829  16.890  0.00  0.00    +0.000 HD
ENDBRANCH  10  11
ENDBRANCH   9  10
ENDBRANCH   3   9
ENDBRANCH   1   6
BRANCH   1  14
ATOM     14  N   UNL     1      47.815   5.141  15.965  0.00  0.00    +0.000 N 
ATOM     15  H   UNL     1      48.223   5.996  15.598  0.00  0.00    +0.000 HD
BRANCH  14  16
ATOM     16  C   UNL     1      47.040   4.359  15.010  0.00  0.00    +0.000 C 
BRANCH  16  17
ATOM     17  C   UNL     1      46.865   5.108  13.709  0.00  0.00    +0.000 A 
ATOM     18  C   UNL     1      47.764   6.111  13.364  0.00  0.00    +0.000 A 
ATOM     19  C   UNL     1      47.569   6.774  12.161  0.00  0.00    +0.000 A 
ATOM     20 BR   UNL     1      48.783   8.121  11.629  0.00  0.00    +0.000 Br
ATOM     21  C   UNL     1      46.494   6.451  11.346  0.00  0.00    +0.000 A 
ATOM     22  C   UNL     1      45.639   5.456  11.778  0.00  0.00    +0.000 A 
ATOM     23  N   UNL     1      45.797   4.782  12.941  0.00  0.00    +0.000 NA
ENDBRANCH  16  17
ENDBRANCH  14  16
ENDBRANCH   1  14
TORSDOF 7
ENDMDL
