MODEL 1
REMARK VINA RESULT:    -8.642      0.000      0.000
REMARK INTER + INTRA:         -14.342
REMARK INTER:                 -13.441
REMARK INTRA:                  -0.901
REMARK UNBOUND:                -0.901
REMARK  Name = 
REMARK  11 active torsions:
REMARK  status: ('A' for Active; 'I' for Inactive)
REMARK    1  A    between atoms: C_1  and  C_2
REMARK    2  A    between atoms: C_2  and  N_3
REMARK    3  A    between atoms: C_2  and  C_22
REMARK    4  A    between atoms: N_3  and  C_4
REMARK    5  A    between atoms: C_4  and  C_5
REMARK    6  A    between atoms: C_9  and  C_10
REMARK    7  A    between atoms: C_10  and  N_11
REMARK    8  A    between atoms: N_11  and  CA_12
REMARK    9  A    between atoms: CA_12  and  C_13
REMARK   10  A    between atoms: CA_12  and  C_15
REMARK   11  A    between atoms: C_13  and  O_14
REMARK                            x       y       z     vdW  Elec       q    Type
REMARK                         _______ _______ _______ _____ _____    ______ ____
ROOT
ATOM      1  C   UNL     1      46.737   5.296  13.727  0.00  0.00    +0.000 A 
ATOM      2  C   UNL     1      47.736   6.085  13.148  0.00  0.00    +0.000 A 
ATOM      3  C   UNL     1      47.424   6.950  12.105  0.00  0.00    +0.000 A 
ATOM      4  C   UNL     1      46.117   7.004  11.610  0.00  0.00    +0.000 A 
ATOM      5  C   UNL     1      45.114   6.189  12.155  0.00  0.00    +0.000 A 
ATOM      6  C   UNL     1      45.433   5.358  13.232  0.00  0.00    +0.000 A 
ENDROOT
BRANCH   1   7
ATOM      7  C   UNL     1      47.056   4.324  14.829  0.00  0.00    +0.000 C 
BRANCH   7   8
ATOM      8  N   UNL     1      48.244   4.733  15.570  0.00  0.00    +0.000 NA
ATOM      9  H   UNL     1      48.553   5.642  15.226  0.00  0.00    +0.000 HD
BRANCH   8  11
ATOM     10  C   UNL     1      46.946   3.779  17.426  0.00  0.00    +0.000 C 
ATOM     11  C   UNL     1      48.013   4.814  17.019  0.00  0.00    +0.000 C 
BRANCH  11  12
ATOM     12  C   UNL     1      49.356   4.549  17.696  0.00  0.00    +0.000 A 
ATOM     13  C   UNL     1      49.927   5.433  18.595  0.00  0.00    +0.000 A 
ATOM     14  S   UNL     1      51.449   4.945  19.178  0.00  0.00    +0.000 S 
ATOM     15  C   UNL     1      51.404   3.512  18.268  0.00  0.00    +0.000 A 
ATOM     16  N   UNL     1      52.450   2.640  18.293  0.00  0.00    +0.000 NA
ATOM     17  C   UNL     1      52.290   1.590  17.560  0.00  0.00    +0.000 A 
ATOM     18  N   UNL     1      51.172   1.321  16.826  0.00  0.00    +0.000 N 
ATOM     19  C   UNL     1      50.060   2.141  16.820  0.00  0.00    +0.000 A 
ATOM     20  O   UNL     1      49.020   1.811  16.241  0.00  0.00    +0.000 OA
ATOM     21  C   UNL     1      50.216   3.382  17.561  0.00  0.00    +0.000 A 
ATOM     22  H   UNL     1      51.090   0.455  16.308  0.00  0.00    +0.000 HD
ENDBRANCH  11  12
ENDBRANCH   8  11
ENDBRANCH   7   8
ENDBRANCH   1   7
BRANCH   5  23
ATOM     23  C   UNL     1      43.707   6.174  11.606  0.00  0.00    +0.000 C 
BRANCH  23  24
ATOM     24  N   UNL     1      43.587   5.185  10.537  0.00  0.00    +0.000 NA
ATOM     25  H   UNL     1      43.967   5.606   9.688  0.00  0.00    +0.000 HD
BRANCH  24  26
ATOM     26  CA  UNL     1      44.331   3.931  10.784  0.00  0.00    +0.000 C 
BRANCH  26  27
ATOM     27  C   UNL     1      45.073   3.538   9.515  0.00  0.00    +0.000 A 
ATOM     28  C   UNL     1      45.334   2.198   9.186  0.00  0.00    +0.000 A 
ATOM     29  C   UNL     1      46.020   1.881   8.018  0.00  0.00    +0.000 A 
ATOM     30  C   UNL     1      46.444   2.923   7.214  0.00  0.00    +0.000 A 
ATOM     31  N   UNL     1      46.228   4.226   7.493  0.00  0.00    +0.000 NA
ATOM     32  C   UNL     1      45.558   4.504   8.633  0.00  0.00    +0.000 A 
ENDBRANCH  26  27
BRANCH  26  33
ATOM     33  C   UNL     1      43.438   2.755  11.265  0.00  0.00    +0.000 C 
BRANCH  33  34
ATOM     34  O   UNL     1      43.784   2.296  12.570  0.00  0.00    +0.000 OA
ATOM     35  H   UNL     1      43.338   1.437  12.684  0.00  0.00    +0.000 HD
ENDBRANCH  33  34
ENDBRANCH  26  33
ENDBRANCH  24  26
ENDBRANCH  23  24
ENDBRANCH   5  23
TORSDOF 10
ENDMDL
MODEL 2
REMARK VINA RESULT:    -7.950      1.617      2.045
REMARK INTER + INTRA:         -13.266
REMARK INTER:                 -12.066
REMARK INTRA:                  -1.200
REMARK UNBOUND:                -0.901
REMARK  Name = 
REMARK  11 active torsions:
REMARK  status: ('A' for Active; 'I' for Inactive)
REMARK    1  A    between atoms: C_1  and  C_2
REMARK    2  A    between atoms: C_2  and  N_3
REMARK    3  A    between atoms: C_2  and  C_22
REMARK    4  A    between atoms: N_3  and  C_4
REMARK    5  A    between atoms: C_4  and  C_5
REMARK    6  A    between atoms: C_9  and  C_10
REMARK    7  A    between atoms: C_10  and  N_11
REMARK    8  A    between atoms: N_11  and  CA_12
REMARK    9  A    between atoms: CA_12  and  C_13
REMARK   10  A    between atoms: CA_12  and  C_15
REMARK   11  A    between atoms: C_13  and  O_14
REMARK                            x       y       z     vdW  Elec       q    Type
REMARK                         _______ _______ _______ _____ _____    ______ ____
ROOT
ATOM      1  C   UNL     1      46.580   5.498  13.674  0.00  0.00    +0.000 A 
ATOM      2  C   UNL     1      47.575   6.222  13.011  0.00  0.00    +0.000 A 
ATOM      3  C   UNL     1      47.258   6.970  11.882  0.00  0.00    +0.000 A 
ATOM      4  C   UNL     1      45.951   6.967  11.388  0.00  0.00    +0.000 A 
ATOM      5  C   UNL     1      44.951   6.212  12.019  0.00  0.00    +0.000 A 
ATOM      6  C   UNL     1      45.274   5.502  13.178  0.00  0.00    +0.000 A 
ENDROOT
BRANCH   1   7
ATOM      7  C   UNL     1      46.904   4.651  14.873  0.00  0.00    +0.000 C 
BRANCH   7   8
ATOM      8  N   UNL     1      47.973   5.244  15.669  0.00  0.00    +0.000 NA
ATOM      9  H   UNL     1      47.836   6.254  15.707  0.00  0.00    +0.000 HD
BRANCH   8  11
ATOM     10  C   UNL     1      47.014   3.560  17.180  0.00  0.00    +0.000 C 
ATOM     11  C   UNL     1      48.032   4.708  17.036  0.00  0.00    +0.000 C 
BRANCH  11  12
ATOM     12  C   UNL     1      49.466   4.234  17.263  0.00  0.00    +0.000 A 
ATOM     13  C   UNL     1      49.799   2.896  17.385  0.00  0.00    +0.000 A 
ATOM     14  S   UNL     1      51.451   2.616  17.684  0.00  0.00    +0.000 S 
ATOM     15  C   UNL     1      51.801   4.277  17.641  0.00  0.00    +0.000 A 
ATOM     16  N   UNL     1      53.067   4.726  17.864  0.00  0.00    +0.000 NA
ATOM     17  C   UNL     1      53.200   6.008  17.802  0.00  0.00    +0.000 A 
ATOM     18  N   UNL     1      52.189   6.878  17.513  0.00  0.00    +0.000 N 
ATOM     19  C   UNL     1      50.903   6.468  17.216  0.00  0.00    +0.000 A 
ATOM     20  O   UNL     1      50.042   7.269  16.842  0.00  0.00    +0.000 OA
ATOM     21  C   UNL     1      50.675   5.038  17.353  0.00  0.00    +0.000 A 
ATOM     22  H   UNL     1      52.370   7.872  17.434  0.00  0.00    +0.000 HD
ENDBRANCH  11  12
ENDBRANCH   8  11
ENDBRANCH   7   8
ENDBRANCH   1   7
BRANCH   5  23
ATOM     23  C   UNL     1      43.542   6.135  11.478  0.00  0.00    +0.000 C 
BRANCH  23  24
ATOM     24  N   UNL     1      43.450   5.108  10.443  0.00  0.00    +0.000 NA
ATOM     25  H   UNL     1      43.805   5.515   9.577  0.00  0.00    +0.000 HD
BRANCH  24  26
ATOM     26  CA  UNL     1      44.244   3.891  10.722  0.00  0.00    +0.000 C 
BRANCH  26  27
ATOM     27  C   UNL     1      45.023   3.513   9.471  0.00  0.00    +0.000 A 
ATOM     28  C   UNL     1      45.350   2.181   9.169  0.00  0.00    +0.000 A 
ATOM     29  C   UNL     1      46.069   1.876   8.018  0.00  0.00    +0.000 A 
ATOM     30  C   UNL     1      46.458   2.923   7.203  0.00  0.00    +0.000 A 
ATOM     31  N   UNL     1      46.178   4.219   7.457  0.00  0.00    +0.000 NA
ATOM     32  C   UNL     1      45.478   4.485   8.581  0.00  0.00    +0.000 A 
ENDBRANCH  26  27
BRANCH  26  33
ATOM     33  C   UNL     1      43.395   2.684  11.207  0.00  0.00    +0.000 C 
BRANCH  33  34
ATOM     34  O   UNL     1      43.721   2.277  12.534  0.00  0.00    +0.000 OA
ATOM     35  H   UNL     1      42.931   1.824  12.882  0.00  0.00    +0.000 HD
ENDBRANCH  33  34
ENDBRANCH  26  33
ENDBRANCH  24  26
ENDBRANCH  23  24
ENDBRANCH   5  23
TORSDOF 10
ENDMDL
MODEL 3
REMARK VINA RESULT:    -7.823      1.224      1.608
REMARK INTER + INTRA:         -13.068
REMARK INTER:                 -11.963
REMARK INTRA:                  -1.105
REMARK UNBOUND:                -0.901
REMARK  Name = 
REMARK  11 active torsions:
REMARK  status: ('A' for Active; 'I' for Inactive)
REMARK    1  A    between atoms: C_1  and  C_2
REMARK    2  A    between atoms: C_2  and  N_3
REMARK    3  A    between atoms: C_2  and  C_22
REMARK    4  A    between atoms: N_3  and  C_4
REMARK    5  A    between atoms: C_4  and  C_5
REMARK    6  A    between atoms: C_9  and  C_10
REMARK    7  A    between atoms: C_10  and  N_11
REMARK    8  A    between atoms: N_11  and  CA_12
REMARK    9  A    between atoms: CA_12  and  C_13
REMARK   10  A    between atoms: CA_12  and  C_15
REMARK   11  A    between atoms: C_13  and  O_14
REMARK                            x       y       z     vdW  Elec       q    Type
REMARK                         _______ _______ _______ _____ _____    ______ ____
ROOT
ATOM      1  C   UNL     1      48.788   6.926  14.061  0.00  0.00    +0.000 A 
ATOM      2  C   UNL     1      49.099   7.584  12.867  0.00  0.00    +0.000 A 
ATOM      3  C   UNL     1      48.249   7.480  11.772  0.00  0.00    +0.000 A 
ATOM      4  C   UNL     1      47.101   6.685  11.853  0.00  0.00    +0.000 A 
ATOM      5  C   UNL     1      46.798   5.987  13.031  0.00  0.00    +0.000 A 
ATOM      6  C   UNL     1      47.638   6.138  14.137  0.00  0.00    +0.000 A 
ENDROOT
BRANCH   1   7
ATOM      7  C   UNL     1      49.711   6.990  15.246  0.00  0.00    +0.000 C 
BRANCH   7   8
ATOM      8  N   UNL     1      49.684   5.747  16.008  0.00  0.00    +0.000 NA
ATOM      9  H   UNL     1      50.464   5.160  15.712  0.00  0.00    +0.000 HD
BRANCH   8  11
ATOM     10  C   UNL     1      48.398   5.636  18.099  0.00  0.00    +0.000 C 
ATOM     11  C   UNL     1      49.761   5.964  17.460  0.00  0.00    +0.000 C 
BRANCH  11  12
ATOM     12  C   UNL     1      50.872   5.058  17.984  0.00  0.00    +0.000 A 
ATOM     13  C   UNL     1      51.895   5.521  18.794  0.00  0.00    +0.000 A 
ATOM     14  S   UNL     1      53.044   4.337  19.210  0.00  0.00    +0.000 S 
ATOM     15  C   UNL     1      52.210   3.139  18.340  0.00  0.00    +0.000 A 
ATOM     16  N   UNL     1      52.699   1.871  18.264  0.00  0.00    +0.000 NA
ATOM     17  C   UNL     1      51.972   1.057  17.576  0.00  0.00    +0.000 A 
ATOM     18  N   UNL     1      50.790   1.389  16.979  0.00  0.00    +0.000 N 
ATOM     19  C   UNL     1      50.221   2.644  17.083  0.00  0.00    +0.000 A 
ATOM     20  O   UNL     1      49.096   2.880  16.633  0.00  0.00    +0.000 OA
ATOM     21  C   UNL     1      51.039   3.626  17.776  0.00  0.00    +0.000 A 
ATOM     22  H   UNL     1      50.243   0.690  16.492  0.00  0.00    +0.000 HD
ENDBRANCH  11  12
ENDBRANCH   8  11
ENDBRANCH   7   8
ENDBRANCH   1   7
BRANCH   5  23
ATOM     23  C   UNL     1      45.601   5.072  13.135  0.00  0.00    +0.000 C 
BRANCH  23  24
ATOM     24  N   UNL     1      44.885   5.023  11.862  0.00  0.00    +0.000 NA
ATOM     25  H   UNL     1      45.449   5.525  11.175  0.00  0.00    +0.000 HD
BRANCH  24  26
ATOM     26  CA  UNL     1      44.662   3.657  11.342  0.00  0.00    +0.000 C 
BRANCH  26  27
ATOM     27  C   UNL     1      45.184   3.580   9.915  0.00  0.00    +0.000 A 
ATOM     28  C   UNL     1      45.320   2.360   9.233  0.00  0.00    +0.000 A 
ATOM     29  C   UNL     1      45.806   2.331   7.930  0.00  0.00    +0.000 A 
ATOM     30  C   UNL     1      46.161   3.534   7.346  0.00  0.00    +0.000 A 
ATOM     31  N   UNL     1      46.061   4.729   7.965  0.00  0.00    +0.000 NA
ATOM     32  C   UNL     1      45.585   4.726   9.229  0.00  0.00    +0.000 A 
ENDBRANCH  26  27
BRANCH  26  33
ATOM     33  C   UNL     1      43.179   3.199  11.392  0.00  0.00    +0.000 C 
BRANCH  33  34
ATOM     34  O   UNL     1      43.036   1.824  11.742  0.00  0.00    +0.000 OA
ATOM     35  H   UNL     1      43.020   1.329  10.902  0.00  0.00    +0.000 HD
ENDBRANCH  33  34
ENDBRANCH  26  33
ENDBRANCH  24  26
ENDBRANCH  23  24
ENDBRANCH   5  23
TORSDOF 10
ENDMDL
MODEL 4
REMARK VINA RESULT:    -7.697      2.121      2.755
REMARK INTER + INTRA:         -12.872
REMARK INTER:                 -11.885
REMARK INTRA:                  -0.987
REMARK UNBOUND:                -0.901
REMARK  Name = 
REMARK  11 active torsions:
REMARK  status: ('A' for Active; 'I' for Inactive)
REMARK    1  A    between atoms: C_1  and  C_2
REMARK    2  A    between atoms: C_2  and  N_3
REMARK    3  A    between atoms: C_2  and  C_22
REMARK    4  A    between atoms: N_3  and  C_4
REMARK    5  A    between atoms: C_4  and  C_5
REMARK    6  A    between atoms: C_9  and  C_10
REMARK    7  A    between atoms: C_10  and  N_11
REMARK    8  A    between atoms: N_11  and  CA_12
REMARK    9  A    between atoms: CA_12  and  C_13
REMARK   10  A    between atoms: CA_12  and  C_15
REMARK   11  A    between atoms: C_13  and  O_14
REMARK                            x       y       z     vdW  Elec       q    Type
REMARK                         _______ _______ _______ _____ _____    ______ ____
ROOT
ATOM      1  C   UNL     1      46.509   5.287  13.639  0.00  0.00    +0.000 A 
ATOM      2  C   UNL     1      47.488   6.086  13.040  0.00  0.00    +0.000 A 
ATOM      3  C   UNL     1      47.171   6.861  11.930  0.00  0.00    +0.000 A 
ATOM      4  C   UNL     1      45.883   6.813  11.390  0.00  0.00    +0.000 A 
ATOM      5  C   UNL     1      44.902   5.985  11.956  0.00  0.00    +0.000 A 
ATOM      6  C   UNL     1      45.223   5.246  13.098  0.00  0.00    +0.000 A 
ENDROOT
BRANCH   1   7
ATOM      7  C   UNL     1      46.837   4.409  14.815  0.00  0.00    +0.000 C 
BRANCH   7   8
ATOM      8  N   UNL     1      47.547   5.152  15.850  0.00  0.00    +0.000 NA
ATOM      9  H   UNL     1      47.186   6.105  15.882  0.00  0.00    +0.000 HD
BRANCH   8  11
ATOM     10  C   UNL     1      48.313   3.283  17.250  0.00  0.00    +0.000 C 
ATOM     11  C   UNL     1      47.423   4.539  17.180  0.00  0.00    +0.000 C 
BRANCH  11  12
ATOM     12  C   UNL     1      47.847   5.598  18.195  0.00  0.00    +0.000 A 
ATOM     13  C   UNL     1      47.125   5.859  19.348  0.00  0.00    +0.000 A 
ATOM     14  S   UNL     1      47.765   7.117  20.299  0.00  0.00    +0.000 S 
ATOM     15  C   UNL     1      49.055   7.356  19.219  0.00  0.00    +0.000 A 
ATOM     16  N   UNL     1      49.973   8.337  19.441  0.00  0.00    +0.000 NA
ATOM     17  C   UNL     1      50.902   8.413  18.549  0.00  0.00    +0.000 A 
ATOM     18  N   UNL     1      51.010   7.583  17.471  0.00  0.00    +0.000 N 
ATOM     19  C   UNL     1      50.142   6.534  17.238  0.00  0.00    +0.000 A 
ATOM     20  O   UNL     1      50.336   5.729  16.322  0.00  0.00    +0.000 OA
ATOM     21  C   UNL     1      49.025   6.452  18.166  0.00  0.00    +0.000 A 
ATOM     22  H   UNL     1      51.791   7.667  16.832  0.00  0.00    +0.000 HD
ENDBRANCH  11  12
ENDBRANCH   8  11
ENDBRANCH   7   8
ENDBRANCH   1   7
BRANCH   5  23
ATOM     23  C   UNL     1      43.518   5.860  11.363  0.00  0.00    +0.000 C 
BRANCH  23  24
ATOM     24  N   UNL     1      43.523   4.906  10.257  0.00  0.00    +0.000 NA
ATOM     25  H   UNL     1      43.916   5.382   9.444  0.00  0.00    +0.000 HD
BRANCH  24  26
ATOM     26  CA  UNL     1      44.338   3.696  10.501  0.00  0.00    +0.000 C 
BRANCH  26  27
ATOM     27  C   UNL     1      45.170   3.403   9.261  0.00  0.00    +0.000 A 
ATOM     28  C   UNL     1      45.544   2.097   8.904  0.00  0.00    +0.000 A 
ATOM     29  C   UNL     1      46.310   1.871   7.765  0.00  0.00    +0.000 A 
ATOM     30  C   UNL     1      46.697   2.969   7.018  0.00  0.00    +0.000 A 
ATOM     31  N   UNL     1      46.374   4.242   7.328  0.00  0.00    +0.000 NA
ATOM     32  C   UNL     1      45.628   4.431   8.439  0.00  0.00    +0.000 A 
ENDBRANCH  26  27
BRANCH  26  33
ATOM     33  C   UNL     1      43.505   2.445  10.892  0.00  0.00    +0.000 C 
BRANCH  33  34
ATOM     34  O   UNL     1      43.411   2.263  12.304  0.00  0.00    +0.000 OA
ATOM     35  H   UNL     1      44.324   2.157  12.627  0.00  0.00    +0.000 HD
ENDBRANCH  33  34
ENDBRANCH  26  33
ENDBRANCH  24  26
ENDBRANCH  23  24
ENDBRANCH   5  23
TORSDOF 10
ENDMDL
MODEL 5
REMARK VINA RESULT:    -7.659      1.946      2.249
REMARK INTER + INTRA:         -12.813
REMARK INTER:                 -11.672
REMARK INTRA:                  -1.141
REMARK UNBOUND:                -0.901
REMARK  Name = 
REMARK  11 active torsions:
REMARK  status: ('A' for Active; 'I' for Inactive)
REMARK    1  A    between atoms: C_1  and  C_2
REMARK    2  A    between atoms: C_2  and  N_3
REMARK    3  A    between atoms: C_2  and  C_22
REMARK    4  A    between atoms: N_3  and  C_4
REMARK    5  A    between atoms: C_4  and  C_5
REMARK    6  A    between atoms: C_9  and  C_10
REMARK    7  A    between atoms: C_10  and  N_11
REMARK    8  A    between atoms: N_11  and  CA_12
REMARK    9  A    between atoms: CA_12  and  C_13
REMARK   10  A    between atoms: CA_12  and  C_15
REMARK   11  A    between atoms: C_13  and  O_14
REMARK                            x       y       z     vdW  Elec       q    Type
REMARK                         _______ _______ _______ _____ _____    ______ ____
ROOT
ATOM      1  C   UNL     1      46.775   5.287  13.720  0.00  0.00    +0.000 A 
ATOM      2  C   UNL     1      47.765   6.038  13.080  0.00  0.00    +0.000 A 
ATOM      3  C   UNL     1      47.436   6.843  11.994  0.00  0.00    +0.000 A 
ATOM      4  C   UNL     1      46.121   6.871  11.520  0.00  0.00    +0.000 A 
ATOM      5  C   UNL     1      45.126   6.090  12.128  0.00  0.00    +0.000 A 
ATOM      6  C   UNL     1      45.463   5.322  13.245  0.00  0.00    +0.000 A 
ENDROOT
BRANCH   1   7
ATOM      7  C   UNL     1      47.113   4.379  14.870  0.00  0.00    +0.000 C 
BRANCH   7   8
ATOM      8  N   UNL     1      47.192   5.119  16.125  0.00  0.00    +0.000 NA
ATOM      9  H   UNL     1      46.248   5.353  16.432  0.00  0.00    +0.000 HD
BRANCH   8  11
ATOM     10  C   UNL     1      48.154   2.932  16.704  0.00  0.00    +0.000 C 
ATOM     11  C   UNL     1      47.878   4.370  17.188  0.00  0.00    +0.000 C 
BRANCH  11  12
ATOM     12  C   UNL     1      49.168   5.126  17.499  0.00  0.00    +0.000 A 
ATOM     13  C   UNL     1      49.801   5.936  16.571  0.00  0.00    +0.000 A 
ATOM     14  S   UNL     1      51.249   6.633  17.131  0.00  0.00    +0.000 S 
ATOM     15  C   UNL     1      51.083   5.899  18.654  0.00  0.00    +0.000 A 
ATOM     16  N   UNL     1      52.033   6.069  19.614  0.00  0.00    +0.000 NA
ATOM     17  C   UNL     1      51.788   5.461  20.725  0.00  0.00    +0.000 A 
ATOM     18  N   UNL     1      50.668   4.720  20.971  0.00  0.00    +0.000 N 
ATOM     19  C   UNL     1      49.646   4.572  20.053  0.00  0.00    +0.000 A 
ATOM     20  O   UNL     1      48.595   3.996  20.347  0.00  0.00    +0.000 OA
ATOM     21  C   UNL     1      49.907   5.166  18.752  0.00  0.00    +0.000 A 
ATOM     22  H   UNL     1      50.513   4.306  21.882  0.00  0.00    +0.000 HD
ENDBRANCH  11  12
ENDBRANCH   8  11
ENDBRANCH   7   8
ENDBRANCH   1   7
BRANCH   5  23
ATOM     23  C   UNL     1      43.710   6.047  11.604  0.00  0.00    +0.000 C 
BRANCH  23  24
ATOM     24  N   UNL     1      43.593   5.062  10.531  0.00  0.00    +0.000 NA
ATOM     25  H   UNL     1      44.009   5.473   9.694  0.00  0.00    +0.000 HD
BRANCH  24  26
ATOM     26  CA  UNL     1      44.293   3.788  10.798  0.00  0.00    +0.000 C 
BRANCH  26  27
ATOM     27  C   UNL     1      45.071   3.382   9.555  0.00  0.00    +0.000 A 
ATOM     28  C   UNL     1      45.600   4.327   8.662  0.00  0.00    +0.000 A 
ATOM     29  C   UNL     1      46.302   3.916   7.533  0.00  0.00    +0.000 A 
ATOM     30  C   UNL     1      46.440   2.556   7.319  0.00  0.00    +0.000 A 
ATOM     31  N   UNL     1      45.939   1.609   8.141  0.00  0.00    +0.000 NA
ATOM     32  C   UNL     1      45.264   2.039   9.230  0.00  0.00    +0.000 A 
ENDBRANCH  26  27
BRANCH  26  33
ATOM     33  C   UNL     1      43.352   2.633  11.238  0.00  0.00    +0.000 C 
BRANCH  33  34
ATOM     34  O   UNL     1      43.539   2.257  12.601  0.00  0.00    +0.000 OA
ATOM     35  H   UNL     1      44.098   1.459  12.589  0.00  0.00    +0.000 HD
ENDBRANCH  33  34
ENDBRANCH  26  33
ENDBRANCH  24  26
ENDBRANCH  23  24
ENDBRANCH   5  23
TORSDOF 10
ENDMDL
MODEL 6
REMARK VINA RESULT:    -7.448      3.024      8.263
REMARK INTER + INTRA:         -12.485
REMARK INTER:                 -11.237
REMARK INTRA:                  -1.248
REMARK UNBOUND:                -0.901
REMARK  Name = 
REMARK  11 active torsions:
REMARK  status: ('A' for Active; 'I' for Inactive)
REMARK    1  A    between atoms: C_1  and  C_2
REMARK    2  A    between atoms: C_2  and  N_3
REMARK    3  A    between atoms: C_2  and  C_22
REMARK    4  A    between atoms: N_3  and  C_4
REMARK    5  A    between atoms: C_4  and  C_5
REMARK    6  A    between atoms: C_9  and  C_10
REMARK    7  A    between atoms: C_10  and  N_11
REMARK    8  A    between atoms: N_11  and  CA_12
REMARK    9  A    between atoms: CA_12  and  C_13
REMARK   10  A    between atoms: CA_12  and  C_15
REMARK   11  A    between atoms: C_13  and  O_14
REMARK                            x       y       z     vdW  Elec       q    Type
REMARK                         _______ _______ _______ _____ _____    ______ ____
ROOT
ATOM      1  C   UNL     1      48.746   7.664  12.650  0.00  0.00    +0.000 A 
ATOM      2  C   UNL     1      49.912   8.334  12.267  0.00  0.00    +0.000 A 
ATOM      3  C   UNL     1      50.967   8.464  13.163  0.00  0.00    +0.000 A 
ATOM      4  C   UNL     1      50.847   7.958  14.462  0.00  0.00    +0.000 A 
ATOM      5  C   UNL     1      49.667   7.320  14.872  0.00  0.00    +0.000 A 
ATOM      6  C   UNL     1      48.634   7.157  13.946  0.00  0.00    +0.000 A 
ENDROOT
BRANCH   1   7
ATOM      7  C   UNL     1      47.576   7.544  11.713  0.00  0.00    +0.000 C 
BRANCH   7   8
ATOM      8  N   UNL     1      46.910   6.255  11.858  0.00  0.00    +0.000 NA
ATOM      9  H   UNL     1      47.378   5.719  12.589  0.00  0.00    +0.000 HD
BRANCH   8  11
ATOM     10  C   UNL     1      44.888   7.583  11.426  0.00  0.00    +0.000 C 
ATOM     11  C   UNL     1      45.483   6.383  12.187  0.00  0.00    +0.000 C 
BRANCH  11  12
ATOM     12  C   UNL     1      44.819   5.067  11.789  0.00  0.00    +0.000 A 
ATOM     13  C   UNL     1      43.987   4.362  12.643  0.00  0.00    +0.000 A 
ATOM     14  S   UNL     1      43.406   2.899  11.997  0.00  0.00    +0.000 S 
ATOM     15  C   UNL     1      44.225   3.154  10.530  0.00  0.00    +0.000 A 
ATOM     16  N   UNL     1      44.167   2.228   9.533  0.00  0.00    +0.000 NA
ATOM     17  C   UNL     1      44.829   2.542   8.472  0.00  0.00    +0.000 A 
ATOM     18  N   UNL     1      45.523   3.706   8.307  0.00  0.00    +0.000 N 
ATOM     19  C   UNL     1      45.558   4.703   9.263  0.00  0.00    +0.000 A 
ATOM     20  O   UNL     1      46.094   5.792   9.038  0.00  0.00    +0.000 OA
ATOM     21  C   UNL     1      44.898   4.368  10.515  0.00  0.00    +0.000 A 
ATOM     22  H   UNL     1      45.985   3.913   7.430  0.00  0.00    +0.000 HD
ENDBRANCH  11  12
ENDBRANCH   8  11
ENDBRANCH   7   8
ENDBRANCH   1   7
BRANCH   5  23
ATOM     23  C   UNL     1      49.478   6.816  16.283  0.00  0.00    +0.000 C 
BRANCH  23  24
ATOM     24  N   UNL     1      48.386   5.846  16.336  0.00  0.00    +0.000 NA
ATOM     25  H   UNL     1      48.493   5.223  15.534  0.00  0.00    +0.000 HD
BRANCH  24  26
ATOM     26  CA  UNL     1      48.376   5.008  17.554  0.00  0.00    +0.000 C 
BRANCH  26  27
ATOM     27  C   UNL     1      49.285   3.808  17.335  0.00  0.00    +0.000 A 
ATOM     28  C   UNL     1      50.582   3.746  17.868  0.00  0.00    +0.000 A 
ATOM     29  C   UNL     1      51.384   2.632  17.642  0.00  0.00    +0.000 A 
ATOM     30  C   UNL     1      50.867   1.609  16.868  0.00  0.00    +0.000 A 
ATOM     31  N   UNL     1      49.631   1.628  16.324  0.00  0.00    +0.000 NA
ATOM     32  C   UNL     1      48.874   2.722  16.562  0.00  0.00    +0.000 A 
ENDBRANCH  26  27
BRANCH  26  33
ATOM     33  C   UNL     1      46.959   4.534  17.978  0.00  0.00    +0.000 C 
BRANCH  33  34
ATOM     34  O   UNL     1      46.263   5.502  18.761  0.00  0.00    +0.000 OA
ATOM     35  H   UNL     1      46.676   5.486  19.644  0.00  0.00    +0.000 HD
ENDBRANCH  33  34
ENDBRANCH  26  33
ENDBRANCH  24  26
ENDBRANCH  23  24
ENDBRANCH   5  23
TORSDOF 10
ENDMDL
MODEL 7
REMARK VINA RESULT:    -7.410      2.030      2.572
REMARK INTER + INTRA:         -12.425
REMARK INTER:                 -11.015
REMARK INTRA:                  -1.410
REMARK UNBOUND:                -0.901
REMARK  Name = 
REMARK  11 active torsions:
REMARK  status: ('A' for Active; 'I' for Inactive)
REMARK    1  A    between atoms: C_1  and  C_2
REMARK    2  A    between atoms: C_2  and  N_3
REMARK    3  A    between atoms: C_2  and  C_22
REMARK    4  A    between atoms: N_3  and  C_4
REMARK    5  A    between atoms: C_4  and  C_5
REMARK    6  A    between atoms: C_9  and  C_10
REMARK    7  A    between atoms: C_10  and  N_11
REMARK    8  A    between atoms: N_11  and  CA_12
REMARK    9  A    between atoms: CA_12  and  C_13
REMARK   10  A    between atoms: CA_12  and  C_15
REMARK   11  A    between atoms: C_13  and  O_14
REMARK                            x       y       z     vdW  Elec       q    Type
REMARK                         _______ _______ _______ _____ _____    ______ ____
ROOT
ATOM      1  C   UNL     1      48.921   7.380  14.528  0.00  0.00    +0.000 A 
ATOM      2  C   UNL     1      49.485   8.087  13.461  0.00  0.00    +0.000 A 
ATOM      3  C   UNL     1      48.984   7.923  12.174  0.00  0.00    +0.000 A 
ATOM      4  C   UNL     1      47.942   7.020  11.940  0.00  0.00    +0.000 A 
ATOM      5  C   UNL     1      47.394   6.274  12.995  0.00  0.00    +0.000 A 
ATOM      6  C   UNL     1      47.877   6.484  14.289  0.00  0.00    +0.000 A 
ENDROOT
BRANCH   1   7
ATOM      7  C   UNL     1      49.469   7.510  15.921  0.00  0.00    +0.000 C 
BRANCH   7   8
ATOM      8  N   UNL     1      48.412   7.404  16.920  0.00  0.00    +0.000 NA
ATOM      9  H   UNL     1      47.597   6.963  16.495  0.00  0.00    +0.000 HD
BRANCH   8  11
ATOM     10  C   UNL     1      47.899   6.991  19.288  0.00  0.00    +0.000 C 
ATOM     11  C   UNL     1      48.819   6.634  18.104  0.00  0.00    +0.000 C 
BRANCH  11  12
ATOM     12  C   UNL     1      48.719   5.158  17.727  0.00  0.00    +0.000 A 
ATOM     13  C   UNL     1      47.514   4.540  17.438  0.00  0.00    +0.000 A 
ATOM     14  S   UNL     1      47.649   2.879  17.096  0.00  0.00    +0.000 S 
ATOM     15  C   UNL     1      49.335   2.914  17.296  0.00  0.00    +0.000 A 
ATOM     16  N   UNL     1      50.073   1.777  17.171  0.00  0.00    +0.000 NA
ATOM     17  C   UNL     1      51.341   1.938  17.345  0.00  0.00    +0.000 A 
ATOM     18  N   UNL     1      51.940   3.136  17.609  0.00  0.00    +0.000 N 
ATOM     19  C   UNL     1      51.243   4.327  17.680  0.00  0.00    +0.000 A 
ATOM     20  O   UNL     1      51.827   5.408  17.801  0.00  0.00    +0.000 OA
ATOM     21  C   UNL     1      49.799   4.193  17.576  0.00  0.00    +0.000 A 
ATOM     22  H   UNL     1      52.947   3.203  17.689  0.00  0.00    +0.000 HD
ENDBRANCH  11  12
ENDBRANCH   8  11
ENDBRANCH   7   8
ENDBRANCH   1   7
BRANCH   5  23
ATOM     23  C   UNL     1      46.311   5.246  12.771  0.00  0.00    +0.000 C 
BRANCH  23  24
ATOM     24  N   UNL     1      45.388   5.697  11.731  0.00  0.00    +0.000 NA
ATOM     25  H   UNL     1      45.950   5.990  10.931  0.00  0.00    +0.000 HD
BRANCH  24  26
ATOM     26  CA  UNL     1      44.448   4.657  11.259  0.00  0.00    +0.000 C 
BRANCH  26  27
ATOM     27  C   UNL     1      44.971   4.074   9.955  0.00  0.00    +0.000 A 
ATOM     28  C   UNL     1      44.898   2.702   9.667  0.00  0.00    +0.000 A 
ATOM     29  C   UNL     1      45.392   2.207   8.465  0.00  0.00    +0.000 A 
ATOM     30  C   UNL     1      45.965   3.105   7.583  0.00  0.00    +0.000 A 
ATOM     31  N   UNL     1      46.070   4.430   7.820  0.00  0.00    +0.000 NA
ATOM     32  C   UNL     1      45.580   4.882   8.995  0.00  0.00    +0.000 A 
ENDBRANCH  26  27
BRANCH  26  33
ATOM     33  C   UNL     1      42.992   5.164  11.071  0.00  0.00    +0.000 C 
BRANCH  33  34
ATOM     34  O   UNL     1      42.598   6.098  12.074  0.00  0.00    +0.000 OA
ATOM     35  H   UNL     1      43.224   5.985  12.813  0.00  0.00    +0.000 HD
ENDBRANCH  33  34
ENDBRANCH  26  33
ENDBRANCH  24  26
ENDBRANCH  23  24
ENDBRANCH   5  23
TORSDOF 10
ENDMDL
MODEL 8
REMARK VINA RESULT:    -7.390      2.210      3.095
REMARK INTER + INTRA:         -12.394
REMARK INTER:                 -10.905
REMARK INTRA:                  -1.489
REMARK UNBOUND:                -0.901
REMARK  Name = 
REMARK  11 active torsions:
REMARK  status: ('A' for Active; 'I' for Inactive)
REMARK    1  A    between atoms: C_1  and  C_2
REMARK    2  A    between atoms: C_2  and  N_3
REMARK    3  A    between atoms: C_2  and  C_22
REMARK    4  A    between atoms: N_3  and  C_4
REMARK    5  A    between atoms: C_4  and  C_5
REMARK    6  A    between atoms: C_9  and  C_10
REMARK    7  A    between atoms: C_10  and  N_11
REMARK    8  A    between atoms: N_11  and  CA_12
REMARK    9  A    between atoms: CA_12  and  C_13
REMARK   10  A    between atoms: CA_12  and  C_15
REMARK   11  A    between atoms: C_13  and  O_14
REMARK                            x       y       z     vdW  Elec       q    Type
REMARK                         _______ _______ _______ _____ _____    ______ ____
ROOT
ATOM      1  C   UNL     1      48.855   8.525  13.680  0.00  0.00    +0.000 A 
ATOM      2  C   UNL     1      49.591   8.267  12.519  0.00  0.00    +0.000 A 
ATOM      3  C   UNL     1      48.968   7.701  11.411  0.00  0.00    +0.000 A 
ATOM      4  C   UNL     1      47.615   7.355  11.472  0.00  0.00    +0.000 A 
ATOM      5  C   UNL     1      46.875   7.571  12.644  0.00  0.00    +0.000 A 
ATOM      6  C   UNL     1      47.502   8.181  13.732  0.00  0.00    +0.000 A 
ENDROOT
BRANCH   1   7
ATOM      7  C   UNL     1      49.512   9.100  14.903  0.00  0.00    +0.000 C 
BRANCH   7   8
ATOM      8  N   UNL     1      49.442   8.174  16.028  0.00  0.00    +0.000 NA
ATOM      9  H   UNL     1      48.469   7.904  16.176  0.00  0.00    +0.000 HD
BRANCH   8  11
ATOM     10  C   UNL     1      51.747   7.355  15.793  0.00  0.00    +0.000 C 
ATOM     11  C   UNL     1      50.256   6.967  15.826  0.00  0.00    +0.000 C 
BRANCH  11  12
ATOM     12  C   UNL     1      49.937   6.020  16.981  0.00  0.00    +0.000 A 
ATOM     13  C   UNL     1      50.593   6.079  18.199  0.00  0.00    +0.000 A 
ATOM     14  S   UNL     1      50.102   4.890  19.312  0.00  0.00    +0.000 S 
ATOM     15  C   UNL     1      48.966   4.254  18.221  0.00  0.00    +0.000 A 
ATOM     16  N   UNL     1      48.214   3.169  18.555  0.00  0.00    +0.000 NA
ATOM     17  C   UNL     1      47.390   2.786  17.640  0.00  0.00    +0.000 A 
ATOM     18  N   UNL     1      47.231   3.403  16.432  0.00  0.00    +0.000 N 
ATOM     19  C   UNL     1      47.923   4.544  16.073  0.00  0.00    +0.000 A 
ATOM     20  O   UNL     1      47.671   5.146  15.025  0.00  0.00    +0.000 OA
ATOM     21  C   UNL     1      48.928   4.972  17.033  0.00  0.00    +0.000 A 
ATOM     22  H   UNL     1      46.532   3.080  15.775  0.00  0.00    +0.000 HD
ENDBRANCH  11  12
ENDBRANCH   8  11
ENDBRANCH   7   8
ENDBRANCH   1   7
BRANCH   5  23
ATOM     23  C   UNL     1      45.429   7.153  12.767  0.00  0.00    +0.000 C 
BRANCH  23  24
ATOM     24  N   UNL     1      44.938   6.635  11.492  0.00  0.00    +0.000 NA
ATOM     25  H   UNL     1      45.735   6.585  10.856  0.00  0.00    +0.000 HD
BRANCH  24  26
ATOM     26  CA  UNL     1      44.349   5.281  11.572  0.00  0.00    +0.000 C 
BRANCH  26  27
ATOM     27  C   UNL     1      44.715   4.507  10.315  0.00  0.00    +0.000 A 
ATOM     28  C   UNL     1      44.323   3.173  10.118  0.00  0.00    +0.000 A 
ATOM     29  C   UNL     1      44.682   2.497   8.956  0.00  0.00    +0.000 A 
ATOM     30  C   UNL     1      45.444   3.177   8.023  0.00  0.00    +0.000 A 
ATOM     31  N   UNL     1      45.855   4.454   8.172  0.00  0.00    +0.000 NA
ATOM     32  C   UNL     1      45.489   5.085   9.310  0.00  0.00    +0.000 A 
ENDBRANCH  26  27
BRANCH  26  33
ATOM     33  C   UNL     1      42.808   5.277  11.771  0.00  0.00    +0.000 C 
BRANCH  33  34
ATOM     34  O   UNL     1      42.218   6.556  11.545  0.00  0.00    +0.000 OA
ATOM     35  H   UNL     1      41.284   6.389  11.323  0.00  0.00    +0.000 HD
ENDBRANCH  33  34
ENDBRANCH  26  33
ENDBRANCH  24  26
ENDBRANCH  23  24
ENDBRANCH   5  23
TORSDOF 10
ENDMDL
MODEL 9
REMARK VINA RESULT:    -7.347      2.030      2.682
REMARK INTER + INTRA:         -12.329
REMARK INTER:                 -11.349
REMARK INTRA:                  -0.979
REMARK UNBOUND:                -0.901
REMARK  Name = 
REMARK  11 active torsions:
REMARK  status: ('A' for Active; 'I' for Inactive)
REMARK    1  A    between atoms: C_1  and  C_2
REMARK    2  A    between atoms: C_2  and  N_3
REMARK    3  A    between atoms: C_2  and  C_22
REMARK    4  A    between atoms: N_3  and  C_4
REMARK    5  A    between atoms: C_4  and  C_5
REMARK    6  A    between atoms: C_9  and  C_10
REMARK    7  A    between atoms: C_10  and  N_11
REMARK    8  A    between atoms: N_11  and  CA_12
REMARK    9  A    between atoms: CA_12  and  C_13
REMARK   10  A    between atoms: CA_12  and  C_15
REMARK   11  A    between atoms: C_13  and  O_14
REMARK                            x       y       z     vdW  Elec       q    Type
REMARK                         _______ _______ _______ _____ _____    ______ ____
ROOT
ATOM      1  C   UNL     1      46.492   6.882  13.103  0.00  0.00    +0.000 A 
ATOM      2  C   UNL     1      46.679   8.183  12.624  0.00  0.00    +0.000 A 
ATOM      3  C   UNL     1      45.712   8.774  11.817  0.00  0.00    +0.000 A 
ATOM      4  C   UNL     1      44.571   8.053  11.453  0.00  0.00    +0.000 A 
ATOM      5  C   UNL     1      44.390   6.733  11.893  0.00  0.00    +0.000 A 
ATOM      6  C   UNL     1      45.348   6.169  12.740  0.00  0.00    +0.000 A 
ENDROOT
BRANCH   1   7
ATOM      7  C   UNL     1      47.539   6.207  13.944  0.00  0.00    +0.000 C 
BRANCH   7   8
ATOM      8  N   UNL     1      48.040   7.099  14.984  0.00  0.00    +0.000 NA
ATOM      9  H   UNL     1      47.331   7.192  15.711  0.00  0.00    +0.000 HD
BRANCH   8  11
ATOM     10  C   UNL     1      50.464   7.491  15.076  0.00  0.00    +0.000 C 
ATOM     11  C   UNL     1      49.295   6.626  15.586  0.00  0.00    +0.000 C 
BRANCH  11  12
ATOM     12  C   UNL     1      49.125   6.729  17.100  0.00  0.00    +0.000 A 
ATOM     13  C   UNL     1      49.158   7.938  17.775  0.00  0.00    +0.000 A 
ATOM     14  S   UNL     1      48.998   7.796  19.463  0.00  0.00    +0.000 S 
ATOM     15  C   UNL     1      48.853   6.106  19.366  0.00  0.00    +0.000 A 
ATOM     16  N   UNL     1      48.721   5.355  20.494  0.00  0.00    +0.000 NA
ATOM     17  C   UNL     1      48.618   4.087  20.285  0.00  0.00    +0.000 A 
ATOM     18  N   UNL     1      48.611   3.504  19.050  0.00  0.00    +0.000 N 
ATOM     19  C   UNL     1      48.677   4.228  17.875  0.00  0.00    +0.000 A 
ATOM     20  O   UNL     1      48.548   3.683  16.775  0.00  0.00    +0.000 OA
ATOM     21  C   UNL     1      48.879   5.657  18.053  0.00  0.00    +0.000 A 
ATOM     22  H   UNL     1      48.480   2.504  18.952  0.00  0.00    +0.000 HD
ENDBRANCH  11  12
ENDBRANCH   8  11
ENDBRANCH   7   8
ENDBRANCH   1   7
BRANCH   5  23
ATOM     23  C   UNL     1      43.202   5.902  11.470  0.00  0.00    +0.000 C 
BRANCH  23  24
ATOM     24  N   UNL     1      43.547   5.065  10.323  0.00  0.00    +0.000 NA
ATOM     25  H   UNL     1      44.123   5.629   9.697  0.00  0.00    +0.000 HD
BRANCH  24  26
ATOM     26  CA  UNL     1      44.319   3.852  10.667  0.00  0.00    +0.000 C 
BRANCH  26  27
ATOM     27  C   UNL     1      45.113   3.409   9.447  0.00  0.00    +0.000 A 
ATOM     28  C   UNL     1      45.619   4.325   8.511  0.00  0.00    +0.000 A 
ATOM     29  C   UNL     1      46.336   3.879   7.406  0.00  0.00    +0.000 A 
ATOM     30  C   UNL     1      46.515   2.516   7.258  0.00  0.00    +0.000 A 
ATOM     31  N   UNL     1      46.038   1.596   8.124  0.00  0.00    +0.000 NA
ATOM     32  C   UNL     1      45.346   2.059   9.189  0.00  0.00    +0.000 A 
ENDBRANCH  26  27
BRANCH  26  33
ATOM     33  C   UNL     1      43.447   2.679  11.190  0.00  0.00    +0.000 C 
BRANCH  33  34
ATOM     34  O   UNL     1      43.766   2.306  12.529  0.00  0.00    +0.000 OA
ATOM     35  H   UNL     1      42.934   1.997  12.933  0.00  0.00    +0.000 HD
ENDBRANCH  33  34
ENDBRANCH  26  33
ENDBRANCH  24  26
ENDBRANCH  23  24
ENDBRANCH   5  23
TORSDOF 10
ENDMDL
