MODEL 1
REMARK VINA RESULT:    -8.509      0.000      0.000
REMARK INTER + INTRA:         -10.175
REMARK INTER:                 -10.002
REMARK INTRA:                  -0.173
REMARK UNBOUND:                -0.173
REMARK  Name = 
REMARK  3 active torsions:
REMARK  status: ('A' for Active; 'I' for Inactive)
REMARK    1  A    between atoms: C_2  and  C_4
REMARK    2  A    between atoms: C_7  and  C_8
REMARK    3  A    between atoms: C_8  and  C_9
REMARK                            x       y       z     vdW  Elec       q    Type
REMARK                         _______ _______ _______ _____ _____    ______ ____
ROOT
ATOM      1  C   UNL     1      44.511   4.405  11.171  0.00  0.00    +0.000 C 
ATOM      2  C   UNL     1      43.041   4.098  11.425  0.00  0.00    +0.000 C 
ATOM      3  C   UNL     1      43.440   5.481  11.018  0.00  0.00    +0.000 C 
ENDROOT
BRANCH   1   4
ATOM      4  C   UNL     1      45.485   4.533  12.338  0.00  0.00    +0.000 A 
ATOM      5  C   UNL     1      45.922   3.421  13.031  0.00  0.00    +0.000 A 
ATOM      6  C   UNL     1      46.947   3.625  13.915  0.00  0.00    +0.000 A 
ATOM      7  N   UNL     1      47.515   4.824  14.124  0.00  0.00    +0.000 NA
ATOM      8  C   UNL     1      47.013   5.877  13.459  0.00  0.00    +0.000 A 
ATOM      9  N   UNL     1      47.541   7.126  13.726  0.00  0.00    +0.000 N 
ATOM     10  C   UNL     1      46.906   8.298  13.111  0.00  0.00    +0.000 C 
ATOM     11  C   UNL     1      47.604   8.706  11.806  0.00  0.00    +0.000 C 
ATOM     12  O   UNL     1      49.019   8.874  11.997  0.00  0.00    +0.000 OA
ATOM     13  C   UNL     1      49.602   7.640  12.448  0.00  0.00    +0.000 C 
ATOM     14  C   UNL     1      49.007   7.199  13.799  0.00  0.00    +0.000 C 
ATOM     15  N   UNL     1      46.005   5.760  12.587  0.00  0.00    +0.000 NA
ENDBRANCH   1   4
BRANCH   1  19
ATOM     16  C   UNL     1      46.300   2.845   7.522  0.00  0.00    +0.000 A 
ATOM     17  C   UNL     1      46.282   4.224   7.757  0.00  0.00    +0.000 A 
ATOM     18  C   UNL     1      45.720   4.723   8.935  0.00  0.00    +0.000 A 
ATOM     19  C   UNL     1      45.162   3.866   9.899  0.00  0.00    +0.000 A 
ATOM     20  C   UNL     1      45.149   2.488   9.615  0.00  0.00    +0.000 A 
ATOM     21  C   UNL     1      45.709   1.979   8.443  0.00  0.00    +0.000 A 
BRANCH  16  23
ATOM     22  N   UNL     1      47.157   3.117   5.268  0.00  0.00    +0.000 N 
ATOM     23  C   UNL     1      46.934   2.263   6.313  0.00  0.00    +0.000 C 
ATOM     24  O   UNL     1      47.299   1.099   6.265  0.00  0.00    +0.000 OA
ATOM     25  H   UNL     1      47.724   2.752   4.514  0.00  0.00    +0.000 HD
ATOM     26  H   UNL     1      47.129   4.119   5.384  0.00  0.00    +0.000 HD
ENDBRANCH  16  23
ENDBRANCH   1  19
TORSDOF 3
ENDMDL
MODEL 2
REMARK VINA RESULT:    -7.098      1.911      2.601
REMARK INTER + INTRA:          -8.516
REMARK INTER:                  -8.290
REMARK INTRA:                  -0.226
REMARK UNBOUND:                -0.173
REMARK  Name = 
REMARK  3 active torsions:
REMARK  status: ('A' for Active; 'I' for Inactive)
REMARK    1  A    between atoms: C_2  and  C_4
REMARK    2  A    between atoms: C_7  and  C_8
REMARK    3  A    between atoms: C_8  and  C_9
REMARK                            x       y       z     vdW  Elec       q    Type
REMARK                         _______ _______ _______ _____ _____    ______ ____
ROOT
ATOM      1  C   UNL     1      44.204   4.991  11.357  0.00  0.00    +0.000 C 
ATOM      2  C   UNL     1      43.057   4.287  12.070  0.00  0.00    +0.000 C 
ATOM      3  C   UNL     1      42.764   5.474  11.208  0.00  0.00    +0.000 C 
ENDROOT
BRANCH   1   4
ATOM      4  C   UNL     1      45.173   5.874  12.138  0.00  0.00    +0.000 A 
ATOM      5  C   UNL     1      46.318   5.352  12.706  0.00  0.00    +0.000 A 
ATOM      6  C   UNL     1      47.215   6.260  13.200  0.00  0.00    +0.000 A 
ATOM      7  N   UNL     1      47.022   7.589  13.153  0.00  0.00    +0.000 NA
ATOM      8  C   UNL     1      45.867   8.035  12.636  0.00  0.00    +0.000 A 
ATOM      9  N   UNL     1      45.628   9.396  12.654  0.00  0.00    +0.000 N 
ATOM     10  C   UNL     1      44.312   9.880  12.221  0.00  0.00    +0.000 C 
ATOM     11  C   UNL     1      44.314  10.290  10.741  0.00  0.00    +0.000 C 
ATOM     12  O   UNL     1      45.372  11.220  10.455  0.00  0.00    +0.000 OA
ATOM     13  C   UNL     1      46.644  10.621  10.755  0.00  0.00    +0.000 C 
ATOM     14  C   UNL     1      46.753  10.248  12.245  0.00  0.00    +0.000 C 
ATOM     15  N   UNL     1      44.936   7.209  12.144  0.00  0.00    +0.000 NA
ENDBRANCH   1   4
BRANCH   1  19
ATOM     16  C   UNL     1      46.112   3.057   7.956  0.00  0.00    +0.000 A 
ATOM     17  C   UNL     1      45.428   2.288   8.903  0.00  0.00    +0.000 A 
ATOM     18  C   UNL     1      44.803   2.911   9.987  0.00  0.00    +0.000 A 
ATOM     19  C   UNL     1      44.850   4.305  10.155  0.00  0.00    +0.000 A 
ATOM     20  C   UNL     1      45.587   5.050   9.216  0.00  0.00    +0.000 A 
ATOM     21  C   UNL     1      46.212   4.438   8.129  0.00  0.00    +0.000 A 
BRANCH  16  23
ATOM     22  N   UNL     1      47.484   1.316   6.966  0.00  0.00    +0.000 N 
ATOM     23  C   UNL     1      46.744   2.448   6.759  0.00  0.00    +0.000 C 
ATOM     24  O   UNL     1      46.568   2.889   5.634  0.00  0.00    +0.000 OA
ATOM     25  H   UNL     1      47.781   0.825   6.134  0.00  0.00    +0.000 HD
ATOM     26  H   UNL     1      47.412   0.782   7.819  0.00  0.00    +0.000 HD
ENDBRANCH  16  23
ENDBRANCH   1  19
TORSDOF 3
ENDMDL
MODEL 3
REMARK VINA RESULT:    -6.816      1.829      2.787
REMARK INTER + INTRA:          -8.185
REMARK INTER:                  -8.226
REMARK INTRA:                   0.042
REMARK UNBOUND:                -0.173
REMARK  Name = 
REMARK  3 active torsions:
REMARK  status: ('A' for Active; 'I' for Inactive)
REMARK    1  A    between atoms: C_2  and  C_4
REMARK    2  A    between atoms: C_7  and  C_8
REMARK    3  A    between atoms: C_8  and  C_9
REMARK                            x       y       z     vdW  Elec       q    Type
REMARK                         _______ _______ _______ _____ _____    ______ ____
ROOT
ATOM      1  C   UNL     1      44.348   5.492  11.519  0.00  0.00    +0.000 C 
ATOM      2  C   UNL     1      43.886   4.822  12.806  0.00  0.00    +0.000 C 
ATOM      3  C   UNL     1      42.865   5.348  11.849  0.00  0.00    +0.000 C 
ENDROOT
BRANCH   1   4
ATOM      4  C   UNL     1      44.950   6.893  11.551  0.00  0.00    +0.000 A 
ATOM      5  C   UNL     1      44.201   8.003  11.215  0.00  0.00    +0.000 A 
ATOM      6  C   UNL     1      44.770   9.219  11.478  0.00  0.00    +0.000 A 
ATOM      7  N   UNL     1      45.988   9.361  12.027  0.00  0.00    +0.000 NA
ATOM      8  C   UNL     1      46.691   8.247  12.285  0.00  0.00    +0.000 A 
ATOM      9  N   UNL     1      47.974   8.386  12.778  0.00  0.00    +0.000 N 
ATOM     10  C   UNL     1      48.799   7.182  12.929  0.00  0.00    +0.000 C 
ATOM     11  C   UNL     1      48.726   6.616  14.354  0.00  0.00    +0.000 C 
ATOM     12  O   UNL     1      49.024   7.623  15.336  0.00  0.00    +0.000 OA
ATOM     13  C   UNL     1      48.078   8.701  15.234  0.00  0.00    +0.000 C 
ATOM     14  C   UNL     1      48.143   9.376  13.851  0.00  0.00    +0.000 C 
ATOM     15  N   UNL     1      46.206   7.022  12.045  0.00  0.00    +0.000 NA
ENDBRANCH   1   4
BRANCH   1  19
ATOM     16  C   UNL     1      45.892   2.981   8.316  0.00  0.00    +0.000 A 
ATOM     17  C   UNL     1      46.030   4.371   8.242  0.00  0.00    +0.000 A 
ATOM     18  C   UNL     1      45.546   5.176   9.277  0.00  0.00    +0.000 A 
ATOM     19  C   UNL     1      44.914   4.619  10.402  0.00  0.00    +0.000 A 
ATOM     20  C   UNL     1      44.744   3.222  10.427  0.00  0.00    +0.000 A 
ATOM     21  C   UNL     1      45.224   2.410   9.400  0.00  0.00    +0.000 A 
BRANCH  16  23
ATOM     22  N   UNL     1      46.782   0.818   7.666  0.00  0.00    +0.000 N 
ATOM     23  C   UNL     1      46.437   2.081   7.269  0.00  0.00    +0.000 C 
ATOM     24  O   UNL     1      46.521   2.420   6.099  0.00  0.00    +0.000 OA
ATOM     25  H   UNL     1      47.006   0.169   6.923  0.00  0.00    +0.000 HD
ATOM     26  H   UNL     1      46.464   0.430   8.541  0.00  0.00    +0.000 HD
ENDBRANCH  16  23
ENDBRANCH   1  19
TORSDOF 3
ENDMDL
MODEL 4
REMARK VINA RESULT:    -6.557      4.415      6.217
REMARK INTER + INTRA:          -7.880
REMARK INTER:                  -7.764
REMARK INTRA:                  -0.115
REMARK UNBOUND:                -0.173
REMARK  Name = 
REMARK  3 active torsions:
REMARK  status: ('A' for Active; 'I' for Inactive)
REMARK    1  A    between atoms: C_2  and  C_4
REMARK    2  A    between atoms: C_7  and  C_8
REMARK    3  A    between atoms: C_8  and  C_9
REMARK                            x       y       z     vdW  Elec       q    Type
REMARK                         _______ _______ _______ _____ _____    ______ ____
ROOT
ATOM      1  C   UNL     1      48.694   7.559  12.964  0.00  0.00    +0.000 C 
ATOM      2  C   UNL     1      48.986   8.666  11.959  0.00  0.00    +0.000 C 
ATOM      3  C   UNL     1      49.620   7.324  11.773  0.00  0.00    +0.000 C 
ENDROOT
BRANCH   1   4
ATOM      4  C   UNL     1      49.320   7.594  14.355  0.00  0.00    +0.000 A 
ATOM      5  C   UNL     1      49.969   8.721  14.819  0.00  0.00    +0.000 A 
ATOM      6  C   UNL     1      50.307   8.720  16.146  0.00  0.00    +0.000 A 
ATOM      7  N   UNL     1      50.040   7.697  16.974  0.00  0.00    +0.000 NA
ATOM      8  C   UNL     1      49.453   6.608  16.454  0.00  0.00    +0.000 A 
ATOM      9  N   UNL     1      49.245   5.522  17.284  0.00  0.00    +0.000 N 
ATOM     10  C   UNL     1      48.736   4.279  16.692  0.00  0.00    +0.000 C 
ATOM     11  C   UNL     1      47.209   4.175  16.812  0.00  0.00    +0.000 C 
ATOM     12  O   UNL     1      46.774   4.367  18.169  0.00  0.00    +0.000 OA
ATOM     13  C   UNL     1      47.171   5.668  18.631  0.00  0.00    +0.000 C 
ATOM     14  C   UNL     1      48.703   5.828  18.614  0.00  0.00    +0.000 C 
ATOM     15  N   UNL     1      49.104   6.529  15.165  0.00  0.00    +0.000 NA
ENDBRANCH   1   4
BRANCH   1  19
ATOM     16  C   UNL     1      44.787   5.640  12.963  0.00  0.00    +0.000 A 
ATOM     17  C   UNL     1      44.898   6.998  12.645  0.00  0.00    +0.000 A 
ATOM     18  C   UNL     1      46.155   7.610  12.632  0.00  0.00    +0.000 A 
ATOM     19  C   UNL     1      47.322   6.890  12.937  0.00  0.00    +0.000 A 
ATOM     20  C   UNL     1      47.176   5.538  13.302  0.00  0.00    +0.000 A 
ATOM     21  C   UNL     1      45.927   4.918  13.316  0.00  0.00    +0.000 A 
BRANCH  16  23
ATOM     22  N   UNL     1      42.440   5.593  12.347  0.00  0.00    +0.000 N 
ATOM     23  C   UNL     1      43.482   4.933  12.937  0.00  0.00    +0.000 C 
ATOM     24  O   UNL     1      43.349   3.795  13.361  0.00  0.00    +0.000 OA
ATOM     25  H   UNL     1      41.601   5.047  12.197  0.00  0.00    +0.000 HD
ATOM     26  H   UNL     1      42.586   6.392  11.748  0.00  0.00    +0.000 HD
ENDBRANCH  16  23
ENDBRANCH   1  19
TORSDOF 3
ENDMDL
MODEL 5
REMARK VINA RESULT:    -6.211      4.611      7.690
REMARK INTER + INTRA:          -7.473
REMARK INTER:                  -7.241
REMARK INTRA:                  -0.233
REMARK UNBOUND:                -0.173
REMARK  Name = 
REMARK  3 active torsions:
REMARK  status: ('A' for Active; 'I' for Inactive)
REMARK    1  A    between atoms: C_2  and  C_4
REMARK    2  A    between atoms: C_7  and  C_8
REMARK    3  A    between atoms: C_8  and  C_9
REMARK                            x       y       z     vdW  Elec       q    Type
REMARK                         _______ _______ _______ _____ _____    ______ ____
ROOT
ATOM      1  C   UNL     1      48.365   5.015  17.069  0.00  0.00    +0.000 C 
ATOM      2  C   UNL     1      48.265   6.240  17.968  0.00  0.00    +0.000 C 
ATOM      3  C   UNL     1      47.305   5.110  18.164  0.00  0.00    +0.000 C 
ENDROOT
BRANCH   1   4
ATOM      4  C   UNL     1      47.896   5.082  15.619  0.00  0.00    +0.000 A 
ATOM      5  C   UNL     1      46.839   4.314  15.172  0.00  0.00    +0.000 A 
ATOM      6  C   UNL     1      46.369   4.603  13.919  0.00  0.00    +0.000 A 
ATOM      7  N   UNL     1      46.886   5.568  13.142  0.00  0.00    +0.000 NA
ATOM      8  C   UNL     1      47.946   6.246  13.609  0.00  0.00    +0.000 A 
ATOM      9  N   UNL     1      48.532   7.188  12.784  0.00  0.00    +0.000 N 
ATOM     10  C   UNL     1      49.773   7.832  13.230  0.00  0.00    +0.000 C 
ATOM     11  C   UNL     1      49.501   9.174  13.925  0.00  0.00    +0.000 C 
ATOM     12  O   UNL     1      48.688  10.033  13.109  0.00  0.00    +0.000 OA
ATOM     13  C   UNL     1      47.424   9.404  12.842  0.00  0.00    +0.000 C 
ATOM     14  C   UNL     1      47.606   8.081  12.075  0.00  0.00    +0.000 C 
ATOM     15  N   UNL     1      48.469   6.014  14.819  0.00  0.00    +0.000 NA
ENDBRANCH   1   4
BRANCH   1  19
ATOM     16  C   UNL     1      51.658   2.221  17.608  0.00  0.00    +0.000 A 
ATOM     17  C   UNL     1      51.869   3.592  17.791  0.00  0.00    +0.000 A 
ATOM     18  C   UNL     1      50.807   4.487  17.631  0.00  0.00    +0.000 A 
ATOM     19  C   UNL     1      49.521   4.041  17.284  0.00  0.00    +0.000 A 
ATOM     20  C   UNL     1      49.349   2.663  17.058  0.00  0.00    +0.000 A 
ATOM     21  C   UNL     1      50.401   1.761  17.216  0.00  0.00    +0.000 A 
BRANCH  16  23
ATOM     22  N   UNL     1      52.361   0.002  18.298  0.00  0.00    +0.000 N 
ATOM     23  C   UNL     1      52.740   1.226  17.821  0.00  0.00    +0.000 C 
ATOM     24  O   UNL     1      53.903   1.457  17.529  0.00  0.00    +0.000 OA
ATOM     25  H   UNL     1      53.076  -0.713  18.294  0.00  0.00    +0.000 HD
ATOM     26  H   UNL     1      51.399  -0.304  18.277  0.00  0.00    +0.000 HD
ENDBRANCH  16  23
ENDBRANCH   1  19
TORSDOF 3
ENDMDL
MODEL 6
REMARK VINA RESULT:    -6.010      1.901      2.882
REMARK INTER + INTRA:          -7.237
REMARK INTER:                  -7.034
REMARK INTRA:                  -0.203
REMARK UNBOUND:                -0.173
REMARK  Name = 
REMARK  3 active torsions:
REMARK  status: ('A' for Active; 'I' for Inactive)
REMARK    1  A    between atoms: C_2  and  C_4
REMARK    2  A    between atoms: C_7  and  C_8
REMARK    3  A    between atoms: C_8  and  C_9
REMARK                            x       y       z     vdW  Elec       q    Type
REMARK                         _______ _______ _______ _____ _____    ______ ____
ROOT
ATOM      1  C   UNL     1      44.388   4.656  11.134  0.00  0.00    +0.000 C 
ATOM      2  C   UNL     1      43.341   3.859  11.902  0.00  0.00    +0.000 C 
ATOM      3  C   UNL     1      42.902   4.991  11.030  0.00  0.00    +0.000 C 
ENDROOT
BRANCH   1   4
ATOM      4  C   UNL     1      45.291   5.647  11.862  0.00  0.00    +0.000 A 
ATOM      5  C   UNL     1      45.065   7.007  11.791  0.00  0.00    +0.000 A 
ATOM      6  C   UNL     1      45.800   7.786  12.644  0.00  0.00    +0.000 A 
ATOM      7  N   UNL     1      46.699   7.289  13.508  0.00  0.00    +0.000 NA
ATOM      8  C   UNL     1      46.913   5.964  13.495  0.00  0.00    +0.000 A 
ATOM      9  N   UNL     1      47.892   5.454  14.327  0.00  0.00    +0.000 N 
ATOM     10  C   UNL     1      48.229   4.030  14.218  0.00  0.00    +0.000 C 
ATOM     11  C   UNL     1      47.460   3.182  15.240  0.00  0.00    +0.000 C 
ATOM     12  O   UNL     1      47.620   3.693  16.574  0.00  0.00    +0.000 OA
ATOM     13  C   UNL     1      47.123   5.039  16.646  0.00  0.00    +0.000 C 
ATOM     14  C   UNL     1      47.898   5.976  15.701  0.00  0.00    +0.000 C 
ATOM     15  N   UNL     1      46.242   5.138  12.683  0.00  0.00    +0.000 NA
ENDBRANCH   1   4
BRANCH   1  19
ATOM     16  C   UNL     1      46.224   2.789   7.657  0.00  0.00    +0.000 A 
ATOM     17  C   UNL     1      46.233   4.182   7.788  0.00  0.00    +0.000 A 
ATOM     18  C   UNL     1      45.655   4.780   8.912  0.00  0.00    +0.000 A 
ATOM     19  C   UNL     1      45.056   4.010   9.922  0.00  0.00    +0.000 A 
ATOM     20  C   UNL     1      45.017   2.615   9.741  0.00  0.00    +0.000 A 
ATOM     21  C   UNL     1      45.592   2.008   8.625  0.00  0.00    +0.000 A 
BRANCH  16  23
ATOM     22  N   UNL     1      47.211   2.889   5.442  0.00  0.00    +0.000 N 
ATOM     23  C   UNL     1      46.873   2.105   6.510  0.00  0.00    +0.000 C 
ATOM     24  O   UNL     1      47.152   0.917   6.534  0.00  0.00    +0.000 OA
ATOM     25  H   UNL     1      47.786   2.448   4.736  0.00  0.00    +0.000 HD
ATOM     26  H   UNL     1      47.252   3.896   5.511  0.00  0.00    +0.000 HD
ENDBRANCH  16  23
ENDBRANCH   1  19
TORSDOF 3
ENDMDL
MODEL 7
REMARK VINA RESULT:    -5.723      3.336      6.744
REMARK INTER + INTRA:          -6.900
REMARK INTER:                  -6.686
REMARK INTRA:                  -0.213
REMARK UNBOUND:                -0.173
REMARK  Name = 
REMARK  3 active torsions:
REMARK  status: ('A' for Active; 'I' for Inactive)
REMARK    1  A    between atoms: C_2  and  C_4
REMARK    2  A    between atoms: C_7  and  C_8
REMARK    3  A    between atoms: C_8  and  C_9
REMARK                            x       y       z     vdW  Elec       q    Type
REMARK                         _______ _______ _______ _____ _____    ______ ____
ROOT
ATOM      1  C   UNL     1      48.043   8.004  13.014  0.00  0.00    +0.000 C 
ATOM      2  C   UNL     1      47.097   8.992  12.344  0.00  0.00    +0.000 C 
ATOM      3  C   UNL     1      47.464   9.189  13.781  0.00  0.00    +0.000 C 
ENDROOT
BRANCH   1   4
ATOM      4  C   UNL     1      47.560   6.607  13.392  0.00  0.00    +0.000 A 
ATOM      5  C   UNL     1      47.985   5.992  14.553  0.00  0.00    +0.000 A 
ATOM      6  C   UNL     1      47.334   4.839  14.899  0.00  0.00    +0.000 A 
ATOM      7  N   UNL     1      46.337   4.308  14.173  0.00  0.00    +0.000 NA
ATOM      8  C   UNL     1      46.002   4.922  13.027  0.00  0.00    +0.000 A 
ATOM      9  N   UNL     1      45.030   4.340  12.236  0.00  0.00    +0.000 N 
ATOM     10  C   UNL     1      44.758   4.926  10.918  0.00  0.00    +0.000 C 
ATOM     11  C   UNL     1      43.582   5.913  10.965  0.00  0.00    +0.000 C 
ATOM     12  O   UNL     1      42.419   5.316  11.562  0.00  0.00    +0.000 OA
ATOM     13  C   UNL     1      42.713   4.907  12.908  0.00  0.00    +0.000 C 
ATOM     14  C   UNL     1      43.837   3.854  12.942  0.00  0.00    +0.000 C 
ATOM     15  N   UNL     1      46.600   6.047  12.616  0.00  0.00    +0.000 NA
ENDBRANCH   1   4
BRANCH   1  19
ATOM     16  C   UNL     1      52.256   8.191  11.933  0.00  0.00    +0.000 A 
ATOM     17  C   UNL     1      51.850   8.547  13.224  0.00  0.00    +0.000 A 
ATOM     18  C   UNL     1      50.498   8.473  13.574  0.00  0.00    +0.000 A 
ATOM     19  C   UNL     1      49.526   8.050  12.652  0.00  0.00    +0.000 A 
ATOM     20  C   UNL     1      49.956   7.746  11.347  0.00  0.00    +0.000 A 
ATOM     21  C   UNL     1      51.302   7.814  10.988  0.00  0.00    +0.000 A 
BRANCH  16  23
ATOM     22  N   UNL     1      54.277   6.980  11.350  0.00  0.00    +0.000 N 
ATOM     23  C   UNL     1      53.685   8.199  11.531  0.00  0.00    +0.000 C 
ATOM     24  O   UNL     1      54.293   9.235  11.309  0.00  0.00    +0.000 OA
ATOM     25  H   UNL     1      55.197   6.995  10.930  0.00  0.00    +0.000 HD
ATOM     26  H   UNL     1      53.735   6.134  11.249  0.00  0.00    +0.000 HD
ENDBRANCH  16  23
ENDBRANCH   1  19
TORSDOF 3
ENDMDL
MODEL 8
REMARK VINA RESULT:    -5.683      3.301      8.265
REMARK INTER + INTRA:          -6.852
REMARK INTER:                  -6.645
REMARK INTRA:                  -0.207
REMARK UNBOUND:                -0.173
REMARK  Name = 
REMARK  3 active torsions:
REMARK  status: ('A' for Active; 'I' for Inactive)
REMARK    1  A    between atoms: C_2  and  C_4
REMARK    2  A    between atoms: C_7  and  C_8
REMARK    3  A    between atoms: C_8  and  C_9
REMARK                            x       y       z     vdW  Elec       q    Type
REMARK                         _______ _______ _______ _____ _____    ______ ____
ROOT
ATOM      1  C   UNL     1      48.191   7.802  13.049  0.00  0.00    +0.000 C 
ATOM      2  C   UNL     1      49.179   7.013  12.199  0.00  0.00    +0.000 C 
ATOM      3  C   UNL     1      49.216   8.508  12.165  0.00  0.00    +0.000 C 
ENDROOT
BRANCH   1   4
ATOM      4  C   UNL     1      46.723   7.890  12.644  0.00  0.00    +0.000 A 
ATOM      5  C   UNL     1      46.198   9.046  12.102  0.00  0.00    +0.000 A 
ATOM      6  C   UNL     1      44.934   8.951  11.584  0.00  0.00    +0.000 A 
ATOM      7  N   UNL     1      44.218   7.815  11.589  0.00  0.00    +0.000 NA
ATOM      8  C   UNL     1      44.761   6.737  12.176  0.00  0.00    +0.000 A 
ATOM      9  N   UNL     1      44.000   5.585  12.253  0.00  0.00    +0.000 N 
ATOM     10  C   UNL     1      44.529   4.448  13.016  0.00  0.00    +0.000 C 
ATOM     11  C   UNL     1      45.258   3.445  12.111  0.00  0.00    +0.000 C 
ATOM     12  O   UNL     1      44.434   3.040  11.004  0.00  0.00    +0.000 OA
ATOM     13  C   UNL     1      44.083   4.186  10.210  0.00  0.00    +0.000 C 
ATOM     14  C   UNL     1      43.279   5.212  11.029  0.00  0.00    +0.000 C 
ATOM     15  N   UNL     1      45.986   6.754  12.715  0.00  0.00    +0.000 NA
ENDBRANCH   1   4
BRANCH   1  19
ATOM     16  C   UNL     1      48.721   7.962  17.366  0.00  0.00    +0.000 A 
ATOM     17  C   UNL     1      48.923   6.758  16.682  0.00  0.00    +0.000 A 
ATOM     18  C   UNL     1      48.766   6.711  15.294  0.00  0.00    +0.000 A 
ATOM     19  C   UNL     1      48.403   7.853  14.560  0.00  0.00    +0.000 A 
ATOM     20  C   UNL     1      48.158   9.038  15.279  0.00  0.00    +0.000 A 
ATOM     21  C   UNL     1      48.313   9.096  16.664  0.00  0.00    +0.000 A 
BRANCH  16  23
ATOM     22  N   UNL     1      48.229   9.058  19.475  0.00  0.00    +0.000 N 
ATOM     23  C   UNL     1      48.929   8.075  18.832  0.00  0.00    +0.000 C 
ATOM     24  O   UNL     1      49.639   7.298  19.451  0.00  0.00    +0.000 OA
ATOM     25  H   UNL     1      48.258   9.030  20.486  0.00  0.00    +0.000 HD
ATOM     26  H   UNL     1      47.438   9.517  19.047  0.00  0.00    +0.000 HD
ENDBRANCH  16  23
ENDBRANCH   1  19
TORSDOF 3
ENDMDL
