MODEL 1
REMARK VINA RESULT:    -7.680      0.000      0.000
REMARK INTER + INTRA:         -11.172
REMARK INTER:                 -10.598
REMARK INTRA:                  -0.574
REMARK UNBOUND:                -0.574
REMARK  Name = 
REMARK  10 active torsions:
REMARK  status: ('A' for Active; 'I' for Inactive)
REMARK    1  A    between atoms: C_1  and  C_2
REMARK    2  A    between atoms: C_2  and  C_3
REMARK    3  A    between atoms: C_2  and  C_4
REMARK    4  A    between atoms: C_2  and  C_15
REMARK    5  A    between atoms: C_4  and  N_5
REMARK    6  A    between atoms: C_10  and  C_11
REMARK    7  A    between atoms: C_19  and  O_20
REMARK    8  A    between atoms: O_20  and  C_21
REMARK    9  A    between atoms: C_23  and  C_24
REMARK   10  A    between atoms: C_23  and  O_25
REMARK                            x       y       z     vdW  Elec       q    Type
REMARK                         _______ _______ _______ _____ _____    ______ ____
ROOT
ATOM      1  C   UNL     1      46.245   7.966  13.346  0.00  0.00    +0.000 C 
ATOM      2  C   UNL     1      46.764   6.639  12.740  0.00  0.00    +0.000 C 
ATOM      3  C   UNL     1      47.669   6.986  11.531  0.00  0.00    +0.000 C 
ENDROOT
BRANCH   2   4
ATOM      4  C   UNL     1      45.558   5.798  12.276  0.00  0.00    +0.000 A 
ATOM      5  C   UNL     1      44.290   5.905  12.865  0.00  0.00    +0.000 A 
ATOM      6  C   UNL     1      43.250   5.095  12.428  0.00  0.00    +0.000 A 
ATOM      7  N   UNL     1      43.362   4.210  11.424  0.00  0.00    +0.000 NA
ATOM      8  C   UNL     1      44.574   4.127  10.842  0.00  0.00    +0.000 A 
ATOM      9  C   UNL     1      45.680   4.875  11.225  0.00  0.00    +0.000 A 
BRANCH   8  10
ATOM     10  O   UNL     1      44.726   3.276   9.765  0.00  0.00    +0.000 OA
BRANCH  10  11
ATOM     11  C   UNL     1      44.859   3.936   8.481  0.00  0.00    +0.000 C 
ATOM     12  C   UNL     1      46.307   4.212   7.995  0.00  0.00    +0.000 C 
ATOM     13  C   UNL     1      46.244   2.876   7.214  0.00  0.00    +0.000 C 
ATOM     14  C   UNL     1      46.897   2.940   5.843  0.00  0.00    +0.000 C 
ATOM     15  C   UNL     1      44.699   3.021   7.242  0.00  0.00    +0.000 C 
BRANCH  13  16
ATOM     16  O   UNL     1      46.746   1.715   7.914  0.00  0.00    +0.000 OA
ATOM     17  H   UNL     1      47.644   1.573   7.568  0.00  0.00    +0.000 HD
ENDBRANCH  13  16
ENDBRANCH  10  11
ENDBRANCH   8  10
ENDBRANCH   2   4
BRANCH   2  18
ATOM     18  C   UNL     1      47.649   5.958  13.842  0.00  0.00    +0.000 C 
BRANCH  18  19
ATOM     19  N   UNL     1      46.843   5.346  14.888  0.00  0.00    +0.000 N 
ATOM     20  C   UNL     1      47.501   4.611  15.851  0.00  0.00    +0.000 A 
ATOM     21  N   UNL     1      46.788   3.618  16.395  0.00  0.00    +0.000 NA
ATOM     22  C   UNL     1      47.369   2.898  17.375  0.00  0.00    +0.000 A 
ATOM     23  C   UNL     1      48.636   3.131  17.825  0.00  0.00    +0.000 A 
ATOM     24  C   UNL     1      49.285   4.170  17.199  0.00  0.00    +0.000 A 
ATOM     25  N   UNL     1      48.748   4.925  16.210  0.00  0.00    +0.000 NA
ATOM     26  H   UNL     1      46.039   4.803  14.597  0.00  0.00    +0.000 HD
BRANCH  24  27
ATOM     27  C   UNL     1      50.674   4.527  17.620  0.00  0.00    +0.000 C 
ATOM     28  N   UNL     1      51.066   4.038  18.836  0.00  0.00    +0.000 N 
ATOM     29  O   UNL     1      51.416   5.208  16.925  0.00  0.00    +0.000 OA
ATOM     30  H   UNL     1      50.437   3.452  19.372  0.00  0.00    +0.000 HD
ATOM     31  H   UNL     1      52.005   4.217  19.165  0.00  0.00    +0.000 HD
ENDBRANCH  24  27
ENDBRANCH  18  19
ENDBRANCH   2  18
TORSDOF 7
ENDMDL
MODEL 2
REMARK VINA RESULT:    -7.623      2.141      2.898
REMARK INTER + INTRA:         -11.093
REMARK INTER:                 -10.384
REMARK INTRA:                  -0.709
REMARK UNBOUND:                -0.574
REMARK  Name = 
REMARK  10 active torsions:
REMARK  status: ('A' for Active; 'I' for Inactive)
REMARK    1  A    between atoms: C_1  and  C_2
REMARK    2  A    between atoms: C_2  and  C_3
REMARK    3  A    between atoms: C_2  and  C_4
REMARK    4  A    between atoms: C_2  and  C_15
REMARK    5  A    between atoms: C_4  and  N_5
REMARK    6  A    between atoms: C_10  and  C_11
REMARK    7  A    between atoms: C_19  and  O_20
REMARK    8  A    between atoms: O_20  and  C_21
REMARK    9  A    between atoms: C_23  and  C_24
REMARK   10  A    between atoms: C_23  and  O_25
REMARK                            x       y       z     vdW  Elec       q    Type
REMARK                         _______ _______ _______ _____ _____    ______ ____
ROOT
ATOM      1  C   UNL     1      47.901   8.662  14.458  0.00  0.00    +0.000 C 
ATOM      2  C   UNL     1      47.890   7.401  13.560  0.00  0.00    +0.000 C 
ATOM      3  C   UNL     1      49.029   7.544  12.520  0.00  0.00    +0.000 C 
ENDROOT
BRANCH   2   4
ATOM      4  C   UNL     1      46.527   7.311  12.846  0.00  0.00    +0.000 A 
ATOM      5  C   UNL     1      46.076   8.291  11.949  0.00  0.00    +0.000 A 
ATOM      6  C   UNL     1      44.823   8.172  11.363  0.00  0.00    +0.000 A 
ATOM      7  N   UNL     1      43.993   7.135  11.570  0.00  0.00    +0.000 NA
ATOM      8  C   UNL     1      44.440   6.182  12.411  0.00  0.00    +0.000 A 
ATOM      9  C   UNL     1      45.665   6.224  13.064  0.00  0.00    +0.000 A 
BRANCH   8  10
ATOM     10  O   UNL     1      43.653   5.065  12.611  0.00  0.00    +0.000 OA
BRANCH  10  11
ATOM     11  C   UNL     1      44.269   3.810  12.230  0.00  0.00    +0.000 C 
ATOM     12  C   UNL     1      43.437   2.889  11.298  0.00  0.00    +0.000 C 
ATOM     13  C   UNL     1      44.177   3.526  10.095  0.00  0.00    +0.000 C 
ATOM     14  C   UNL     1      44.541   2.530   9.006  0.00  0.00    +0.000 C 
ATOM     15  C   UNL     1      45.311   3.898  11.088  0.00  0.00    +0.000 C 
BRANCH  13  16
ATOM     16  O   UNL     1      43.523   4.663   9.486  0.00  0.00    +0.000 OA
ATOM     17  H   UNL     1      43.800   4.650   8.553  0.00  0.00    +0.000 HD
ENDBRANCH  13  16
ENDBRANCH  10  11
ENDBRANCH   8  10
ENDBRANCH   2   4
BRANCH   2  18
ATOM     18  C   UNL     1      48.220   6.184  14.492  0.00  0.00    +0.000 C 
BRANCH  18  19
ATOM     19  N   UNL     1      48.378   6.587  15.882  0.00  0.00    +0.000 N 
ATOM     20  C   UNL     1      48.558   5.591  16.817  0.00  0.00    +0.000 A 
ATOM     21  N   UNL     1      48.112   5.878  18.046  0.00  0.00    +0.000 NA
ATOM     22  C   UNL     1      48.305   4.956  19.010  0.00  0.00    +0.000 A 
ATOM     23  C   UNL     1      48.921   3.759  18.789  0.00  0.00    +0.000 A 
ATOM     24  C   UNL     1      49.339   3.559  17.494  0.00  0.00    +0.000 A 
ATOM     25  N   UNL     1      49.170   4.452  16.488  0.00  0.00    +0.000 NA
ATOM     26  H   UNL     1      47.694   7.231  16.259  0.00  0.00    +0.000 HD
BRANCH  24  27
ATOM     27  C   UNL     1      50.040   2.289  17.136  0.00  0.00    +0.000 C 
ATOM     28  N   UNL     1      51.015   1.888  18.008  0.00  0.00    +0.000 N 
ATOM     29  O   UNL     1      49.762   1.645  16.133  0.00  0.00    +0.000 OA
ATOM     30  H   UNL     1      51.199   2.429  18.844  0.00  0.00    +0.000 HD
ATOM     31  H   UNL     1      51.506   1.021  17.840  0.00  0.00    +0.000 HD
ENDBRANCH  24  27
ENDBRANCH  18  19
ENDBRANCH   2  18
TORSDOF 7
ENDMDL
MODEL 3
REMARK VINA RESULT:    -7.572      1.659      2.127
REMARK INTER + INTRA:         -11.023
REMARK INTER:                 -10.140
REMARK INTRA:                  -0.883
REMARK UNBOUND:                -0.574
REMARK  Name = 
REMARK  10 active torsions:
REMARK  status: ('A' for Active; 'I' for Inactive)
REMARK    1  A    between atoms: C_1  and  C_2
REMARK    2  A    between atoms: C_2  and  C_3
REMARK    3  A    between atoms: C_2  and  C_4
REMARK    4  A    between atoms: C_2  and  C_15
REMARK    5  A    between atoms: C_4  and  N_5
REMARK    6  A    between atoms: C_10  and  C_11
REMARK    7  A    between atoms: C_19  and  O_20
REMARK    8  A    between atoms: O_20  and  C_21
REMARK    9  A    between atoms: C_23  and  C_24
REMARK   10  A    between atoms: C_23  and  O_25
REMARK                            x       y       z     vdW  Elec       q    Type
REMARK                         _______ _______ _______ _____ _____    ______ ____
ROOT
ATOM      1  C   UNL     1      45.609   8.192  12.490  0.00  0.00    +0.000 C 
ATOM      2  C   UNL     1      46.256   6.785  12.520  0.00  0.00    +0.000 C 
ATOM      3  C   UNL     1      47.533   6.826  11.646  0.00  0.00    +0.000 C 
ENDROOT
BRANCH   2   4
ATOM      4  C   UNL     1      45.252   5.764  11.948  0.00  0.00    +0.000 A 
ATOM      5  C   UNL     1      44.335   5.071  12.752  0.00  0.00    +0.000 A 
ATOM      6  C   UNL     1      43.480   4.137  12.183  0.00  0.00    +0.000 A 
ATOM      7  N   UNL     1      43.438   3.861  10.869  0.00  0.00    +0.000 NA
ATOM      8  C   UNL     1      44.302   4.548  10.095  0.00  0.00    +0.000 A 
ATOM      9  C   UNL     1      45.212   5.481  10.573  0.00  0.00    +0.000 A 
BRANCH   8  10
ATOM     10  O   UNL     1      44.257   4.347   8.729  0.00  0.00    +0.000 OA
BRANCH  10  11
ATOM     11  C   UNL     1      44.659   3.024   8.294  0.00  0.00    +0.000 C 
ATOM     12  C   UNL     1      45.158   2.903   6.830  0.00  0.00    +0.000 C 
ATOM     13  C   UNL     1      46.602   3.080   7.362  0.00  0.00    +0.000 C 
ATOM     14  C   UNL     1      47.620   2.189   6.670  0.00  0.00    +0.000 C 
ATOM     15  C   UNL     1      46.076   2.579   8.734  0.00  0.00    +0.000 C 
BRANCH  13  16
ATOM     16  O   UNL     1      47.104   4.436   7.376  0.00  0.00    +0.000 OA
ATOM     17  H   UNL     1      46.491   4.945   6.818  0.00  0.00    +0.000 HD
ENDBRANCH  13  16
ENDBRANCH  10  11
ENDBRANCH   8  10
ENDBRANCH   2   4
BRANCH   2  18
ATOM     18  C   UNL     1      46.681   6.519  14.007  0.00  0.00    +0.000 C 
BRANCH  18  19
ATOM     19  N   UNL     1      48.127   6.453  14.158  0.00  0.00    +0.000 N 
ATOM     20  C   UNL     1      48.621   5.933  15.334  0.00  0.00    +0.000 A 
ATOM     21  N   UNL     1      49.816   6.407  15.709  0.00  0.00    +0.000 NA
ATOM     22  C   UNL     1      50.365   5.898  16.828  0.00  0.00    +0.000 A 
ATOM     23  C   UNL     1      49.763   4.938  17.588  0.00  0.00    +0.000 A 
ATOM     24  C   UNL     1      48.539   4.521  17.121  0.00  0.00    +0.000 A 
ATOM     25  N   UNL     1      47.941   4.999  16.003  0.00  0.00    +0.000 NA
ATOM     26  H   UNL     1      48.654   7.296  13.959  0.00  0.00    +0.000 HD
BRANCH  24  27
ATOM     27  C   UNL     1      47.791   3.461  17.865  0.00  0.00    +0.000 C 
ATOM     28  N   UNL     1      48.359   3.056  19.042  0.00  0.00    +0.000 N 
ATOM     29  O   UNL     1      46.741   2.986  17.454  0.00  0.00    +0.000 OA
ATOM     30  H   UNL     1      49.213   3.492  19.368  0.00  0.00    +0.000 HD
ATOM     31  H   UNL     1      47.887   2.364  19.609  0.00  0.00    +0.000 HD
ENDBRANCH  24  27
ENDBRANCH  18  19
ENDBRANCH   2  18
TORSDOF 7
ENDMDL
MODEL 4
REMARK VINA RESULT:    -7.285      2.187      7.669
REMARK INTER + INTRA:         -10.628
REMARK INTER:                  -9.708
REMARK INTRA:                  -0.919
REMARK UNBOUND:                -0.574
REMARK  Name = 
REMARK  10 active torsions:
REMARK  status: ('A' for Active; 'I' for Inactive)
REMARK    1  A    between atoms: C_1  and  C_2
REMARK    2  A    between atoms: C_2  and  C_3
REMARK    3  A    between atoms: C_2  and  C_4
REMARK    4  A    between atoms: C_2  and  C_15
REMARK    5  A    between atoms: C_4  and  N_5
REMARK    6  A    between atoms: C_10  and  C_11
REMARK    7  A    between atoms: C_19  and  O_20
REMARK    8  A    between atoms: O_20  and  C_21
REMARK    9  A    between atoms: C_23  and  C_24
REMARK   10  A    between atoms: C_23  and  O_25
REMARK                            x       y       z     vdW  Elec       q    Type
REMARK                         _______ _______ _______ _____ _____    ______ ____
ROOT
ATOM      1  C   UNL     1      48.168   7.333  11.667  0.00  0.00    +0.000 C 
ATOM      2  C   UNL     1      47.355   8.222  12.641  0.00  0.00    +0.000 C 
ATOM      3  C   UNL     1      47.422   9.681  12.126  0.00  0.00    +0.000 C 
ENDROOT
BRANCH   2   4
ATOM      4  C   UNL     1      47.983   8.124  14.045  0.00  0.00    +0.000 A 
ATOM      5  C   UNL     1      47.924   9.173  14.976  0.00  0.00    +0.000 A 
ATOM      6  C   UNL     1      48.539   9.039  16.213  0.00  0.00    +0.000 A 
ATOM      7  N   UNL     1      49.180   7.929  16.615  0.00  0.00    +0.000 NA
ATOM      8  C   UNL     1      49.213   6.914  15.730  0.00  0.00    +0.000 A 
ATOM      9  C   UNL     1      48.651   6.961  14.461  0.00  0.00    +0.000 A 
BRANCH   8  10
ATOM     10  O   UNL     1      49.806   5.728  16.117  0.00  0.00    +0.000 OA
BRANCH  10  11
ATOM     11  C   UNL     1      49.310   5.176  17.361  0.00  0.00    +0.000 C 
ATOM     12  C   UNL     1      47.780   4.927  17.443  0.00  0.00    +0.000 C 
ATOM     13  C   UNL     1      48.045   3.469  16.993  0.00  0.00    +0.000 C 
ATOM     14  C   UNL     1      47.185   2.443  17.712  0.00  0.00    +0.000 C 
ATOM     15  C   UNL     1      49.490   3.646  17.531  0.00  0.00    +0.000 C 
BRANCH  13  16
ATOM     16  O   UNL     1      47.965   3.226  15.569  0.00  0.00    +0.000 OA
ATOM     17  H   UNL     1      47.104   3.585  15.294  0.00  0.00    +0.000 HD
ENDBRANCH  13  16
ENDBRANCH  10  11
ENDBRANCH   8  10
ENDBRANCH   2   4
BRANCH   2  18
ATOM     18  C   UNL     1      45.867   7.734  12.556  0.00  0.00    +0.000 C 
BRANCH  18  19
ATOM     19  N   UNL     1      45.681   6.436  13.188  0.00  0.00    +0.000 N 
ATOM     20  C   UNL     1      45.137   5.427  12.423  0.00  0.00    +0.000 A 
ATOM     21  N   UNL     1      44.442   4.508  13.103  0.00  0.00    +0.000 NA
ATOM     22  C   UNL     1      43.928   3.475  12.408  0.00  0.00    +0.000 A 
ATOM     23  C   UNL     1      44.080   3.329  11.060  0.00  0.00    +0.000 A 
ATOM     24  C   UNL     1      44.807   4.328  10.454  0.00  0.00    +0.000 A 
ATOM     25  N   UNL     1      45.344   5.388  11.105  0.00  0.00    +0.000 NA
ATOM     26  H   UNL     1      45.207   6.420  14.084  0.00  0.00    +0.000 HD
BRANCH  24  27
ATOM     27  C   UNL     1      45.050   4.268   8.980  0.00  0.00    +0.000 C 
ATOM     28  N   UNL     1      44.316   3.335   8.299  0.00  0.00    +0.000 N 
ATOM     29  O   UNL     1      45.849   5.002   8.416  0.00  0.00    +0.000 OA
ATOM     30  H   UNL     1      43.641   2.763   8.794  0.00  0.00    +0.000 HD
ATOM     31  H   UNL     1      44.411   3.264   7.296  0.00  0.00    +0.000 HD
ENDBRANCH  24  27
ENDBRANCH  18  19
ENDBRANCH   2  18
TORSDOF 7
ENDMDL
MODEL 5
REMARK VINA RESULT:    -7.279      2.482      7.883
REMARK INTER + INTRA:         -10.619
REMARK INTER:                  -9.633
REMARK INTRA:                  -0.986
REMARK UNBOUND:                -0.574
REMARK  Name = 
REMARK  10 active torsions:
REMARK  status: ('A' for Active; 'I' for Inactive)
REMARK    1  A    between atoms: C_1  and  C_2
REMARK    2  A    between atoms: C_2  and  C_3
REMARK    3  A    between atoms: C_2  and  C_4
REMARK    4  A    between atoms: C_2  and  C_15
REMARK    5  A    between atoms: C_4  and  N_5
REMARK    6  A    between atoms: C_10  and  C_11
REMARK    7  A    between atoms: C_19  and  O_20
REMARK    8  A    between atoms: O_20  and  C_21
REMARK    9  A    between atoms: C_23  and  C_24
REMARK   10  A    between atoms: C_23  and  O_25
REMARK                            x       y       z     vdW  Elec       q    Type
REMARK                         _______ _______ _______ _____ _____    ______ ____
ROOT
ATOM      1  C   UNL     1      48.882   7.626  11.534  0.00  0.00    +0.000 C 
ATOM      2  C   UNL     1      47.732   7.871  12.542  0.00  0.00    +0.000 C 
ATOM      3  C   UNL     1      47.069   9.226  12.192  0.00  0.00    +0.000 C 
ENDROOT
BRANCH   2   4
ATOM      4  C   UNL     1      48.322   7.920  13.966  0.00  0.00    +0.000 A 
ATOM      5  C   UNL     1      48.219   9.051  14.789  0.00  0.00    +0.000 A 
ATOM      6  C   UNL     1      48.801   9.048  16.050  0.00  0.00    +0.000 A 
ATOM      7  N   UNL     1      49.448   7.993  16.574  0.00  0.00    +0.000 NA
ATOM      8  C   UNL     1      49.523   6.899  15.791  0.00  0.00    +0.000 A 
ATOM      9  C   UNL     1      48.996   6.814  14.509  0.00  0.00    +0.000 A 
BRANCH   8  10
ATOM     10  O   UNL     1      50.124   5.767  16.306  0.00  0.00    +0.000 OA
BRANCH  10  11
ATOM     11  C   UNL     1      49.511   5.246  17.511  0.00  0.00    +0.000 C 
ATOM     12  C   UNL     1      47.967   5.088  17.486  0.00  0.00    +0.000 C 
ATOM     13  C   UNL     1      48.177   3.616  17.051  0.00  0.00    +0.000 C 
ATOM     14  C   UNL     1      47.211   2.643  17.706  0.00  0.00    +0.000 C 
ATOM     15  C   UNL     1      49.589   3.709  17.688  0.00  0.00    +0.000 C 
BRANCH  13  16
ATOM     16  O   UNL     1      48.182   3.377  15.625  0.00  0.00    +0.000 OA
ATOM     17  H   UNL     1      48.037   2.420  15.523  0.00  0.00    +0.000 HD
ENDBRANCH  13  16
ENDBRANCH  10  11
ENDBRANCH   8  10
ENDBRANCH   2   4
BRANCH   2  18
ATOM     18  C   UNL     1      46.682   6.730  12.310  0.00  0.00    +0.000 C 
BRANCH  18  19
ATOM     19  N   UNL     1      46.206   6.697  10.935  0.00  0.00    +0.000 N 
ATOM     20  C   UNL     1      45.587   5.544  10.502  0.00  0.00    +0.000 A 
ATOM     21  N   UNL     1      45.704   5.293   9.193  0.00  0.00    +0.000 NA
ATOM     22  C   UNL     1      45.078   4.202   8.710  0.00  0.00    +0.000 A 
ATOM     23  C   UNL     1      44.346   3.352   9.487  0.00  0.00    +0.000 A 
ATOM     24  C   UNL     1      44.290   3.697  10.817  0.00  0.00    +0.000 A 
ATOM     25  N   UNL     1      44.900   4.781  11.354  0.00  0.00    +0.000 NA
ATOM     26  H   UNL     1      46.858   6.976  10.211  0.00  0.00    +0.000 HD
BRANCH  24  27
ATOM     27  C   UNL     1      43.504   2.847  11.763  0.00  0.00    +0.000 C 
ATOM     28  N   UNL     1      43.477   3.280  13.061  0.00  0.00    +0.000 N 
ATOM     29  O   UNL     1      42.920   1.833  11.405  0.00  0.00    +0.000 OA
ATOM     30  H   UNL     1      43.946   4.140  13.317  0.00  0.00    +0.000 HD
ATOM     31  H   UNL     1      42.937   2.767  13.745  0.00  0.00    +0.000 HD
ENDBRANCH  24  27
ENDBRANCH  18  19
ENDBRANCH   2  18
TORSDOF 7
ENDMDL
MODEL 6
REMARK VINA RESULT:    -7.195      2.731      4.562
REMARK INTER + INTRA:         -10.503
REMARK INTER:                  -8.851
REMARK INTRA:                  -1.651
REMARK UNBOUND:                -0.574
REMARK  Name = 
REMARK  10 active torsions:
REMARK  status: ('A' for Active; 'I' for Inactive)
REMARK    1  A    between atoms: C_1  and  C_2
REMARK    2  A    between atoms: C_2  and  C_3
REMARK    3  A    between atoms: C_2  and  C_4
REMARK    4  A    between atoms: C_2  and  C_15
REMARK    5  A    between atoms: C_4  and  N_5
REMARK    6  A    between atoms: C_10  and  C_11
REMARK    7  A    between atoms: C_19  and  O_20
REMARK    8  A    between atoms: O_20  and  C_21
REMARK    9  A    between atoms: C_23  and  C_24
REMARK   10  A    between atoms: C_23  and  O_25
REMARK                            x       y       z     vdW  Elec       q    Type
REMARK                         _______ _______ _______ _____ _____    ______ ____
ROOT
ATOM      1  C   UNL     1      50.358  10.179  15.222  0.00  0.00    +0.000 C 
ATOM      2  C   UNL     1      50.152   8.673  14.929  0.00  0.00    +0.000 C 
ATOM      3  C   UNL     1      51.414   8.149  14.200  0.00  0.00    +0.000 C 
ENDROOT
BRANCH   2   4
ATOM      4  C   UNL     1      48.912   8.507  14.028  0.00  0.00    +0.000 A 
ATOM      5  C   UNL     1      48.271   9.593  13.414  0.00  0.00    +0.000 A 
ATOM      6  C   UNL     1      47.136   9.385  12.642  0.00  0.00    +0.000 A 
ATOM      7  N   UNL     1      46.605   8.174  12.401  0.00  0.00    +0.000 NA
ATOM      8  C   UNL     1      47.238   7.130  12.971  0.00  0.00    +0.000 A 
ATOM      9  C   UNL     1      48.362   7.239  13.779  0.00  0.00    +0.000 A 
BRANCH   8  10
ATOM     10  O   UNL     1      46.769   5.858  12.705  0.00  0.00    +0.000 OA
BRANCH  10  11
ATOM     11  C   UNL     1      45.444   5.806  12.122  0.00  0.00    +0.000 C 
ATOM     12  C   UNL     1      45.203   4.703  11.058  0.00  0.00    +0.000 C 
ATOM     13  C   UNL     1      44.653   3.802  12.191  0.00  0.00    +0.000 C 
ATOM     14  C   UNL     1      43.439   2.983  11.785  0.00  0.00    +0.000 C 
ATOM     15  C   UNL     1      44.363   5.105  12.982  0.00  0.00    +0.000 C 
BRANCH  13  16
ATOM     16  O   UNL     1      45.615   2.925  12.820  0.00  0.00    +0.000 OA
ATOM     17  H   UNL     1      46.343   2.839  12.180  0.00  0.00    +0.000 HD
ENDBRANCH  13  16
ENDBRANCH  10  11
ENDBRANCH   8  10
ENDBRANCH   2   4
BRANCH   2  18
ATOM     18  C   UNL     1      50.049   7.956  16.320  0.00  0.00    +0.000 C 
BRANCH  18  19
ATOM     19  N   UNL     1      50.930   6.801  16.406  0.00  0.00    +0.000 N 
ATOM     20  C   UNL     1      50.376   5.605  16.808  0.00  0.00    +0.000 A 
ATOM     21  N   UNL     1      51.213   4.773  17.440  0.00  0.00    +0.000 NA
ATOM     22  C   UNL     1      50.733   3.571  17.814  0.00  0.00    +0.000 A 
ATOM     23  C   UNL     1      49.448   3.173  17.584  0.00  0.00    +0.000 A 
ATOM     24  C   UNL     1      48.668   4.100  16.933  0.00  0.00    +0.000 A 
ATOM     25  N   UNL     1      49.100   5.322  16.536  0.00  0.00    +0.000 NA
ATOM     26  H   UNL     1      51.797   6.915  16.918  0.00  0.00    +0.000 HD
BRANCH  24  27
ATOM     27  C   UNL     1      47.246   3.769  16.615  0.00  0.00    +0.000 C 
ATOM     28  N   UNL     1      46.757   4.318  15.461  0.00  0.00    +0.000 N 
ATOM     29  O   UNL     1      46.562   3.053  17.334  0.00  0.00    +0.000 OA
ATOM     30  H   UNL     1      47.360   4.881  14.873  0.00  0.00    +0.000 HD
ATOM     31  H   UNL     1      45.811   4.108  15.172  0.00  0.00    +0.000 HD
ENDBRANCH  24  27
ENDBRANCH  18  19
ENDBRANCH   2  18
TORSDOF 7
ENDMDL
MODEL 7
REMARK VINA RESULT:    -6.905      3.214      7.515
REMARK INTER + INTRA:         -10.103
REMARK INTER:                  -8.955
REMARK INTRA:                  -1.148
REMARK UNBOUND:                -0.574
REMARK  Name = 
REMARK  10 active torsions:
REMARK  status: ('A' for Active; 'I' for Inactive)
REMARK    1  A    between atoms: C_1  and  C_2
REMARK    2  A    between atoms: C_2  and  C_3
REMARK    3  A    between atoms: C_2  and  C_4
REMARK    4  A    between atoms: C_2  and  C_15
REMARK    5  A    between atoms: C_4  and  N_5
REMARK    6  A    between atoms: C_10  and  C_11
REMARK    7  A    between atoms: C_19  and  O_20
REMARK    8  A    between atoms: O_20  and  C_21
REMARK    9  A    between atoms: C_23  and  C_24
REMARK   10  A    between atoms: C_23  and  O_25
REMARK                            x       y       z     vdW  Elec       q    Type
REMARK                         _______ _______ _______ _____ _____    ______ ____
ROOT
ATOM      1  C   UNL     1      49.629   7.929  11.470  0.00  0.00    +0.000 C 
ATOM      2  C   UNL     1      48.299   8.189  12.220  0.00  0.00    +0.000 C 
ATOM      3  C   UNL     1      47.817   9.616  11.859  0.00  0.00    +0.000 C 
ENDROOT
BRANCH   2   4
ATOM      4  C   UNL     1      48.554   8.081  13.736  0.00  0.00    +0.000 A 
ATOM      5  C   UNL     1      48.267   9.125  14.628  0.00  0.00    +0.000 A 
ATOM      6  C   UNL     1      48.551   8.982  15.980  0.00  0.00    +0.000 A 
ATOM      7  N   UNL     1      49.067   7.867  16.523  0.00  0.00    +0.000 NA
ATOM      8  C   UNL     1      49.317   6.856  15.668  0.00  0.00    +0.000 A 
ATOM      9  C   UNL     1      49.091   6.912  14.300  0.00  0.00    +0.000 A 
BRANCH   8  10
ATOM     10  O   UNL     1      49.790   5.665  16.185  0.00  0.00    +0.000 OA
BRANCH  10  11
ATOM     11  C   UNL     1      49.123   5.216  17.390  0.00  0.00    +0.000 C 
ATOM     12  C   UNL     1      47.628   4.826  17.245  0.00  0.00    +0.000 C 
ATOM     13  C   UNL     1      48.082   3.360  17.044  0.00  0.00    +0.000 C 
ATOM     14  C   UNL     1      47.190   2.344  17.739  0.00  0.00    +0.000 C 
ATOM     15  C   UNL     1      49.389   3.743  17.789  0.00  0.00    +0.000 C 
BRANCH  13  16
ATOM     16  O   UNL     1      48.279   2.945  15.673  0.00  0.00    +0.000 OA
ATOM     17  H   UNL     1      48.211   1.974  15.684  0.00  0.00    +0.000 HD
ENDBRANCH  13  16
ENDBRANCH  10  11
ENDBRANCH   8  10
ENDBRANCH   2   4
BRANCH   2  18
ATOM     18  C   UNL     1      47.259   7.157  11.658  0.00  0.00    +0.000 C 
BRANCH  18  19
ATOM     19  N   UNL     1      45.887   7.596  11.867  0.00  0.00    +0.000 N 
ATOM     20  C   UNL     1      44.897   6.640  11.803  0.00  0.00    +0.000 A 
ATOM     21  N   UNL     1      43.700   7.086  11.401  0.00  0.00    +0.000 NA
ATOM     22  C   UNL     1      42.685   6.201  11.364  0.00  0.00    +0.000 A 
ATOM     23  C   UNL     1      42.823   4.888  11.710  0.00  0.00    +0.000 A 
ATOM     24  C   UNL     1      44.091   4.529  12.105  0.00  0.00    +0.000 A 
ATOM     25  N   UNL     1      45.146   5.378  12.159  0.00  0.00    +0.000 NA
ATOM     26  H   UNL     1      45.568   8.393  11.330  0.00  0.00    +0.000 HD
BRANCH  24  27
ATOM     27  C   UNL     1      44.358   3.119  12.521  0.00  0.00    +0.000 C 
ATOM     28  N   UNL     1      45.665   2.823  12.797  0.00  0.00    +0.000 N 
ATOM     29  O   UNL     1      43.471   2.281  12.612  0.00  0.00    +0.000 OA
ATOM     30  H   UNL     1      46.370   3.548  12.741  0.00  0.00    +0.000 HD
ATOM     31  H   UNL     1      45.909   1.895  13.113  0.00  0.00    +0.000 HD
ENDBRANCH  24  27
ENDBRANCH  18  19
ENDBRANCH   2  18
TORSDOF 7
ENDMDL
MODEL 8
REMARK VINA RESULT:    -6.597      3.164      4.679
REMARK INTER + INTRA:          -9.678
REMARK INTER:                  -8.495
REMARK INTRA:                  -1.183
REMARK UNBOUND:                -0.574
REMARK  Name = 
REMARK  10 active torsions:
REMARK  status: ('A' for Active; 'I' for Inactive)
REMARK    1  A    between atoms: C_1  and  C_2
REMARK    2  A    between atoms: C_2  and  C_3
REMARK    3  A    between atoms: C_2  and  C_4
REMARK    4  A    between atoms: C_2  and  C_15
REMARK    5  A    between atoms: C_4  and  N_5
REMARK    6  A    between atoms: C_10  and  C_11
REMARK    7  A    between atoms: C_19  and  O_20
REMARK    8  A    between atoms: O_20  and  C_21
REMARK    9  A    between atoms: C_23  and  C_24
REMARK   10  A    between atoms: C_23  and  O_25
REMARK                            x       y       z     vdW  Elec       q    Type
REMARK                         _______ _______ _______ _____ _____    ______ ____
ROOT
ATOM      1  C   UNL     1      48.155   9.262  16.687  0.00  0.00    +0.000 C 
ATOM      2  C   UNL     1      49.429   8.577  16.133  0.00  0.00    +0.000 C 
ATOM      3  C   UNL     1      50.594   9.595  16.214  0.00  0.00    +0.000 C 
ENDROOT
BRANCH   2   4
ATOM      4  C   UNL     1      49.178   8.172  14.667  0.00  0.00    +0.000 A 
ATOM      5  C   UNL     1      50.198   8.146  13.704  0.00  0.00    +0.000 A 
ATOM      6  C   UNL     1      49.904   7.806  12.390  0.00  0.00    +0.000 A 
ATOM      7  N   UNL     1      48.679   7.455  11.963  0.00  0.00    +0.000 NA
ATOM      8  C   UNL     1      47.707   7.456  12.896  0.00  0.00    +0.000 A 
ATOM      9  C   UNL     1      47.897   7.804  14.226  0.00  0.00    +0.000 A 
BRANCH   8  10
ATOM     10  O   UNL     1      46.443   7.043  12.523  0.00  0.00    +0.000 OA
BRANCH  10  11
ATOM     11  C   UNL     1      46.321   5.625  12.246  0.00  0.00    +0.000 C 
ATOM     12  C   UNL     1      45.732   4.750  13.384  0.00  0.00    +0.000 C 
ATOM     13  C   UNL     1      44.342   4.917  12.723  0.00  0.00    +0.000 C 
ATOM     14  C   UNL     1      43.499   3.653  12.746  0.00  0.00    +0.000 C 
ATOM     15  C   UNL     1      45.092   5.215  11.398  0.00  0.00    +0.000 C 
BRANCH  13  16
ATOM     16  O   UNL     1      43.541   6.018  13.214  0.00  0.00    +0.000 OA
ATOM     17  H   UNL     1      43.131   5.693  14.034  0.00  0.00    +0.000 HD
ENDBRANCH  13  16
ENDBRANCH  10  11
ENDBRANCH   8  10
ENDBRANCH   2   4
BRANCH   2  18
ATOM     18  C   UNL     1      49.749   7.381  17.095  0.00  0.00    +0.000 C 
BRANCH  18  19
ATOM     19  N   UNL     1      48.541   6.702  17.544  0.00  0.00    +0.000 N 
ATOM     20  C   UNL     1      48.487   5.334  17.394  0.00  0.00    +0.000 A 
ATOM     21  N   UNL     1      47.259   4.827  17.230  0.00  0.00    +0.000 NA
ATOM     22  C   UNL     1      47.145   3.489  17.126  0.00  0.00    +0.000 A 
ATOM     23  C   UNL     1      48.213   2.640  17.174  0.00  0.00    +0.000 A 
ATOM     24  C   UNL     1      49.430   3.259  17.341  0.00  0.00    +0.000 A 
ATOM     25  N   UNL     1      49.600   4.599  17.451  0.00  0.00    +0.000 NA
ATOM     26  H   UNL     1      47.654   7.073  17.224  0.00  0.00    +0.000 HD
BRANCH  24  27
ATOM     27  C   UNL     1      50.671   2.429  17.422  0.00  0.00    +0.000 C 
ATOM     28  N   UNL     1      51.661   2.926  18.225  0.00  0.00    +0.000 N 
ATOM     29  O   UNL     1      50.796   1.374  16.814  0.00  0.00    +0.000 OA
ATOM     30  H   UNL     1      51.512   3.787  18.737  0.00  0.00    +0.000 HD
ATOM     31  H   UNL     1      52.514   2.398  18.347  0.00  0.00    +0.000 HD
ENDBRANCH  24  27
ENDBRANCH  18  19
ENDBRANCH   2  18
TORSDOF 7
ENDMDL
MODEL 9
REMARK VINA RESULT:    -6.314      5.306      7.355
REMARK INTER + INTRA:          -9.287
REMARK INTER:                  -8.567
REMARK INTRA:                  -0.721
REMARK UNBOUND:                -0.574
REMARK  Name = 
REMARK  10 active torsions:
REMARK  status: ('A' for Active; 'I' for Inactive)
REMARK    1  A    between atoms: C_1  and  C_2
REMARK    2  A    between atoms: C_2  and  C_3
REMARK    3  A    between atoms: C_2  and  C_4
REMARK    4  A    between atoms: C_2  and  C_15
REMARK    5  A    between atoms: C_4  and  N_5
REMARK    6  A    between atoms: C_10  and  C_11
REMARK    7  A    between atoms: C_19  and  O_20
REMARK    8  A    between atoms: O_20  and  C_21
REMARK    9  A    between atoms: C_23  and  C_24
REMARK   10  A    between atoms: C_23  and  O_25
REMARK                            x       y       z     vdW  Elec       q    Type
REMARK                         _______ _______ _______ _____ _____    ______ ____
ROOT
ATOM      1  C   UNL     1      51.399   8.764  12.961  0.00  0.00    +0.000 C 
ATOM      2  C   UNL     1      50.678   8.679  11.593  0.00  0.00    +0.000 C 
ATOM      3  C   UNL     1      50.946   9.998  10.827  0.00  0.00    +0.000 C 
ENDROOT
BRANCH   2   4
ATOM      4  C   UNL     1      49.166   8.504  11.838  0.00  0.00    +0.000 A 
ATOM      5  C   UNL     1      48.278   9.589  11.894  0.00  0.00    +0.000 A 
ATOM      6  C   UNL     1      46.932   9.371  12.153  0.00  0.00    +0.000 A 
ATOM      7  N   UNL     1      46.389   8.155  12.327  0.00  0.00    +0.000 NA
ATOM      8  C   UNL     1      47.239   7.113  12.247  0.00  0.00    +0.000 A 
ATOM      9  C   UNL     1      48.604   7.230  12.017  0.00  0.00    +0.000 A 
BRANCH   8  10
ATOM     10  O   UNL     1      46.722   5.837  12.356  0.00  0.00    +0.000 OA
BRANCH  10  11
ATOM     11  C   UNL     1      45.335   5.705  11.957  0.00  0.00    +0.000 C 
ATOM     12  C   UNL     1      45.009   4.551  10.972  0.00  0.00    +0.000 C 
ATOM     13  C   UNL     1      44.658   3.672  12.198  0.00  0.00    +0.000 C 
ATOM     14  C   UNL     1      43.441   2.786  11.986  0.00  0.00    +0.000 C 
ATOM     15  C   UNL     1      44.413   4.992  12.977  0.00  0.00    +0.000 C 
BRANCH  13  16
ATOM     16  O   UNL     1      45.736   2.864  12.722  0.00  0.00    +0.000 OA
ATOM     17  H   UNL     1      45.903   3.205  13.617  0.00  0.00    +0.000 HD
ENDBRANCH  13  16
ENDBRANCH  10  11
ENDBRANCH   8  10
ENDBRANCH   2   4
BRANCH   2  18
ATOM     18  C   UNL     1      51.351   7.502  10.804  0.00  0.00    +0.000 C 
BRANCH  18  19
ATOM     19  N   UNL     1      52.796   7.480  10.983  0.00  0.00    +0.000 N 
ATOM     20  C   UNL     1      53.517   6.581  10.227  0.00  0.00    +0.000 A 
ATOM     21  N   UNL     1      54.655   6.152  10.787  0.00  0.00    +0.000 NA
ATOM     22  C   UNL     1      55.422   5.307  10.070  0.00  0.00    +0.000 A 
ATOM     23  C   UNL     1      55.091   4.873   8.820  0.00  0.00    +0.000 A 
ATOM     24  C   UNL     1      53.902   5.368   8.337  0.00  0.00    +0.000 A 
ATOM     25  N   UNL     1      53.094   6.219   9.015  0.00  0.00    +0.000 NA
ATOM     26  H   UNL     1      53.145   7.421  11.932  0.00  0.00    +0.000 HD
BRANCH  24  27
ATOM     27  C   UNL     1      53.443   4.972   6.970  0.00  0.00    +0.000 C 
ATOM     28  N   UNL     1      53.076   3.662   6.828  0.00  0.00    +0.000 N 
ATOM     29  O   UNL     1      53.395   5.764   6.038  0.00  0.00    +0.000 OA
ATOM     30  H   UNL     1      53.099   3.041   7.628  0.00  0.00    +0.000 HD
ATOM     31  H   UNL     1      52.726   3.337   5.937  0.00  0.00    +0.000 HD
ENDBRANCH  24  27
ENDBRANCH  18  19
ENDBRANCH   2  18
TORSDOF 7
ENDMDL
