MODEL 1
REMARK VINA RESULT:    -7.805      0.000      0.000
REMARK INTER + INTRA:         -12.635
REMARK INTER:                 -11.455
REMARK INTRA:                  -1.180
REMARK UNBOUND:                -1.180
REMARK  Name = 
REMARK  9 active torsions:
REMARK  status: ('A' for Active; 'I' for Inactive)
REMARK    1  A    between atoms: C_1  and  O_2
REMARK    2  A    between atoms: O_2  and  C_3
REMARK    3  A    between atoms: C_10  and  C_11
REMARK    4  A    between atoms: N_13  and  C_14
REMARK    5  A    between atoms: C_14  and  C_15
REMARK    6  A    between atoms: C_18  and  C_19
REMARK    7  A    between atoms: C_19  and  C_20
REMARK    8  A    between atoms: C_20  and  N_21
REMARK    9  A    between atoms: N_21  and  C_22
REMARK                            x       y       z     vdW  Elec       q    Type
REMARK                         _______ _______ _______ _____ _____    ______ ____
ROOT
ATOM      1  C   UNL     1      47.244   8.139  13.440  0.00  0.00    +0.000 C 
ENDROOT
BRANCH   1   2
ATOM      2  C   UNL     1      46.336   7.303  12.576  0.00  0.00    +0.000 A 
ATOM      3  C   UNL     1      46.758   6.056  12.111  0.00  0.00    +0.000 A 
ATOM      4  C   UNL     1      45.935   5.288  11.287  0.00  0.00    +0.000 A 
ATOM      5  C   UNL     1      44.659   5.740  10.921  0.00  0.00    +0.000 A 
ATOM      6  C   UNL     1      44.242   6.997  11.371  0.00  0.00    +0.000 A 
ATOM      7  C   UNL     1      45.073   7.775  12.188  0.00  0.00    +0.000 A 
BRANCH   5   8
ATOM      8  C   UNL     1      43.748   4.934  10.022  0.00  0.00    +0.000 C 
BRANCH   8   9
ATOM      9  C   UNL     1      44.403   3.754   9.282  0.00  0.00    +0.000 C 
BRANCH   9  10
ATOM     10  N   UNL     1      45.035   4.110   8.009  0.00  0.00    +0.000 NA
ATOM     11  H   UNL     1      45.288   5.098   7.997  0.00  0.00    +0.000 HD
BRANCH  10  12
ATOM     12  C   UNL     1      46.194   3.259   7.689  0.00  0.00    +0.000 C 
ATOM     13  C   UNL     1      46.601   3.284   6.208  0.00  0.00    +0.000 C 
ATOM     14  C   UNL     1      47.707   2.275   5.931  0.00  0.00    +0.000 C 
ATOM     15  O   UNL     1      47.302   0.968   6.325  0.00  0.00    +0.000 OA
ATOM     16  C   UNL     1      47.044   0.891   7.726  0.00  0.00    +0.000 C 
ATOM     17  C   UNL     1      45.899   1.815   8.122  0.00  0.00    +0.000 C 
ENDBRANCH  10  12
ENDBRANCH   9  10
ENDBRANCH   8   9
ENDBRANCH   5   8
ENDBRANCH   1   2
BRANCH   1  20
ATOM     18  C   UNL     1      48.840   6.904  14.847  0.00  0.00    +0.000 C 
ATOM     19  O   UNL     1      49.712   6.995  13.984  0.00  0.00    +0.000 OA
ATOM     20  N   UNL     1      47.593   7.445  14.650  0.00  0.00    +0.000 N 
ATOM     21  H   UNL     1      46.864   7.296  15.335  0.00  0.00    +0.000 HD
BRANCH  18  29
ATOM     22  C   UNL     1      47.342   4.249  16.428  0.00  0.00    +0.000 A 
ATOM     23  N   UNL     1      46.954   3.254  17.248  0.00  0.00    +0.000 NA
ATOM     24  C   UNL     1      47.621   3.084  18.389  0.00  0.00    +0.000 A 
ATOM     25  N   UNL     1      48.651   3.799  18.825  0.00  0.00    +0.000 NA
ATOM     26  C   UNL     1      49.010   4.778  17.977  0.00  0.00    +0.000 A 
ATOM     27  S   UNL     1      50.304   5.797  18.378  0.00  0.00    +0.000 S 
ATOM     28  C   UNL     1      50.124   6.672  16.934  0.00  0.00    +0.000 A 
ATOM     29  C   UNL     1      49.090   6.216  16.119  0.00  0.00    +0.000 A 
ATOM     30  C   UNL     1      48.425   5.079  16.753  0.00  0.00    +0.000 A 
BRANCH  22  32
ATOM     31  C   UNL     1      47.136   3.508  14.237  0.00  0.00    +0.000 C 
ATOM     32  O   UNL     1      46.655   4.399  15.242  0.00  0.00    +0.000 OA
ENDBRANCH  22  32
ENDBRANCH  18  29
ENDBRANCH   1  20
TORSDOF 8
ENDMDL
MODEL 2
REMARK VINA RESULT:    -7.690      1.727      2.252
REMARK INTER + INTRA:         -12.467
REMARK INTER:                 -11.443
REMARK INTRA:                  -1.024
REMARK UNBOUND:                -1.180
REMARK  Name = 
REMARK  9 active torsions:
REMARK  status: ('A' for Active; 'I' for Inactive)
REMARK    1  A    between atoms: C_1  and  O_2
REMARK    2  A    between atoms: O_2  and  C_3
REMARK    3  A    between atoms: C_10  and  C_11
REMARK    4  A    between atoms: N_13  and  C_14
REMARK    5  A    between atoms: C_14  and  C_15
REMARK    6  A    between atoms: C_18  and  C_19
REMARK    7  A    between atoms: C_19  and  C_20
REMARK    8  A    between atoms: C_20  and  N_21
REMARK    9  A    between atoms: N_21  and  C_22
REMARK                            x       y       z     vdW  Elec       q    Type
REMARK                         _______ _______ _______ _____ _____    ______ ____
ROOT
ATOM      1  C   UNL     1      48.524   6.587  13.624  0.00  0.00    +0.000 C 
ENDROOT
BRANCH   1   2
ATOM      2  C   UNL     1      47.338   6.054  12.863  0.00  0.00    +0.000 A 
ATOM      3  C   UNL     1      46.718   4.869  13.264  0.00  0.00    +0.000 A 
ATOM      4  C   UNL     1      45.638   4.353  12.547  0.00  0.00    +0.000 A 
ATOM      5  C   UNL     1      45.136   5.020  11.420  0.00  0.00    +0.000 A 
ATOM      6  C   UNL     1      45.768   6.197  11.006  0.00  0.00    +0.000 A 
ATOM      7  C   UNL     1      46.862   6.709  11.717  0.00  0.00    +0.000 A 
BRANCH   5   8
ATOM      8  C   UNL     1      43.973   4.481  10.619  0.00  0.00    +0.000 C 
BRANCH   8   9
ATOM      9  C   UNL     1      44.316   3.406   9.572  0.00  0.00    +0.000 C 
BRANCH   9  10
ATOM     10  N   UNL     1      44.943   3.924   8.353  0.00  0.00    +0.000 NA
ATOM     11  H   UNL     1      45.582   4.688   8.574  0.00  0.00    +0.000 HD
BRANCH  10  12
ATOM     12  C   UNL     1      45.616   2.875   7.568  0.00  0.00    +0.000 C 
ATOM     13  C   UNL     1      46.011   1.635   8.385  0.00  0.00    +0.000 C 
ATOM     14  C   UNL     1      46.824   0.664   7.541  0.00  0.00    +0.000 C 
ATOM     15  O   UNL     1      47.976   1.309   7.007  0.00  0.00    +0.000 OA
ATOM     16  C   UNL     1      47.629   2.386   6.138  0.00  0.00    +0.000 C 
ATOM     17  C   UNL     1      46.860   3.467   6.889  0.00  0.00    +0.000 C 
ENDBRANCH  10  12
ENDBRANCH   9  10
ENDBRANCH   8   9
ENDBRANCH   5   8
ENDBRANCH   1   2
BRANCH   1  20
ATOM     18  C   UNL     1      49.163   6.789  15.991  0.00  0.00    +0.000 C 
ATOM     19  O   UNL     1      50.348   6.610  15.713  0.00  0.00    +0.000 OA
ATOM     20  N   UNL     1      48.201   6.791  15.011  0.00  0.00    +0.000 N 
ATOM     21  H   UNL     1      47.224   6.864  15.261  0.00  0.00    +0.000 HD
BRANCH  18  29
ATOM     22  C   UNL     1      48.936   4.747  18.743  0.00  0.00    +0.000 A 
ATOM     23  N   UNL     1      48.752   4.184  19.951  0.00  0.00    +0.000 NA
ATOM     24  C   UNL     1      48.278   4.947  20.935  0.00  0.00    +0.000 A 
ATOM     25  N   UNL     1      47.956   6.233  20.863  0.00  0.00    +0.000 NA
ATOM     26  C   UNL     1      48.157   6.759  19.642  0.00  0.00    +0.000 A 
ATOM     27  S   UNL     1      47.791   8.391  19.365  0.00  0.00    +0.000 S 
ATOM     28  C   UNL     1      48.275   8.274  17.742  0.00  0.00    +0.000 A 
ATOM     29  C   UNL     1      48.725   7.007  17.374  0.00  0.00    +0.000 A 
ATOM     30  C   UNL     1      48.650   6.103  18.521  0.00  0.00    +0.000 A 
BRANCH  22  32
ATOM     31  C   UNL     1      48.418   3.237  17.057  0.00  0.00    +0.000 C 
ATOM     32  O   UNL     1      49.447   3.950  17.741  0.00  0.00    +0.000 OA
ENDBRANCH  22  32
ENDBRANCH  18  29
ENDBRANCH   1  20
TORSDOF 8
ENDMDL
MODEL 3
REMARK VINA RESULT:    -7.484      1.950      3.489
REMARK INTER + INTRA:         -12.165
REMARK INTER:                 -10.789
REMARK INTRA:                  -1.376
REMARK UNBOUND:                -1.180
REMARK  Name = 
REMARK  9 active torsions:
REMARK  status: ('A' for Active; 'I' for Inactive)
REMARK    1  A    between atoms: C_1  and  O_2
REMARK    2  A    between atoms: O_2  and  C_3
REMARK    3  A    between atoms: C_10  and  C_11
REMARK    4  A    between atoms: N_13  and  C_14
REMARK    5  A    between atoms: C_14  and  C_15
REMARK    6  A    between atoms: C_18  and  C_19
REMARK    7  A    between atoms: C_19  and  C_20
REMARK    8  A    between atoms: C_20  and  N_21
REMARK    9  A    between atoms: N_21  and  C_22
REMARK                            x       y       z     vdW  Elec       q    Type
REMARK                         _______ _______ _______ _____ _____    ______ ____
ROOT
ATOM      1  C   UNL     1      47.385   3.985  14.988  0.00  0.00    +0.000 C 
ENDROOT
BRANCH   1   2
ATOM      2  C   UNL     1      46.520   4.261  13.786  0.00  0.00    +0.000 A 
ATOM      3  C   UNL     1      46.013   3.207  13.025  0.00  0.00    +0.000 A 
ATOM      4  C   UNL     1      45.235   3.455  11.894  0.00  0.00    +0.000 A 
ATOM      5  C   UNL     1      44.926   4.767  11.505  0.00  0.00    +0.000 A 
ATOM      6  C   UNL     1      45.448   5.825  12.257  0.00  0.00    +0.000 A 
ATOM      7  C   UNL     1      46.241   5.577  13.385  0.00  0.00    +0.000 A 
BRANCH   5   8
ATOM      8  C   UNL     1      44.092   5.067  10.280  0.00  0.00    +0.000 C 
BRANCH   8   9
ATOM      9  C   UNL     1      44.225   4.073   9.114  0.00  0.00    +0.000 C 
BRANCH   9  10
ATOM     10  N   UNL     1      45.299   4.386   8.167  0.00  0.00    +0.000 NA
ATOM     11  H   UNL     1      46.056   4.887   8.634  0.00  0.00    +0.000 HD
BRANCH  10  12
ATOM     12  C   UNL     1      45.804   3.196   7.461  0.00  0.00    +0.000 C 
ATOM     13  C   UNL     1      46.097   1.999   8.379  0.00  0.00    +0.000 C 
ATOM     14  C   UNL     1      46.746   0.863   7.600  0.00  0.00    +0.000 C 
ATOM     15  O   UNL     1      47.934   1.313   6.956  0.00  0.00    +0.000 OA
ATOM     16  C   UNL     1      47.665   2.338   6.000  0.00  0.00    +0.000 C 
ATOM     17  C   UNL     1      47.068   3.568   6.673  0.00  0.00    +0.000 C 
ENDBRANCH  10  12
ENDBRANCH   9  10
ENDBRANCH   8   9
ENDBRANCH   5   8
ENDBRANCH   1   2
BRANCH   1  20
ATOM     18  C   UNL     1      48.568   5.288  16.706  0.00  0.00    +0.000 C 
ATOM     19  O   UNL     1      49.381   4.381  16.872  0.00  0.00    +0.000 OA
ATOM     20  N   UNL     1      47.551   5.166  15.791  0.00  0.00    +0.000 N 
ATOM     21  H   UNL     1      46.846   5.887  15.720  0.00  0.00    +0.000 HD
BRANCH  18  29
ATOM     22  C   UNL     1      48.676   8.604  15.817  0.00  0.00    +0.000 A 
ATOM     23  N   UNL     1      48.726   9.947  15.751  0.00  0.00    +0.000 NA
ATOM     24  C   UNL     1      48.797  10.630  16.893  0.00  0.00    +0.000 A 
ATOM     25  N   UNL     1      48.824  10.129  18.122  0.00  0.00    +0.000 NA
ATOM     26  C   UNL     1      48.768   8.786  18.145  0.00  0.00    +0.000 A 
ATOM     27  S   UNL     1      48.802   7.974  19.633  0.00  0.00    +0.000 S 
ATOM     28  C   UNL     1      48.707   6.463  18.865  0.00  0.00    +0.000 A 
ATOM     29  C   UNL     1      48.645   6.536  17.474  0.00  0.00    +0.000 A 
ATOM     30  C   UNL     1      48.684   7.935  17.050  0.00  0.00    +0.000 A 
BRANCH  22  32
ATOM     31  C   UNL     1      49.865   7.648  14.067  0.00  0.00    +0.000 C 
ATOM     32  O   UNL     1      48.581   7.912  14.627  0.00  0.00    +0.000 OA
ENDBRANCH  22  32
ENDBRANCH  18  29
ENDBRANCH   1  20
TORSDOF 8
ENDMDL
MODEL 4
REMARK VINA RESULT:    -7.146      2.446      3.189
REMARK INTER + INTRA:         -11.669
REMARK INTER:                 -10.504
REMARK INTRA:                  -1.165
REMARK UNBOUND:                -1.180
REMARK  Name = 
REMARK  9 active torsions:
REMARK  status: ('A' for Active; 'I' for Inactive)
REMARK    1  A    between atoms: C_1  and  O_2
REMARK    2  A    between atoms: O_2  and  C_3
REMARK    3  A    between atoms: C_10  and  C_11
REMARK    4  A    between atoms: N_13  and  C_14
REMARK    5  A    between atoms: C_14  and  C_15
REMARK    6  A    between atoms: C_18  and  C_19
REMARK    7  A    between atoms: C_19  and  C_20
REMARK    8  A    between atoms: C_20  and  N_21
REMARK    9  A    between atoms: N_21  and  C_22
REMARK                            x       y       z     vdW  Elec       q    Type
REMARK                         _______ _______ _______ _____ _____    ______ ____
ROOT
ATOM      1  C   UNL     1      48.452   6.884  13.910  0.00  0.00    +0.000 C 
ENDROOT
BRANCH   1   2
ATOM      2  C   UNL     1      47.359   6.219  13.117  0.00  0.00    +0.000 A 
ATOM      3  C   UNL     1      46.802   5.016  13.555  0.00  0.00    +0.000 A 
ATOM      4  C   UNL     1      45.809   4.379  12.810  0.00  0.00    +0.000 A 
ATOM      5  C   UNL     1      45.332   4.938  11.616  0.00  0.00    +0.000 A 
ATOM      6  C   UNL     1      45.901   6.134  11.167  0.00  0.00    +0.000 A 
ATOM      7  C   UNL     1      46.908   6.768  11.906  0.00  0.00    +0.000 A 
BRANCH   5   8
ATOM      8  C   UNL     1      44.262   4.267  10.784  0.00  0.00    +0.000 C 
BRANCH   8   9
ATOM      9  C   UNL     1      44.272   2.728  10.790  0.00  0.00    +0.000 C 
BRANCH   9  10
ATOM     10  N   UNL     1      44.298   2.115   9.459  0.00  0.00    +0.000 NA
ATOM     11  H   UNL     1      43.498   2.422   8.905  0.00  0.00    +0.000 HD
BRANCH  10  12
ATOM     12  C   UNL     1      45.564   2.355   8.745  0.00  0.00    +0.000 C 
ATOM     13  C   UNL     1      45.475   3.436   7.656  0.00  0.00    +0.000 C 
ATOM     14  C   UNL     1      46.777   3.524   6.871  0.00  0.00    +0.000 C 
ATOM     15  O   UNL     1      47.108   2.259   6.307  0.00  0.00    +0.000 OA
ATOM     16  C   UNL     1      47.324   1.269   7.311  0.00  0.00    +0.000 C 
ATOM     17  C   UNL     1      46.060   1.038   8.131  0.00  0.00    +0.000 C 
ENDBRANCH  10  12
ENDBRANCH   9  10
ENDBRANCH   8   9
ENDBRANCH   5   8
ENDBRANCH   1   2
BRANCH   1  20
ATOM     18  C   UNL     1      49.141   6.534  16.246  0.00  0.00    +0.000 C 
ATOM     19  O   UNL     1      50.294   6.288  15.897  0.00  0.00    +0.000 OA
ATOM     20  N   UNL     1      48.173   6.838  15.320  0.00  0.00    +0.000 N 
ATOM     21  H   UNL     1      47.213   6.963  15.615  0.00  0.00    +0.000 HD
BRANCH  18  29
ATOM     22  C   UNL     1      47.775   8.880  18.349  0.00  0.00    +0.000 A 
ATOM     23  N   UNL     1      47.251   9.588  19.367  0.00  0.00    +0.000 NA
ATOM     24  C   UNL     1      47.119   8.987  20.549  0.00  0.00    +0.000 A 
ATOM     25  N   UNL     1      47.453   7.738  20.851  0.00  0.00    +0.000 NA
ATOM     26  C   UNL     1      47.968   7.064  19.808  0.00  0.00    +0.000 A 
ATOM     27  S   UNL     1      48.458   5.454  20.014  0.00  0.00    +0.000 S 
ATOM     28  C   UNL     1      48.946   5.345  18.392  0.00  0.00    +0.000 A 
ATOM     29  C   UNL     1      48.748   6.514  17.660  0.00  0.00    +0.000 A 
ATOM     30  C   UNL     1      48.162   7.542  18.518  0.00  0.00    +0.000 A 
BRANCH  22  32
ATOM     31  C   UNL     1      49.075  10.289  17.040  0.00  0.00    +0.000 C 
ATOM     32  O   UNL     1      47.884   9.509  17.127  0.00  0.00    +0.000 OA
ENDBRANCH  22  32
ENDBRANCH  18  29
ENDBRANCH   1  20
TORSDOF 8
ENDMDL
MODEL 5
REMARK VINA RESULT:    -7.066      1.927      2.615
REMARK INTER + INTRA:         -11.550
REMARK INTER:                 -10.145
REMARK INTRA:                  -1.405
REMARK UNBOUND:                -1.180
REMARK  Name = 
REMARK  9 active torsions:
REMARK  status: ('A' for Active; 'I' for Inactive)
REMARK    1  A    between atoms: C_1  and  O_2
REMARK    2  A    between atoms: O_2  and  C_3
REMARK    3  A    between atoms: C_10  and  C_11
REMARK    4  A    between atoms: N_13  and  C_14
REMARK    5  A    between atoms: C_14  and  C_15
REMARK    6  A    between atoms: C_18  and  C_19
REMARK    7  A    between atoms: C_19  and  C_20
REMARK    8  A    between atoms: C_20  and  N_21
REMARK    9  A    between atoms: N_21  and  C_22
REMARK                            x       y       z     vdW  Elec       q    Type
REMARK                         _______ _______ _______ _____ _____    ______ ____
ROOT
ATOM      1  C   UNL     1      45.369   7.994  12.726  0.00  0.00    +0.000 C 
ENDROOT
BRANCH   1   2
ATOM      2  C   UNL     1      45.007   6.615  12.240  0.00  0.00    +0.000 A 
ATOM      3  C   UNL     1      44.398   5.701  13.102  0.00  0.00    +0.000 A 
ATOM      4  C   UNL     1      44.085   4.413  12.667  0.00  0.00    +0.000 A 
ATOM      5  C   UNL     1      44.356   4.011  11.351  0.00  0.00    +0.000 A 
ATOM      6  C   UNL     1      44.983   4.919  10.492  0.00  0.00    +0.000 A 
ATOM      7  C   UNL     1      45.310   6.209  10.931  0.00  0.00    +0.000 A 
BRANCH   5   8
ATOM      8  C   UNL     1      44.037   2.619  10.854  0.00  0.00    +0.000 C 
BRANCH   8   9
ATOM      9  C   UNL     1      44.277   2.366   9.355  0.00  0.00    +0.000 C 
BRANCH   9  10
ATOM     10  N   UNL     1      45.429   1.510   9.060  0.00  0.00    +0.000 NA
ATOM     11  H   UNL     1      45.122   0.603   8.707  0.00  0.00    +0.000 HD
BRANCH  10  12
ATOM     12  C   UNL     1      46.390   2.143   8.142  0.00  0.00    +0.000 C 
ATOM     13  C   UNL     1      45.764   3.175   7.192  0.00  0.00    +0.000 C 
ATOM     14  C   UNL     1      46.788   3.677   6.182  0.00  0.00    +0.000 C 
ATOM     15  O   UNL     1      47.347   2.588   5.454  0.00  0.00    +0.000 OA
ATOM     16  C   UNL     1      48.048   1.683   6.305  0.00  0.00    +0.000 C 
ATOM     17  C   UNL     1      47.108   1.056   7.328  0.00  0.00    +0.000 C 
ENDBRANCH  10  12
ENDBRANCH   9  10
ENDBRANCH   8   9
ENDBRANCH   5   8
ENDBRANCH   1   2
BRANCH   1  20
ATOM     18  C   UNL     1      47.701   8.535  13.293  0.00  0.00    +0.000 C 
ATOM     19  O   UNL     1      47.853   9.121  12.223  0.00  0.00    +0.000 OA
ATOM     20  N   UNL     1      46.500   7.951  13.614  0.00  0.00    +0.000 N 
ATOM     21  H   UNL     1      46.413   7.408  14.463  0.00  0.00    +0.000 HD
BRANCH  18  29
ATOM     22  C   UNL     1      48.640   6.105  15.531  0.00  0.00    +0.000 A 
ATOM     23  N   UNL     1      49.219   5.337  16.473  0.00  0.00    +0.000 NA
ATOM     24  C   UNL     1      50.294   5.812  17.099  0.00  0.00    +0.000 A 
ATOM     25  N   UNL     1      50.879   6.988  16.900  0.00  0.00    +0.000 NA
ATOM     26  C   UNL     1      50.274   7.723  15.952  0.00  0.00    +0.000 A 
ATOM     27  S   UNL     1      50.882   9.259  15.572  0.00  0.00    +0.000 S 
ATOM     28  C   UNL     1      49.675   9.501  14.403  0.00  0.00    +0.000 A 
ATOM     29  C   UNL     1      48.791   8.432  14.271  0.00  0.00    +0.000 A 
ATOM     30  C   UNL     1      49.157   7.368  15.205  0.00  0.00    +0.000 A 
BRANCH  22  32
ATOM     31  C   UNL     1      47.173   4.311  15.389  0.00  0.00    +0.000 C 
ATOM     32  O   UNL     1      47.541   5.590  14.877  0.00  0.00    +0.000 OA
ENDBRANCH  22  32
ENDBRANCH  18  29
ENDBRANCH   1  20
TORSDOF 8
ENDMDL
MODEL 6
REMARK VINA RESULT:    -6.936      2.611      3.533
REMARK INTER + INTRA:         -11.361
REMARK INTER:                 -10.103
REMARK INTRA:                  -1.257
REMARK UNBOUND:                -1.180
REMARK  Name = 
REMARK  9 active torsions:
REMARK  status: ('A' for Active; 'I' for Inactive)
REMARK    1  A    between atoms: C_1  and  O_2
REMARK    2  A    between atoms: O_2  and  C_3
REMARK    3  A    between atoms: C_10  and  C_11
REMARK    4  A    between atoms: N_13  and  C_14
REMARK    5  A    between atoms: C_14  and  C_15
REMARK    6  A    between atoms: C_18  and  C_19
REMARK    7  A    between atoms: C_19  and  C_20
REMARK    8  A    between atoms: C_20  and  N_21
REMARK    9  A    between atoms: N_21  and  C_22
REMARK                            x       y       z     vdW  Elec       q    Type
REMARK                         _______ _______ _______ _____ _____    ______ ____
ROOT
ATOM      1  C   UNL     1      47.796   4.568  15.631  0.00  0.00    +0.000 C 
ENDROOT
BRANCH   1   2
ATOM      2  C   UNL     1      47.152   4.797  14.288  0.00  0.00    +0.000 A 
ATOM      3  C   UNL     1      47.293   6.025  13.639  0.00  0.00    +0.000 A 
ATOM      4  C   UNL     1      46.677   6.254  12.409  0.00  0.00    +0.000 A 
ATOM      5  C   UNL     1      45.917   5.253  11.785  0.00  0.00    +0.000 A 
ATOM      6  C   UNL     1      45.761   4.029  12.443  0.00  0.00    +0.000 A 
ATOM      7  C   UNL     1      46.368   3.802  13.685  0.00  0.00    +0.000 A 
BRANCH   5   8
ATOM      8  C   UNL     1      45.231   5.476  10.456  0.00  0.00    +0.000 C 
BRANCH   8   9
ATOM      9  C   UNL     1      44.410   4.292   9.916  0.00  0.00    +0.000 C 
BRANCH   9  10
ATOM     10  N   UNL     1      44.236   4.287   8.461  0.00  0.00    +0.000 NA
ATOM     11  H   UNL     1      44.439   5.207   8.071  0.00  0.00    +0.000 HD
BRANCH  10  12
ATOM     12  C   UNL     1      45.028   3.239   7.795  0.00  0.00    +0.000 C 
ATOM     13  C   UNL     1      45.385   2.051   8.702  0.00  0.00    +0.000 C 
ATOM     14  C   UNL     1      46.320   1.084   7.988  0.00  0.00    +0.000 C 
ATOM     15  O   UNL     1      47.495   1.758   7.546  0.00  0.00    +0.000 OA
ATOM     16  C   UNL     1      47.196   2.783   6.600  0.00  0.00    +0.000 C 
ATOM     17  C   UNL     1      46.311   3.857   7.221  0.00  0.00    +0.000 C 
ENDBRANCH  10  12
ENDBRANCH   9  10
ENDBRANCH   8   9
ENDBRANCH   5   8
ENDBRANCH   1   2
BRANCH   1  20
ATOM     18  C   UNL     1      48.973   6.522  16.552  0.00  0.00    +0.000 C 
ATOM     19  O   UNL     1      50.026   6.171  16.021  0.00  0.00    +0.000 OA
ATOM     20  N   UNL     1      47.827   5.780  16.405  0.00  0.00    +0.000 N 
ATOM     21  H   UNL     1      46.989   6.039  16.909  0.00  0.00    +0.000 HD
BRANCH  18  29
ATOM     22  C   UNL     1      47.709   7.203  19.671  0.00  0.00    +0.000 A 
ATOM     23  N   UNL     1      47.306   7.736  20.840  0.00  0.00    +0.000 NA
ATOM     24  C   UNL     1      47.519   9.035  21.045  0.00  0.00    +0.000 A 
ATOM     25  N   UNL     1      48.098   9.890  20.211  0.00  0.00    +0.000 NA
ATOM     26  C   UNL     1      48.489   9.319  19.059  0.00  0.00    +0.000 A 
ATOM     27  S   UNL     1      49.241  10.267  17.871  0.00  0.00    +0.000 S 
ATOM     28  C   UNL     1      49.400   8.929  16.837  0.00  0.00    +0.000 A 
ATOM     29  C   UNL     1      48.895   7.742  17.363  0.00  0.00    +0.000 A 
ATOM     30  C   UNL     1      48.348   7.985  18.697  0.00  0.00    +0.000 A 
BRANCH  22  32
ATOM     31  C   UNL     1      48.565   5.074  20.024  0.00  0.00    +0.000 C 
ATOM     32  O   UNL     1      47.501   5.853  19.483  0.00  0.00    +0.000 OA
ENDBRANCH  22  32
ENDBRANCH  18  29
ENDBRANCH   1  20
TORSDOF 8
ENDMDL
MODEL 7
REMARK VINA RESULT:    -6.928      1.940      2.528
REMARK INTER + INTRA:         -11.348
REMARK INTER:                 -10.027
REMARK INTRA:                  -1.321
REMARK UNBOUND:                -1.180
REMARK  Name = 
REMARK  9 active torsions:
REMARK  status: ('A' for Active; 'I' for Inactive)
REMARK    1  A    between atoms: C_1  and  O_2
REMARK    2  A    between atoms: O_2  and  C_3
REMARK    3  A    between atoms: C_10  and  C_11
REMARK    4  A    between atoms: N_13  and  C_14
REMARK    5  A    between atoms: C_14  and  C_15
REMARK    6  A    between atoms: C_18  and  C_19
REMARK    7  A    between atoms: C_19  and  C_20
REMARK    8  A    between atoms: C_20  and  N_21
REMARK    9  A    between atoms: N_21  and  C_22
REMARK                            x       y       z     vdW  Elec       q    Type
REMARK                         _______ _______ _______ _____ _____    ______ ____
ROOT
ATOM      1  C   UNL     1      48.699   7.671  12.353  0.00  0.00    +0.000 C 
ENDROOT
BRANCH   1   2
ATOM      2  C   UNL     1      47.448   6.832  12.400  0.00  0.00    +0.000 A 
ATOM      3  C   UNL     1      47.413   5.662  13.160  0.00  0.00    +0.000 A 
ATOM      4  C   UNL     1      46.268   4.865  13.186  0.00  0.00    +0.000 A 
ATOM      5  C   UNL     1      45.121   5.227  12.465  0.00  0.00    +0.000 A 
ATOM      6  C   UNL     1      45.161   6.389  11.689  0.00  0.00    +0.000 A 
ATOM      7  C   UNL     1      46.315   7.184  11.651  0.00  0.00    +0.000 A 
BRANCH   5   8
ATOM      8  C   UNL     1      43.869   4.378  12.467  0.00  0.00    +0.000 C 
BRANCH   8   9
ATOM      9  C   UNL     1      43.329   3.970  11.085  0.00  0.00    +0.000 C 
BRANCH   9  10
ATOM     10  N   UNL     1      43.863   2.705  10.574  0.00  0.00    +0.000 NA
ATOM     11  H   UNL     1      43.131   2.167  10.110  0.00  0.00    +0.000 HD
BRANCH  10  12
ATOM     12  C   UNL     1      45.027   2.892   9.691  0.00  0.00    +0.000 C 
ATOM     13  C   UNL     1      44.931   4.123   8.777  0.00  0.00    +0.000 C 
ATOM     14  C   UNL     1      46.098   4.167   7.800  0.00  0.00    +0.000 C 
ATOM     15  O   UNL     1      46.155   2.968   7.034  0.00  0.00    +0.000 OA
ATOM     16  C   UNL     1      46.375   1.822   7.855  0.00  0.00    +0.000 C 
ATOM     17  C   UNL     1      45.230   1.629   8.841  0.00  0.00    +0.000 C 
ENDBRANCH  10  12
ENDBRANCH   9  10
ENDBRANCH   8   9
ENDBRANCH   5   8
ENDBRANCH   1   2
BRANCH   1  20
ATOM     18  C   UNL     1      49.775   7.759  14.563  0.00  0.00    +0.000 C 
ATOM     19  O   UNL     1      49.035   8.675  14.917  0.00  0.00    +0.000 OA
ATOM     20  N   UNL     1      49.669   7.210  13.309  0.00  0.00    +0.000 N 
ATOM     21  H   UNL     1      50.334   6.510  13.005  0.00  0.00    +0.000 HD
BRANCH  18  29
ATOM     22  C   UNL     1      49.689   5.501  17.150  0.00  0.00    +0.000 A 
ATOM     23  N   UNL     1      49.937   4.666  18.176  0.00  0.00    +0.000 NA
ATOM     24  C   UNL     1      51.190   4.570  18.619  0.00  0.00    +0.000 A 
ATOM     25  N   UNL     1      52.252   5.219  18.157  0.00  0.00    +0.000 NA
ATOM     26  C   UNL     1      51.963   6.039  17.132  0.00  0.00    +0.000 A 
ATOM     27  S   UNL     1      53.200   6.955  16.422  0.00  0.00    +0.000 S 
ATOM     28  C   UNL     1      52.115   7.655  15.320  0.00  0.00    +0.000 A 
ATOM     29  C   UNL     1      50.800   7.214  15.460  0.00  0.00    +0.000 A 
ATOM     30  C   UNL     1      50.717   6.244  16.551  0.00  0.00    +0.000 A 
BRANCH  22  32
ATOM     31  C   UNL     1      47.624   4.442  17.093  0.00  0.00    +0.000 C 
ATOM     32  O   UNL     1      48.391   5.573  16.688  0.00  0.00    +0.000 OA
ENDBRANCH  22  32
ENDBRANCH  18  29
ENDBRANCH   1  20
TORSDOF 8
ENDMDL
MODEL 8
REMARK VINA RESULT:    -6.853      3.556      7.753
REMARK INTER + INTRA:         -11.239
REMARK INTER:                  -9.633
REMARK INTRA:                  -1.606
REMARK UNBOUND:                -1.180
REMARK  Name = 
REMARK  9 active torsions:
REMARK  status: ('A' for Active; 'I' for Inactive)
REMARK    1  A    between atoms: C_1  and  O_2
REMARK    2  A    between atoms: O_2  and  C_3
REMARK    3  A    between atoms: C_10  and  C_11
REMARK    4  A    between atoms: N_13  and  C_14
REMARK    5  A    between atoms: C_14  and  C_15
REMARK    6  A    between atoms: C_18  and  C_19
REMARK    7  A    between atoms: C_19  and  C_20
REMARK    8  A    between atoms: C_20  and  N_21
REMARK    9  A    between atoms: N_21  and  C_22
REMARK                            x       y       z     vdW  Elec       q    Type
REMARK                         _______ _______ _______ _____ _____    ______ ____
ROOT
ATOM      1  C   UNL     1      48.464   8.035  11.974  0.00  0.00    +0.000 C 
ENDROOT
BRANCH   1   2
ATOM      2  C   UNL     1      48.583   7.895  13.469  0.00  0.00    +0.000 A 
ATOM      3  C   UNL     1      49.142   6.743  14.027  0.00  0.00    +0.000 A 
ATOM      4  C   UNL     1      49.230   6.594  15.411  0.00  0.00    +0.000 A 
ATOM      5  C   UNL     1      48.778   7.602  16.276  0.00  0.00    +0.000 A 
ATOM      6  C   UNL     1      48.201   8.748  15.719  0.00  0.00    +0.000 A 
ATOM      7  C   UNL     1      48.100   8.894  14.329  0.00  0.00    +0.000 A 
BRANCH   5   8
ATOM      8  C   UNL     1      48.852   7.464  17.780  0.00  0.00    +0.000 C 
BRANCH   8   9
ATOM      9  C   UNL     1      48.397   6.111  18.356  0.00  0.00    +0.000 C 
BRANCH   9  10
ATOM     10  N   UNL     1      49.480   5.284  18.894  0.00  0.00    +0.000 NA
ATOM     11  H   UNL     1      49.461   5.284  19.913  0.00  0.00    +0.000 HD
BRANCH  10  12
ATOM     12  C   UNL     1      49.469   3.912  18.359  0.00  0.00    +0.000 C 
ATOM     13  C   UNL     1      50.814   3.457  17.771  0.00  0.00    +0.000 C 
ATOM     14  C   UNL     1      50.685   2.090  17.113  0.00  0.00    +0.000 C 
ATOM     15  O   UNL     1      49.673   2.111  16.111  0.00  0.00    +0.000 OA
ATOM     16  C   UNL     1      48.388   2.403  16.659  0.00  0.00    +0.000 C 
ATOM     17  C   UNL     1      48.369   3.788  17.295  0.00  0.00    +0.000 C 
ENDBRANCH  10  12
ENDBRANCH   9  10
ENDBRANCH   8   9
ENDBRANCH   5   8
ENDBRANCH   1   2
BRANCH   1  20
ATOM     18  C   UNL     1      46.356   6.932  11.349  0.00  0.00    +0.000 C 
ATOM     19  O   UNL     1      45.701   7.876  11.787  0.00  0.00    +0.000 OA
ATOM     20  N   UNL     1      47.728   6.937  11.407  0.00  0.00    +0.000 N 
ATOM     21  H   UNL     1      48.250   6.123  11.113  0.00  0.00    +0.000 HD
BRANCH  18  29
ATOM     22  C   UNL     1      44.533   4.325  12.644  0.00  0.00    +0.000 A 
ATOM     23  N   UNL     1      43.801   3.220  12.878  0.00  0.00    +0.000 NA
ATOM     24  C   UNL     1      43.471   2.453  11.840  0.00  0.00    +0.000 A 
ATOM     25  N   UNL     1      43.788   2.654  10.566  0.00  0.00    +0.000 NA
ATOM     26  C   UNL     1      44.515   3.769  10.374  0.00  0.00    +0.000 A 
ATOM     27  S   UNL     1      45.016   4.179   8.807  0.00  0.00    +0.000 S 
ATOM     28  C   UNL     1      45.804   5.572   9.373  0.00  0.00    +0.000 A 
ATOM     29  C   UNL     1      45.705   5.761  10.750  0.00  0.00    +0.000 A 
ATOM     30  C   UNL     1      44.930   4.673  11.344  0.00  0.00    +0.000 A 
BRANCH  22  32
ATOM     31  C   UNL     1      46.130   4.798  14.262  0.00  0.00    +0.000 C 
ATOM     32  O   UNL     1      44.848   5.120  13.726  0.00  0.00    +0.000 OA
ENDBRANCH  22  32
ENDBRANCH  18  29
ENDBRANCH   1  20
TORSDOF 8
ENDMDL
MODEL 9
REMARK VINA RESULT:    -6.267      3.325      5.417
REMARK INTER + INTRA:         -10.379
REMARK INTER:                  -9.091
REMARK INTRA:                  -1.287
REMARK UNBOUND:                -1.180
REMARK  Name = 
REMARK  9 active torsions:
REMARK  status: ('A' for Active; 'I' for Inactive)
REMARK    1  A    between atoms: C_1  and  O_2
REMARK    2  A    between atoms: O_2  and  C_3
REMARK    3  A    between atoms: C_10  and  C_11
REMARK    4  A    between atoms: N_13  and  C_14
REMARK    5  A    between atoms: C_14  and  C_15
REMARK    6  A    between atoms: C_18  and  C_19
REMARK    7  A    between atoms: C_19  and  C_20
REMARK    8  A    between atoms: C_20  and  N_21
REMARK    9  A    between atoms: N_21  and  C_22
REMARK                            x       y       z     vdW  Elec       q    Type
REMARK                         _______ _______ _______ _____ _____    ______ ____
ROOT
ATOM      1  C   UNL     1      48.190   6.526  14.170  0.00  0.00    +0.000 C 
ENDROOT
BRANCH   1   2
ATOM      2  C   UNL     1      47.037   6.066  13.316  0.00  0.00    +0.000 A 
ATOM      3  C   UNL     1      46.445   6.939  12.401  0.00  0.00    +0.000 A 
ATOM      4  C   UNL     1      45.359   6.529  11.628  0.00  0.00    +0.000 A 
ATOM      5  C   UNL     1      44.847   5.228  11.735  0.00  0.00    +0.000 A 
ATOM      6  C   UNL     1      45.428   4.358  12.663  0.00  0.00    +0.000 A 
ATOM      7  C   UNL     1      46.510   4.772  13.451  0.00  0.00    +0.000 A 
BRANCH   5   8
ATOM      8  C   UNL     1      43.666   4.758  10.915  0.00  0.00    +0.000 C 
BRANCH   8   9
ATOM      9  C   UNL     1      43.973   4.348   9.464  0.00  0.00    +0.000 C 
BRANCH   9  10
ATOM     10  N   UNL     1      44.217   2.916   9.277  0.00  0.00    +0.000 NA
ATOM     11  H   UNL     1      43.337   2.411   9.171  0.00  0.00    +0.000 HD
BRANCH  10  12
ATOM     12  C   UNL     1      45.130   2.634   8.156  0.00  0.00    +0.000 C 
ATOM     13  C   UNL     1      46.052   1.426   8.386  0.00  0.00    +0.000 C 
ATOM     14  C   UNL     1      47.060   1.288   7.252  0.00  0.00    +0.000 C 
ATOM     15  O   UNL     1      47.816   2.486   7.107  0.00  0.00    +0.000 OA
ATOM     16  C   UNL     1      46.992   3.598   6.763  0.00  0.00    +0.000 C 
ATOM     17  C   UNL     1      45.974   3.883   7.861  0.00  0.00    +0.000 C 
ENDBRANCH  10  12
ENDBRANCH   9  10
ENDBRANCH   8   9
ENDBRANCH   5   8
ENDBRANCH   1   2
BRANCH   1  20
ATOM     18  C   UNL     1      50.189   7.947  13.988  0.00  0.00    +0.000 C 
ATOM     19  O   UNL     1      50.386   7.871  15.200  0.00  0.00    +0.000 OA
ATOM     20  N   UNL     1      49.123   7.309  13.405  0.00  0.00    +0.000 N 
ATOM     21  H   UNL     1      48.930   7.442  12.421  0.00  0.00    +0.000 HD
BRANCH  18  29
ATOM     22  C   UNL     1      49.639  10.201  11.457  0.00  0.00    +0.000 A 
ATOM     23  N   UNL     1      49.709  11.097  10.454  0.00  0.00    +0.000 NA
ATOM     24  C   UNL     1      50.915  11.468  10.026  0.00  0.00    +0.000 A 
ATOM     25  N   UNL     1      52.089  11.047  10.483  0.00  0.00    +0.000 NA
ATOM     26  C   UNL     1      51.975  10.158  11.484  0.00  0.00    +0.000 A 
ATOM     27  S   UNL     1      53.376   9.507  12.185  0.00  0.00    +0.000 S 
ATOM     28  C   UNL     1      52.458   8.564  13.258  0.00  0.00    +0.000 A 
ATOM     29  C   UNL     1      51.080   8.720  13.115  0.00  0.00    +0.000 A 
ATOM     30  C   UNL     1      50.799   9.678  12.047  0.00  0.00    +0.000 A 
BRANCH  22  32
ATOM     31  C   UNL     1      47.449  10.911  11.760  0.00  0.00    +0.000 C 
ATOM     32  O   UNL     1      48.384   9.844  11.903  0.00  0.00    +0.000 OA
ENDBRANCH  22  32
ENDBRANCH  18  29
ENDBRANCH   1  20
TORSDOF 8
ENDMDL
