MODEL 1
REMARK VINA RESULT:    -8.092      0.000      0.000
REMARK INTER + INTRA:         -11.633
REMARK INTER:                 -10.930
REMARK INTRA:                  -0.703
REMARK UNBOUND:                -0.703
REMARK  Name = 
REMARK  6 active torsions:
REMARK  status: ('A' for Active; 'I' for Inactive)
REMARK    1  A    between atoms: C_2  and  C_25
REMARK    2  A    between atoms: N_3  and  C_4
REMARK    3  A    between atoms: C_4  and  C_5
REMARK    4  A    between atoms: C_8  and  C_9
REMARK    5  A    between atoms: C_9  and  N_10
REMARK    6  A    between atoms: C_11  and  C_13
REMARK                            x       y       z     vdW  Elec       q    Type
REMARK                         _______ _______ _______ _____ _____    ______ ____
ROOT
ATOM      1  C   UNL     1      44.614   5.276  11.099  0.00  0.00    +0.000 A 
ATOM      2  C   UNL     1      44.362   6.641  11.189  0.00  0.00    +0.000 A 
ATOM      3  N   UNL     1      45.150   7.494  11.888  0.00  0.00    +0.000 NA
ATOM      4  C   UNL     1      46.214   6.931  12.520  0.00  0.00    +0.000 A 
ATOM      5  C   UNL     1      46.446   5.562  12.458  0.00  0.00    +0.000 A 
ATOM      6  N   UNL     1      45.662   4.711  11.750  0.00  0.00    +0.000 NA
ENDROOT
BRANCH   1   7
ATOM      7  C   UNL     1      43.726   4.391  10.269  0.00  0.00    +0.000 C 
BRANCH   7  10
ATOM      8  O   UNL     1      45.462   4.748   8.100  0.00  0.00    +0.000 OA
ATOM      9  C   UNL     1      45.327   3.618   8.571  0.00  0.00    +0.000 C 
ATOM     10  N   UNL     1      44.455   3.341   9.596  0.00  0.00    +0.000 N 
ATOM     11  H   UNL     1      44.535   2.424  10.028  0.00  0.00    +0.000 HD
BRANCH   9  12
ATOM     12  C   UNL     1      46.072   2.478   8.079  0.00  0.00    +0.000 A 
ATOM     13  N   UNL     1      45.869   1.217   8.423  0.00  0.00    +0.000 NA
ATOM     14  C   UNL     1      46.777   0.489   7.692  0.00  0.00    +0.000 A 
ATOM     15  C   UNL     1      47.549   1.313   6.908  0.00  0.00    +0.000 A 
ATOM     16  N   UNL     1      47.092   2.573   7.163  0.00  0.00    +0.000 N 
ATOM     17  H   UNL     1      47.417   3.443   6.762  0.00  0.00    +0.000 HD
ENDBRANCH   9  12
ENDBRANCH   7  10
ENDBRANCH   1   7
BRANCH   4  18
ATOM     18  C   UNL     1      47.116   7.830  13.322  0.00  0.00    +0.000 C 
BRANCH  18  19
ATOM     19  N   UNL     1      47.522   7.224  14.571  0.00  0.00    +0.000 N 
ATOM     20  C   UNL     1      48.811   6.814  14.790  0.00  0.00    +0.000 C 
ATOM     21  O   UNL     1      49.695   6.989  13.955  0.00  0.00    +0.000 OA
ATOM     22  H   UNL     1      46.774   6.858  15.151  0.00  0.00    +0.000 HD
BRANCH  20  23
ATOM     23  C   UNL     1      49.098   6.216  16.098  0.00  0.00    +0.000 A 
ATOM     24  C   UNL     1      50.086   6.766  16.902  0.00  0.00    +0.000 A 
ATOM     25  S   UNL     1      50.268   5.972  18.401  0.00  0.00    +0.000 S 
ATOM     26  C   UNL     1      49.065   4.835  18.006  0.00  0.00    +0.000 A 
ATOM     27  N   UNL     1      48.740   3.833  18.865  0.00  0.00    +0.000 NA
ATOM     28  C   UNL     1      47.841   3.020  18.420  0.00  0.00    +0.000 A 
ATOM     29  N   UNL     1      47.230   3.124  17.197  0.00  0.00    +0.000 N 
ATOM     30  C   UNL     1      47.489   4.148  16.320  0.00  0.00    +0.000 A 
ATOM     31  O   UNL     1      46.862   4.268  15.273  0.00  0.00    +0.000 OA
ATOM     32  C   UNL     1      48.517   5.073  16.758  0.00  0.00    +0.000 A 
ATOM     33  H   UNL     1      46.521   2.464  16.916  0.00  0.00    +0.000 HD
ENDBRANCH  20  23
ENDBRANCH  18  19
ENDBRANCH   4  18
TORSDOF 6
ENDMDL
MODEL 2
REMARK VINA RESULT:    -7.613      2.073      2.458
REMARK INTER + INTRA:         -10.986
REMARK INTER:                 -10.012
REMARK INTRA:                  -0.974
REMARK UNBOUND:                -0.703
REMARK  Name = 
REMARK  6 active torsions:
REMARK  status: ('A' for Active; 'I' for Inactive)
REMARK    1  A    between atoms: C_2  and  C_25
REMARK    2  A    between atoms: N_3  and  C_4
REMARK    3  A    between atoms: C_4  and  C_5
REMARK    4  A    between atoms: C_8  and  C_9
REMARK    5  A    between atoms: C_9  and  N_10
REMARK    6  A    between atoms: C_11  and  C_13
REMARK                            x       y       z     vdW  Elec       q    Type
REMARK                         _______ _______ _______ _____ _____    ______ ____
ROOT
ATOM      1  C   UNL     1      45.214   4.751  11.756  0.00  0.00    +0.000 A 
ATOM      2  C   UNL     1      45.536   6.043  11.354  0.00  0.00    +0.000 A 
ATOM      3  N   UNL     1      46.416   6.827  12.021  0.00  0.00    +0.000 NA
ATOM      4  C   UNL     1      46.969   6.279  13.135  0.00  0.00    +0.000 A 
ATOM      5  C   UNL     1      46.623   5.000  13.556  0.00  0.00    +0.000 A 
ATOM      6  N   UNL     1      45.750   4.212  12.881  0.00  0.00    +0.000 NA
ENDROOT
BRANCH   1   7
ATOM      7  C   UNL     1      44.264   3.914  10.945  0.00  0.00    +0.000 C 
BRANCH   7  10
ATOM      8  O   UNL     1      44.983   4.338   8.271  0.00  0.00    +0.000 OA
ATOM      9  C   UNL     1      45.302   3.276   8.809  0.00  0.00    +0.000 C 
ATOM     10  N   UNL     1      44.942   2.960  10.097  0.00  0.00    +0.000 N 
ATOM     11  H   UNL     1      45.388   2.146  10.509  0.00  0.00    +0.000 HD
BRANCH   9  12
ATOM     12  C   UNL     1      46.079   2.263   8.128  0.00  0.00    +0.000 A 
ATOM     13  N   UNL     1      45.991   0.959   8.329  0.00  0.00    +0.000 NA
ATOM     14  C   UNL     1      46.883   0.394   7.449  0.00  0.00    +0.000 A 
ATOM     15  C   UNL     1      47.530   1.361   6.717  0.00  0.00    +0.000 A 
ATOM     16  N   UNL     1      47.011   2.543   7.158  0.00  0.00    +0.000 N 
ATOM     17  H   UNL     1      47.242   3.477   6.843  0.00  0.00    +0.000 HD
ENDBRANCH   9  12
ENDBRANCH   7  10
ENDBRANCH   1   7
BRANCH   4  18
ATOM     18  C   UNL     1      47.946   7.111  13.923  0.00  0.00    +0.000 C 
BRANCH  18  19
ATOM     19  N   UNL     1      47.936   6.780  15.330  0.00  0.00    +0.000 N 
ATOM     20  C   UNL     1      49.089   6.497  16.014  0.00  0.00    +0.000 C 
ATOM     21  O   UNL     1      50.192   6.563  15.475  0.00  0.00    +0.000 OA
ATOM     22  H   UNL     1      47.042   6.486  15.712  0.00  0.00    +0.000 HD
BRANCH  20  23
ATOM     23  C   UNL     1      48.948   6.177  17.438  0.00  0.00    +0.000 A 
ATOM     24  C   UNL     1      49.338   4.928  17.903  0.00  0.00    +0.000 A 
ATOM     25  S   UNL     1      49.139   4.733  19.586  0.00  0.00    +0.000 S 
ATOM     26  C   UNL     1      48.480   6.294  19.744  0.00  0.00    +0.000 A 
ATOM     27  N   UNL     1      48.062   6.759  20.952  0.00  0.00    +0.000 NA
ATOM     28  C   UNL     1      47.546   7.942  20.917  0.00  0.00    +0.000 A 
ATOM     29  N   UNL     1      47.419   8.707  19.787  0.00  0.00    +0.000 N 
ATOM     30  C   UNL     1      47.874   8.300  18.557  0.00  0.00    +0.000 A 
ATOM     31  O   UNL     1      47.831   9.041  17.581  0.00  0.00    +0.000 OA
ATOM     32  C   UNL     1      48.434   6.962  18.533  0.00  0.00    +0.000 A 
ATOM     33  H   UNL     1      47.022   9.633  19.831  0.00  0.00    +0.000 HD
ENDBRANCH  20  23
ENDBRANCH  18  19
ENDBRANCH   4  18
TORSDOF 6
ENDMDL
MODEL 3
REMARK VINA RESULT:    -7.563      2.029      3.598
REMARK INTER + INTRA:         -10.919
REMARK INTER:                  -9.997
REMARK INTRA:                  -0.921
REMARK UNBOUND:                -0.703
REMARK  Name = 
REMARK  6 active torsions:
REMARK  status: ('A' for Active; 'I' for Inactive)
REMARK    1  A    between atoms: C_2  and  C_25
REMARK    2  A    between atoms: N_3  and  C_4
REMARK    3  A    between atoms: C_4  and  C_5
REMARK    4  A    between atoms: C_8  and  C_9
REMARK    5  A    between atoms: C_9  and  N_10
REMARK    6  A    between atoms: C_11  and  C_13
REMARK                            x       y       z     vdW  Elec       q    Type
REMARK                         _______ _______ _______ _____ _____    ______ ____
ROOT
ATOM      1  C   UNL     1      44.627   4.366  11.290  0.00  0.00    +0.000 A 
ATOM      2  C   UNL     1      44.750   5.562  11.988  0.00  0.00    +0.000 A 
ATOM      3  N   UNL     1      45.435   5.673  13.152  0.00  0.00    +0.000 NA
ATOM      4  C   UNL     1      45.998   4.526  13.616  0.00  0.00    +0.000 A 
ATOM      5  C   UNL     1      45.848   3.323  12.936  0.00  0.00    +0.000 A 
ATOM      6  N   UNL     1      45.170   3.216  11.766  0.00  0.00    +0.000 NA
ENDROOT
BRANCH   1   7
ATOM      7  C   UNL     1      43.892   4.320   9.979  0.00  0.00    +0.000 C 
BRANCH   7  10
ATOM      8  O   UNL     1      46.066   5.306   8.515  0.00  0.00    +0.000 OA
ATOM      9  C   UNL     1      45.703   4.144   8.326  0.00  0.00    +0.000 C 
ATOM     10  N   UNL     1      44.612   3.596   8.958  0.00  0.00    +0.000 N 
ATOM     11  H   UNL     1      44.491   2.591   8.870  0.00  0.00    +0.000 HD
BRANCH   9  12
ATOM     12  C   UNL     1      46.391   3.253   7.415  0.00  0.00    +0.000 A 
ATOM     13  N   UNL     1      46.616   1.966   7.618  0.00  0.00    +0.000 NA
ATOM     14  C   UNL     1      47.262   1.527   6.488  0.00  0.00    +0.000 A 
ATOM     15  C   UNL     1      47.447   2.558   5.597  0.00  0.00    +0.000 A 
ATOM     16  N   UNL     1      46.889   3.648   6.198  0.00  0.00    +0.000 N 
ATOM     17  H   UNL     1      46.830   4.591   5.836  0.00  0.00    +0.000 HD
ENDBRANCH   9  12
ENDBRANCH   7  10
ENDBRANCH   1   7
BRANCH   4  18
ATOM     18  C   UNL     1      46.762   4.587  14.912  0.00  0.00    +0.000 C 
BRANCH  18  19
ATOM     19  N   UNL     1      47.598   5.764  14.999  0.00  0.00    +0.000 N 
ATOM     20  C   UNL     1      48.668   5.829  15.852  0.00  0.00    +0.000 C 
ATOM     21  O   UNL     1      49.000   4.871  16.546  0.00  0.00    +0.000 OA
ATOM     22  H   UNL     1      47.198   6.622  14.629  0.00  0.00    +0.000 HD
BRANCH  20  23
ATOM     23  C   UNL     1      49.439   7.077  15.847  0.00  0.00    +0.000 A 
ATOM     24  C   UNL     1      49.765   7.687  17.050  0.00  0.00    +0.000 A 
ATOM     25  S   UNL     1      50.691   9.108  16.867  0.00  0.00    +0.000 S 
ATOM     26  C   UNL     1      50.646   8.983  15.170  0.00  0.00    +0.000 A 
ATOM     27  N   UNL     1      51.239   9.920  14.383  0.00  0.00    +0.000 NA
ATOM     28  C   UNL     1      51.092   9.721  13.116  0.00  0.00    +0.000 A 
ATOM     29  N   UNL     1      50.416   8.665  12.563  0.00  0.00    +0.000 N 
ATOM     30  C   UNL     1      49.848   7.668  13.317  0.00  0.00    +0.000 A 
ATOM     31  O   UNL     1      49.327   6.687  12.796  0.00  0.00    +0.000 OA
ATOM     32  C   UNL     1      49.955   7.860  14.751  0.00  0.00    +0.000 A 
ATOM     33  H   UNL     1      50.353   8.558  11.562  0.00  0.00    +0.000 HD
ENDBRANCH  20  23
ENDBRANCH  18  19
ENDBRANCH   4  18
TORSDOF 6
ENDMDL
MODEL 4
REMARK VINA RESULT:    -7.397      1.902      2.453
REMARK INTER + INTRA:         -10.694
REMARK INTER:                  -9.749
REMARK INTRA:                  -0.945
REMARK UNBOUND:                -0.703
REMARK  Name = 
REMARK  6 active torsions:
REMARK  status: ('A' for Active; 'I' for Inactive)
REMARK    1  A    between atoms: C_2  and  C_25
REMARK    2  A    between atoms: N_3  and  C_4
REMARK    3  A    between atoms: C_4  and  C_5
REMARK    4  A    between atoms: C_8  and  C_9
REMARK    5  A    between atoms: C_9  and  N_10
REMARK    6  A    between atoms: C_11  and  C_13
REMARK                            x       y       z     vdW  Elec       q    Type
REMARK                         _______ _______ _______ _____ _____    ______ ____
ROOT
ATOM      1  C   UNL     1      44.773   4.895  11.725  0.00  0.00    +0.000 A 
ATOM      2  C   UNL     1      45.870   4.903  12.580  0.00  0.00    +0.000 A 
ATOM      3  N   UNL     1      46.463   6.042  13.011  0.00  0.00    +0.000 NA
ATOM      4  C   UNL     1      45.926   7.201  12.543  0.00  0.00    +0.000 A 
ATOM      5  C   UNL     1      44.851   7.191  11.662  0.00  0.00    +0.000 A 
ATOM      6  N   UNL     1      44.252   6.050  11.240  0.00  0.00    +0.000 NA
ENDROOT
BRANCH   1   7
ATOM      7  C   UNL     1      44.132   3.596  11.320  0.00  0.00    +0.000 C 
BRANCH   7  10
ATOM      8  O   UNL     1      44.273   4.063   8.562  0.00  0.00    +0.000 OA
ATOM      9  C   UNL     1      44.980   3.180   9.050  0.00  0.00    +0.000 C 
ATOM     10  N   UNL     1      44.933   2.844  10.382  0.00  0.00    +0.000 N 
ATOM     11  H   UNL     1      45.666   2.228  10.723  0.00  0.00    +0.000 HD
BRANCH   9  12
ATOM     12  C   UNL     1      45.918   2.411   8.260  0.00  0.00    +0.000 A 
ATOM     13  N   UNL     1      46.826   2.911   7.438  0.00  0.00    +0.000 NA
ATOM     14  C   UNL     1      47.501   1.824   6.938  0.00  0.00    +0.000 A 
ATOM     15  C   UNL     1      46.992   0.653   7.445  0.00  0.00    +0.000 A 
ATOM     16  N   UNL     1      45.988   1.039   8.284  0.00  0.00    +0.000 N 
ATOM     17  H   UNL     1      45.386   0.448   8.844  0.00  0.00    +0.000 HD
ENDBRANCH   9  12
ENDBRANCH   7  10
ENDBRANCH   1   7
BRANCH   4  18
ATOM     18  C   UNL     1      46.553   8.497  12.980  0.00  0.00    +0.000 C 
BRANCH  18  19
ATOM     19  N   UNL     1      47.006   8.451  14.352  0.00  0.00    +0.000 N 
ATOM     20  C   UNL     1      48.090   9.172  14.780  0.00  0.00    +0.000 C 
ATOM     21  O   UNL     1      48.695   9.934  14.030  0.00  0.00    +0.000 OA
ATOM     22  H   UNL     1      46.682   7.660  14.902  0.00  0.00    +0.000 HD
BRANCH  20  23
ATOM     23  C   UNL     1      48.450   9.041  16.196  0.00  0.00    +0.000 A 
ATOM     24  C   UNL     1      48.409  10.157  17.021  0.00  0.00    +0.000 A 
ATOM     25  S   UNL     1      48.824   9.824  18.641  0.00  0.00    +0.000 S 
ATOM     26  C   UNL     1      49.121   8.186  18.286  0.00  0.00    +0.000 A 
ATOM     27  N   UNL     1      49.546   7.327  19.250  0.00  0.00    +0.000 NA
ATOM     28  C   UNL     1      49.770   6.126  18.831  0.00  0.00    +0.000 A 
ATOM     29  N   UNL     1      49.598   5.704  17.539  0.00  0.00    +0.000 N 
ATOM     30  C   UNL     1      49.120   6.523  16.545  0.00  0.00    +0.000 A 
ATOM     31  O   UNL     1      48.889   6.095  15.419  0.00  0.00    +0.000 OA
ATOM     32  C   UNL     1      48.883   7.894  16.955  0.00  0.00    +0.000 A 
ATOM     33  H   UNL     1      49.774   4.745  17.280  0.00  0.00    +0.000 HD
ENDBRANCH  20  23
ENDBRANCH  18  19
ENDBRANCH   4  18
TORSDOF 6
ENDMDL
MODEL 5
REMARK VINA RESULT:    -7.235      3.389      5.230
REMARK INTER + INTRA:         -10.475
REMARK INTER:                  -9.791
REMARK INTRA:                  -0.685
REMARK UNBOUND:                -0.703
REMARK  Name = 
REMARK  6 active torsions:
REMARK  status: ('A' for Active; 'I' for Inactive)
REMARK    1  A    between atoms: C_2  and  C_25
REMARK    2  A    between atoms: N_3  and  C_4
REMARK    3  A    between atoms: C_4  and  C_5
REMARK    4  A    between atoms: C_8  and  C_9
REMARK    5  A    between atoms: C_9  and  N_10
REMARK    6  A    between atoms: C_11  and  C_13
REMARK                            x       y       z     vdW  Elec       q    Type
REMARK                         _______ _______ _______ _____ _____    ______ ____
ROOT
ATOM      1  C   UNL     1      47.451   5.550  14.388  0.00  0.00    +0.000 A 
ATOM      2  C   UNL     1      46.833   4.326  14.623  0.00  0.00    +0.000 A 
ATOM      3  N   UNL     1      47.030   3.603  15.752  0.00  0.00    +0.000 NA
ATOM      4  C   UNL     1      47.892   4.142  16.655  0.00  0.00    +0.000 A 
ATOM      5  C   UNL     1      48.535   5.349  16.406  0.00  0.00    +0.000 A 
ATOM      6  N   UNL     1      48.329   6.076  15.280  0.00  0.00    +0.000 NA
ENDROOT
BRANCH   1   7
ATOM      7  C   UNL     1      47.154   6.325  13.134  0.00  0.00    +0.000 C 
BRANCH   7  10
ATOM      8  O   UNL     1      45.357   7.161  11.155  0.00  0.00    +0.000 OA
ATOM      9  C   UNL     1      45.790   6.008  11.114  0.00  0.00    +0.000 C 
ATOM     10  N   UNL     1      46.629   5.496  12.074  0.00  0.00    +0.000 N 
ATOM     11  H   UNL     1      47.064   4.601  11.870  0.00  0.00    +0.000 HD
BRANCH   9  12
ATOM     12  C   UNL     1      45.445   5.086  10.052  0.00  0.00    +0.000 A 
ATOM     13  N   UNL     1      45.919   5.120   8.818  0.00  0.00    +0.000 NA
ATOM     14  C   UNL     1      45.344   4.047   8.178  0.00  0.00    +0.000 A 
ATOM     15  C   UNL     1      44.502   3.365   9.024  0.00  0.00    +0.000 A 
ATOM     16  N   UNL     1      44.575   4.034  10.210  0.00  0.00    +0.000 N 
ATOM     17  H   UNL     1      44.094   3.818  11.074  0.00  0.00    +0.000 HD
ENDBRANCH   9  12
ENDBRANCH   7  10
ENDBRANCH   1   7
BRANCH   4  18
ATOM     18  C   UNL     1      48.158   3.375  17.923  0.00  0.00    +0.000 C 
BRANCH  18  19
ATOM     19  N   UNL     1      49.562   3.082  18.101  0.00  0.00    +0.000 N 
ATOM     20  C   UNL     1      50.235   2.234  17.262  0.00  0.00    +0.000 C 
ATOM     21  O   UNL     1      49.690   1.722  16.287  0.00  0.00    +0.000 OA
ATOM     22  H   UNL     1      49.948   3.292  19.017  0.00  0.00    +0.000 HD
BRANCH  20  23
ATOM     23  C   UNL     1      51.658   2.018  17.546  0.00  0.00    +0.000 A 
ATOM     24  C   UNL     1      52.143   0.724  17.679  0.00  0.00    +0.000 A 
ATOM     25  S   UNL     1      53.822   0.651  17.973  0.00  0.00    +0.000 S 
ATOM     26  C   UNL     1      53.949   2.349  17.981  0.00  0.00    +0.000 A 
ATOM     27  N   UNL     1      55.142   2.960  18.213  0.00  0.00    +0.000 NA
ATOM     28  C   UNL     1      55.084   4.249  18.230  0.00  0.00    +0.000 A 
ATOM     29  N   UNL     1      53.945   4.984  18.027  0.00  0.00    +0.000 N 
ATOM     30  C   UNL     1      52.731   4.411  17.738  0.00  0.00    +0.000 A 
ATOM     31  O   UNL     1      51.748   5.094  17.471  0.00  0.00    +0.000 OA
ATOM     32  C   UNL     1      52.732   2.961  17.739  0.00  0.00    +0.000 A 
ATOM     33  H   UNL     1      53.971   5.992  18.036  0.00  0.00    +0.000 HD
ENDBRANCH  20  23
ENDBRANCH  18  19
ENDBRANCH   4  18
TORSDOF 6
ENDMDL
MODEL 6
REMARK VINA RESULT:    -7.063      3.577      8.262
REMARK INTER + INTRA:         -10.243
REMARK INTER:                  -9.515
REMARK INTRA:                  -0.728
REMARK UNBOUND:                -0.703
REMARK  Name = 
REMARK  6 active torsions:
REMARK  status: ('A' for Active; 'I' for Inactive)
REMARK    1  A    between atoms: C_2  and  C_25
REMARK    2  A    between atoms: N_3  and  C_4
REMARK    3  A    between atoms: C_4  and  C_5
REMARK    4  A    between atoms: C_8  and  C_9
REMARK    5  A    between atoms: C_9  and  N_10
REMARK    6  A    between atoms: C_11  and  C_13
REMARK                            x       y       z     vdW  Elec       q    Type
REMARK                         _______ _______ _______ _____ _____    ______ ____
ROOT
ATOM      1  C   UNL     1      48.977   5.079  17.208  0.00  0.00    +0.000 A 
ATOM      2  C   UNL     1      47.908   4.643  16.431  0.00  0.00    +0.000 A 
ATOM      3  N   UNL     1      47.589   5.195  15.236  0.00  0.00    +0.000 NA
ATOM      4  C   UNL     1      48.377   6.228  14.833  0.00  0.00    +0.000 A 
ATOM      5  C   UNL     1      49.424   6.685  15.625  0.00  0.00    +0.000 A 
ATOM      6  N   UNL     1      49.749   6.124  16.816  0.00  0.00    +0.000 NA
ENDROOT
BRANCH   1   7
ATOM      7  C   UNL     1      49.306   4.393  18.504  0.00  0.00    +0.000 C 
BRANCH   7  10
ATOM      8  O   UNL     1      49.718   2.049  17.027  0.00  0.00    +0.000 OA
ATOM      9  C   UNL     1      50.666   2.532  17.648  0.00  0.00    +0.000 C 
ATOM     10  N   UNL     1      50.541   3.645  18.444  0.00  0.00    +0.000 N 
ATOM     11  H   UNL     1      51.404   4.066  18.779  0.00  0.00    +0.000 HD
BRANCH   9  12
ATOM     12  C   UNL     1      51.997   1.963  17.601  0.00  0.00    +0.000 A 
ATOM     13  N   UNL     1      53.121   2.608  17.860  0.00  0.00    +0.000 NA
ATOM     14  C   UNL     1      54.118   1.672  17.723  0.00  0.00    +0.000 A 
ATOM     15  C   UNL     1      53.599   0.452  17.362  0.00  0.00    +0.000 A 
ATOM     16  N   UNL     1      52.251   0.650  17.288  0.00  0.00    +0.000 N 
ATOM     17  H   UNL     1      51.537  -0.029  17.054  0.00  0.00    +0.000 HD
ENDBRANCH   9  12
ENDBRANCH   7  10
ENDBRANCH   1   7
BRANCH   4  18
ATOM     18  C   UNL     1      48.061   6.887  13.517  0.00  0.00    +0.000 C 
BRANCH  18  19
ATOM     19  N   UNL     1      47.365   5.998  12.613  0.00  0.00    +0.000 N 
ATOM     20  C   UNL     1      46.312   6.426  11.848  0.00  0.00    +0.000 C 
ATOM     21  O   UNL     1      45.943   7.597  11.854  0.00  0.00    +0.000 OA
ATOM     22  H   UNL     1      47.493   5.004  12.780  0.00  0.00    +0.000 HD
BRANCH  20  23
ATOM     23  C   UNL     1      45.690   5.429  10.970  0.00  0.00    +0.000 A 
ATOM     24  C   UNL     1      45.804   5.562   9.592  0.00  0.00    +0.000 A 
ATOM     25  S   UNL     1      45.054   4.302   8.721  0.00  0.00    +0.000 S 
ATOM     26  C   UNL     1      44.508   3.562  10.153  0.00  0.00    +0.000 A 
ATOM     27  N   UNL     1      43.760   2.427  10.114  0.00  0.00    +0.000 NA
ATOM     28  C   UNL     1      43.382   1.999  11.271  0.00  0.00    +0.000 A 
ATOM     29  N   UNL     1      43.693   2.595  12.466  0.00  0.00    +0.000 N 
ATOM     30  C   UNL     1      44.488   3.711  12.556  0.00  0.00    +0.000 A 
ATOM     31  O   UNL     1      44.826   4.171  13.642  0.00  0.00    +0.000 OA
ATOM     32  C   UNL     1      44.914   4.254  11.281  0.00  0.00    +0.000 A 
ATOM     33  H   UNL     1      43.380   2.199  13.339  0.00  0.00    +0.000 HD
ENDBRANCH  20  23
ENDBRANCH  18  19
ENDBRANCH   4  18
TORSDOF 6
ENDMDL
MODEL 7
REMARK VINA RESULT:    -6.938      3.041      8.424
REMARK INTER + INTRA:         -10.074
REMARK INTER:                  -9.231
REMARK INTRA:                  -0.843
REMARK UNBOUND:                -0.703
REMARK  Name = 
REMARK  6 active torsions:
REMARK  status: ('A' for Active; 'I' for Inactive)
REMARK    1  A    between atoms: C_2  and  C_25
REMARK    2  A    between atoms: N_3  and  C_4
REMARK    3  A    between atoms: C_4  and  C_5
REMARK    4  A    between atoms: C_8  and  C_9
REMARK    5  A    between atoms: C_9  and  N_10
REMARK    6  A    between atoms: C_11  and  C_13
REMARK                            x       y       z     vdW  Elec       q    Type
REMARK                         _______ _______ _______ _____ _____    ______ ____
ROOT
ATOM      1  C   UNL     1      49.920   7.397  15.165  0.00  0.00    +0.000 A 
ATOM      2  C   UNL     1      49.994   8.483  14.299  0.00  0.00    +0.000 A 
ATOM      3  N   UNL     1      49.177   8.633  13.229  0.00  0.00    +0.000 NA
ATOM      4  C   UNL     1      48.272   7.638  13.033  0.00  0.00    +0.000 A 
ATOM      5  C   UNL     1      48.220   6.536  13.879  0.00  0.00    +0.000 A 
ATOM      6  N   UNL     1      49.031   6.393  14.956  0.00  0.00    +0.000 NA
ENDROOT
BRANCH   1   7
ATOM      7  C   UNL     1      50.825   7.314  16.362  0.00  0.00    +0.000 C 
BRANCH   7  10
ATOM      8  O   UNL     1      49.817   5.561  18.301  0.00  0.00    +0.000 OA
ATOM      9  C   UNL     1      50.711   5.164  17.551  0.00  0.00    +0.000 C 
ATOM     10  N   UNL     1      51.303   5.973  16.611  0.00  0.00    +0.000 N 
ATOM     11  H   UNL     1      51.905   5.517  15.931  0.00  0.00    +0.000 HD
BRANCH   9  12
ATOM     12  C   UNL     1      51.223   3.811  17.600  0.00  0.00    +0.000 A 
ATOM     13  N   UNL     1      50.576   2.727  17.202  0.00  0.00    +0.000 NA
ATOM     14  C   UNL     1      51.451   1.687  17.404  0.00  0.00    +0.000 A 
ATOM     15  C   UNL     1      52.633   2.137  17.943  0.00  0.00    +0.000 A 
ATOM     16  N   UNL     1      52.475   3.487  18.062  0.00  0.00    +0.000 N 
ATOM     17  H   UNL     1      53.143   4.160  18.416  0.00  0.00    +0.000 HD
ENDBRANCH   9  12
ENDBRANCH   7  10
ENDBRANCH   1   7
BRANCH   4  18
ATOM     18  C   UNL     1      47.346   7.746  11.851  0.00  0.00    +0.000 C 
BRANCH  18  19
ATOM     19  N   UNL     1      46.676   6.497  11.565  0.00  0.00    +0.000 N 
ATOM     20  C   UNL     1      45.315   6.371  11.656  0.00  0.00    +0.000 C 
ATOM     21  O   UNL     1      44.594   7.326  11.934  0.00  0.00    +0.000 OA
ATOM     22  H   UNL     1      47.259   5.666  11.580  0.00  0.00    +0.000 HD
BRANCH  20  23
ATOM     23  C   UNL     1      44.754   5.053  11.339  0.00  0.00    +0.000 A 
ATOM     24  C   UNL     1      43.976   4.393  12.281  0.00  0.00    +0.000 A 
ATOM     25  S   UNL     1      43.375   2.892  11.740  0.00  0.00    +0.000 S 
ATOM     26  C   UNL     1      44.174   3.049  10.246  0.00  0.00    +0.000 A 
ATOM     27  N   UNL     1      44.097   2.070   9.305  0.00  0.00    +0.000 NA
ATOM     28  C   UNL     1      44.784   2.304   8.237  0.00  0.00    +0.000 A 
ATOM     29  N   UNL     1      45.533   3.430   8.020  0.00  0.00    +0.000 N 
ATOM     30  C   UNL     1      45.598   4.466   8.919  0.00  0.00    +0.000 A 
ATOM     31  O   UNL     1      46.202   5.502   8.661  0.00  0.00    +0.000 OA
ATOM     32  C   UNL     1      44.869   4.241  10.153  0.00  0.00    +0.000 A 
ATOM     33  H   UNL     1      46.034   3.560   7.154  0.00  0.00    +0.000 HD
ENDBRANCH  20  23
ENDBRANCH  18  19
ENDBRANCH   4  18
TORSDOF 6
ENDMDL
MODEL 8
REMARK VINA RESULT:    -6.744      2.889      4.266
REMARK INTER + INTRA:          -9.813
REMARK INTER:                  -8.840
REMARK INTRA:                  -0.972
REMARK UNBOUND:                -0.703
REMARK  Name = 
REMARK  6 active torsions:
REMARK  status: ('A' for Active; 'I' for Inactive)
REMARK    1  A    between atoms: C_2  and  C_25
REMARK    2  A    between atoms: N_3  and  C_4
REMARK    3  A    between atoms: C_4  and  C_5
REMARK    4  A    between atoms: C_8  and  C_9
REMARK    5  A    between atoms: C_9  and  N_10
REMARK    6  A    between atoms: C_11  and  C_13
REMARK                            x       y       z     vdW  Elec       q    Type
REMARK                         _______ _______ _______ _____ _____    ______ ____
ROOT
ATOM      1  C   UNL     1      44.784   3.773  11.953  0.00  0.00    +0.000 A 
ATOM      2  C   UNL     1      45.802   3.124  12.642  0.00  0.00    +0.000 A 
ATOM      3  N   UNL     1      46.581   3.741  13.564  0.00  0.00    +0.000 NA
ATOM      4  C   UNL     1      46.316   5.058  13.774  0.00  0.00    +0.000 A 
ATOM      5  C   UNL     1      45.320   5.714  13.061  0.00  0.00    +0.000 A 
ATOM      6  N   UNL     1      44.535   5.093  12.146  0.00  0.00    +0.000 NA
ENDROOT
BRANCH   1   7
ATOM      7  C   UNL     1      43.925   3.019  10.975  0.00  0.00    +0.000 C 
BRANCH   7  10
ATOM      8  O   UNL     1      44.918   4.348   8.719  0.00  0.00    +0.000 OA
ATOM      9  C   UNL     1      45.182   3.154   8.866  0.00  0.00    +0.000 C 
ATOM     10  N   UNL     1      44.690   2.409   9.912  0.00  0.00    +0.000 N 
ATOM     11  H   UNL     1      45.094   1.486  10.044  0.00  0.00    +0.000 HD
BRANCH   9  12
ATOM     12  C   UNL     1      46.028   2.426   7.945  0.00  0.00    +0.000 A 
ATOM     13  N   UNL     1      46.409   1.166   8.078  0.00  0.00    +0.000 NA
ATOM     14  C   UNL     1      47.167   0.896   6.965  0.00  0.00    +0.000 A 
ATOM     15  C   UNL     1      47.264   2.002   6.155  0.00  0.00    +0.000 A 
ATOM     16  N   UNL     1      46.536   2.967   6.789  0.00  0.00    +0.000 N 
ATOM     17  H   UNL     1      46.373   3.919   6.486  0.00  0.00    +0.000 HD
ENDBRANCH   9  12
ENDBRANCH   7  10
ENDBRANCH   1   7
BRANCH   4  18
ATOM     18  C   UNL     1      47.159   5.797  14.779  0.00  0.00    +0.000 C 
BRANCH  18  19
ATOM     19  N   UNL     1      48.302   6.438  14.169  0.00  0.00    +0.000 N 
ATOM     20  C   UNL     1      48.284   7.761  13.814  0.00  0.00    +0.000 C 
ATOM     21  O   UNL     1      47.314   8.479  14.045  0.00  0.00    +0.000 OA
ATOM     22  H   UNL     1      48.993   5.817  13.757  0.00  0.00    +0.000 HD
BRANCH  20  23
ATOM     23  C   UNL     1      49.506   8.296  13.204  0.00  0.00    +0.000 A 
ATOM     24  C   UNL     1      49.432   8.965  11.990  0.00  0.00    +0.000 A 
ATOM     25  S   UNL     1      50.936   9.551  11.440  0.00  0.00    +0.000 S 
ATOM     26  C   UNL     1      51.747   8.887  12.781  0.00  0.00    +0.000 A 
ATOM     27  N   UNL     1      53.095   9.006  12.913  0.00  0.00    +0.000 NA
ATOM     28  C   UNL     1      53.581   8.420  13.956  0.00  0.00    +0.000 A 
ATOM     29  N   UNL     1      52.841   7.736  14.884  0.00  0.00    +0.000 N 
ATOM     30  C   UNL     1      51.473   7.636  14.819  0.00  0.00    +0.000 A 
ATOM     31  O   UNL     1      50.827   7.096  15.712  0.00  0.00    +0.000 OA
ATOM     32  C   UNL     1      50.877   8.249  13.648  0.00  0.00    +0.000 A 
ATOM     33  H   UNL     1      53.281   7.315  15.689  0.00  0.00    +0.000 HD
ENDBRANCH  20  23
ENDBRANCH  18  19
ENDBRANCH   4  18
TORSDOF 6
ENDMDL
MODEL 9
REMARK VINA RESULT:    -6.613      2.873      4.815
REMARK INTER + INTRA:          -9.635
REMARK INTER:                  -8.781
REMARK INTRA:                  -0.854
REMARK UNBOUND:                -0.703
REMARK  Name = 
REMARK  6 active torsions:
REMARK  status: ('A' for Active; 'I' for Inactive)
REMARK    1  A    between atoms: C_2  and  C_25
REMARK    2  A    between atoms: N_3  and  C_4
REMARK    3  A    between atoms: C_4  and  C_5
REMARK    4  A    between atoms: C_8  and  C_9
REMARK    5  A    between atoms: C_9  and  N_10
REMARK    6  A    between atoms: C_11  and  C_13
REMARK                            x       y       z     vdW  Elec       q    Type
REMARK                         _______ _______ _______ _____ _____    ______ ____
ROOT
ATOM      1  C   UNL     1      44.817   3.892  11.971  0.00  0.00    +0.000 A 
ATOM      2  C   UNL     1      45.788   3.166  12.654  0.00  0.00    +0.000 A 
ATOM      3  N   UNL     1      46.594   3.712  13.595  0.00  0.00    +0.000 NA
ATOM      4  C   UNL     1      46.410   5.038  13.833  0.00  0.00    +0.000 A 
ATOM      5  C   UNL     1      45.464   5.771  13.127  0.00  0.00    +0.000 A 
ATOM      6  N   UNL     1      44.650   5.220  12.193  0.00  0.00    +0.000 NA
ENDROOT
BRANCH   1   7
ATOM      7  C   UNL     1      43.922   3.215  10.970  0.00  0.00    +0.000 C 
BRANCH   7  10
ATOM      8  O   UNL     1      45.011   4.368   8.662  0.00  0.00    +0.000 OA
ATOM      9  C   UNL     1      45.203   3.169   8.872  0.00  0.00    +0.000 C 
ATOM     10  N   UNL     1      44.659   2.509   9.948  0.00  0.00    +0.000 N 
ATOM     11  H   UNL     1      45.006   1.572  10.131  0.00  0.00    +0.000 HD
BRANCH   9  12
ATOM     12  C   UNL     1      46.013   2.347   7.998  0.00  0.00    +0.000 A 
ATOM     13  N   UNL     1      46.324   1.078   8.203  0.00  0.00    +0.000 NA
ATOM     14  C   UNL     1      47.072   0.707   7.111  0.00  0.00    +0.000 A 
ATOM     15  C   UNL     1      47.232   1.761   6.244  0.00  0.00    +0.000 A 
ATOM     16  N   UNL     1      46.555   2.796   6.818  0.00  0.00    +0.000 N 
ATOM     17  H   UNL     1      46.445   3.737   6.463  0.00  0.00    +0.000 HD
ENDBRANCH   9  12
ENDBRANCH   7  10
ENDBRANCH   1   7
BRANCH   4  18
ATOM     18  C   UNL     1      47.288   5.700  14.861  0.00  0.00    +0.000 C 
BRANCH  18  19
ATOM     19  N   UNL     1      48.399   6.404  14.260  0.00  0.00    +0.000 N 
ATOM     20  C   UNL     1      48.469   7.772  14.254  0.00  0.00    +0.000 C 
ATOM     21  O   UNL     1      47.617   8.465  14.806  0.00  0.00    +0.000 OA
ATOM     22  H   UNL     1      48.961   5.870  13.604  0.00  0.00    +0.000 HD
BRANCH  20  23
ATOM     23  C   UNL     1      49.647   8.368  13.615  0.00  0.00    +0.000 A 
ATOM     24  C   UNL     1      50.915   8.065  14.092  0.00  0.00    +0.000 A 
ATOM     25  S   UNL     1      52.172   8.813  13.215  0.00  0.00    +0.000 S 
ATOM     26  C   UNL     1      51.063   9.608  12.198  0.00  0.00    +0.000 A 
ATOM     27  N   UNL     1      51.490  10.451  11.220  0.00  0.00    +0.000 NA
ATOM     28  C   UNL     1      50.540  11.015  10.552  0.00  0.00    +0.000 A 
ATOM     29  N   UNL     1      49.203  10.807  10.766  0.00  0.00    +0.000 N 
ATOM     30  C   UNL     1      48.728   9.926  11.706  0.00  0.00    +0.000 A 
ATOM     31  O   UNL     1      47.529   9.689  11.814  0.00  0.00    +0.000 OA
ATOM     32  C   UNL     1      49.753   9.288  12.508  0.00  0.00    +0.000 A 
ATOM     33  H   UNL     1      48.509  11.267  10.195  0.00  0.00    +0.000 HD
ENDBRANCH  20  23
ENDBRANCH  18  19
ENDBRANCH   4  18
TORSDOF 6
ENDMDL
