MODEL 1
REMARK VINA RESULT:    -7.418      0.000      0.000
REMARK INTER + INTRA:         -10.405
REMARK INTER:                  -9.587
REMARK INTRA:                  -0.818
REMARK UNBOUND:                -0.818
REMARK  Name = 
REMARK  6 active torsions:
REMARK  status: ('A' for Active; 'I' for Inactive)
REMARK    1  A    between atoms: C_1  and  O_2
REMARK    2  A    between atoms: O_2  and  C_3
REMARK    3  A    between atoms: C_6  and  C_7
REMARK    4  A    between atoms: C_7  and  O_8
REMARK    5  A    between atoms: O_8  and  C_9
REMARK    6  A    between atoms: C_13  and  C_14
REMARK                            x       y       z     vdW  Elec       q    Type
REMARK                         _______ _______ _______ _____ _____    ______ ____
ROOT
ATOM      1  C   UNL     1      45.016   4.422  11.936  0.00  0.00    +0.000 A 
ATOM      2  C   UNL     1      45.654   3.557  12.804  0.00  0.00    +0.000 A 
ATOM      3  C   UNL     1      46.705   4.055  13.564  0.00  0.00    +0.000 A 
ATOM      4  C   UNL     1      47.081   5.389  13.418  0.00  0.00    +0.000 A 
ATOM      5  C   UNL     1      46.392   6.196  12.515  0.00  0.00    +0.000 A 
ATOM      6  N   UNL     1      45.356   5.722  11.790  0.00  0.00    +0.000 NA
ENDROOT
BRANCH   5   7
ATOM      7  C   UNL     1      46.730   7.608  12.279  0.00  0.00    +0.000 A 
ATOM      8  C   UNL     1      48.036   8.035  12.004  0.00  0.00    +0.000 A 
ATOM      9  C   UNL     1      48.314   9.388  11.816  0.00  0.00    +0.000 A 
ATOM     10  C   UNL     1      47.271  10.291  11.900  0.00  0.00    +0.000 A 
ATOM     11  N   UNL     1      45.993   9.933  12.137  0.00  0.00    +0.000 NA
ATOM     12  C   UNL     1      45.756   8.609  12.312  0.00  0.00    +0.000 A 
ENDBRANCH   5   7
BRANCH   1  13
ATOM     13  O   UNL     1      43.987   3.905  11.178  0.00  0.00    +0.000 OA
BRANCH  13  14
ATOM     14  C   UNL     1      44.035   4.367   9.824  0.00  0.00    +0.000 C 
BRANCH  14  18
ATOM     15  C   UNL     1      46.879   2.170   7.415  0.00  0.00    +0.000 A 
ATOM     16  C   UNL     1      46.062   1.492   8.321  0.00  0.00    +0.000 A 
ATOM     17  C   UNL     1      45.150   2.196   9.113  0.00  0.00    +0.000 A 
ATOM     18  C   UNL     1      45.050   3.588   9.021  0.00  0.00    +0.000 A 
ATOM     19  C   UNL     1      45.866   4.262   8.101  0.00  0.00    +0.000 A 
ATOM     20  C   UNL     1      46.775   3.557   7.309  0.00  0.00    +0.000 A 
BRANCH  15  22
ATOM     21  C   UNL     1      48.067   2.284   5.367  0.00  0.00    +0.000 C 
ATOM     22  O   UNL     1      47.799   1.594   6.582  0.00  0.00    +0.000 OA
ENDBRANCH  15  22
ENDBRANCH  14  18
ENDBRANCH  13  14
ENDBRANCH   1  13
TORSDOF 5
ENDMDL
MODEL 2
REMARK VINA RESULT:    -7.216      1.927      3.513
REMARK INTER + INTRA:         -10.143
REMARK INTER:                  -9.412
REMARK INTRA:                  -0.731
REMARK UNBOUND:                -0.818
REMARK  Name = 
REMARK  6 active torsions:
REMARK  status: ('A' for Active; 'I' for Inactive)
REMARK    1  A    between atoms: C_1  and  O_2
REMARK    2  A    between atoms: O_2  and  C_3
REMARK    3  A    between atoms: C_6  and  C_7
REMARK    4  A    between atoms: C_7  and  O_8
REMARK    5  A    between atoms: O_8  and  C_9
REMARK    6  A    between atoms: C_13  and  C_14
REMARK                            x       y       z     vdW  Elec       q    Type
REMARK                         _______ _______ _______ _____ _____    ______ ____
ROOT
ATOM      1  C   UNL     1      45.158   4.922  11.873  0.00  0.00    +0.000 A 
ATOM      2  C   UNL     1      45.299   6.159  11.274  0.00  0.00    +0.000 A 
ATOM      3  C   UNL     1      46.196   7.058  11.839  0.00  0.00    +0.000 A 
ATOM      4  C   UNL     1      46.903   6.689  12.981  0.00  0.00    +0.000 A 
ATOM      5  C   UNL     1      46.699   5.425  13.530  0.00  0.00    +0.000 A 
ATOM      6  N   UNL     1      45.845   4.540  12.972  0.00  0.00    +0.000 NA
ENDROOT
BRANCH   5   7
ATOM      7  C   UNL     1      47.385   4.956  14.744  0.00  0.00    +0.000 A 
ATOM      8  C   UNL     1      48.053   5.826  15.617  0.00  0.00    +0.000 A 
ATOM      9  C   UNL     1      48.714   5.333  16.741  0.00  0.00    +0.000 A 
ATOM     10  C   UNL     1      48.686   3.970  16.973  0.00  0.00    +0.000 A 
ATOM     11  N   UNL     1      48.039   3.092  16.182  0.00  0.00    +0.000 NA
ATOM     12  C   UNL     1      47.403   3.605  15.099  0.00  0.00    +0.000 A 
ENDBRANCH   5   7
BRANCH   1  13
ATOM     13  O   UNL     1      44.252   4.051  11.308  0.00  0.00    +0.000 OA
BRANCH  13  14
ATOM     14  C   UNL     1      44.045   4.322   9.917  0.00  0.00    +0.000 C 
BRANCH  14  18
ATOM     15  C   UNL     1      46.751   2.116   7.363  0.00  0.00    +0.000 A 
ATOM     16  C   UNL     1      46.008   1.445   8.336  0.00  0.00    +0.000 A 
ATOM     17  C   UNL     1      45.141   2.152   9.174  0.00  0.00    +0.000 A 
ATOM     18  C   UNL     1      45.015   3.540   9.062  0.00  0.00    +0.000 A 
ATOM     19  C   UNL     1      45.756   4.206   8.076  0.00  0.00    +0.000 A 
ATOM     20  C   UNL     1      46.620   3.498   7.238  0.00  0.00    +0.000 A 
BRANCH  15  22
ATOM     21  C   UNL     1      47.942   2.294   5.321  0.00  0.00    +0.000 C 
ATOM     22  O   UNL     1      47.621   1.535   6.481  0.00  0.00    +0.000 OA
ENDBRANCH  15  22
ENDBRANCH  14  18
ENDBRANCH  13  14
ENDBRANCH   1  13
TORSDOF 5
ENDMDL
MODEL 3
REMARK VINA RESULT:    -7.123      2.525      6.543
REMARK INTER + INTRA:         -10.023
REMARK INTER:                  -9.215
REMARK INTRA:                  -0.808
REMARK UNBOUND:                -0.818
REMARK  Name = 
REMARK  6 active torsions:
REMARK  status: ('A' for Active; 'I' for Inactive)
REMARK    1  A    between atoms: C_1  and  O_2
REMARK    2  A    between atoms: O_2  and  C_3
REMARK    3  A    between atoms: C_6  and  C_7
REMARK    4  A    between atoms: C_7  and  O_8
REMARK    5  A    between atoms: O_8  and  C_9
REMARK    6  A    between atoms: C_13  and  C_14
REMARK                            x       y       z     vdW  Elec       q    Type
REMARK                         _______ _______ _______ _____ _____    ______ ____
ROOT
ATOM      1  C   UNL     1      43.892   4.683  10.556  0.00  0.00    +0.000 A 
ATOM      2  C   UNL     1      43.242   3.784  11.380  0.00  0.00    +0.000 A 
ATOM      3  C   UNL     1      43.447   2.428  11.156  0.00  0.00    +0.000 A 
ATOM      4  C   UNL     1      44.282   2.028  10.114  0.00  0.00    +0.000 A 
ATOM      5  C   UNL     1      44.895   2.995   9.322  0.00  0.00    +0.000 A 
ATOM      6  N   UNL     1      44.716   4.315   9.550  0.00  0.00    +0.000 NA
ENDROOT
BRANCH   5   7
ATOM      7  C   UNL     1      45.775   2.668   8.190  0.00  0.00    +0.000 A 
ATOM      8  C   UNL     1      46.063   3.584   7.169  0.00  0.00    +0.000 A 
ATOM      9  C   UNL     1      46.880   3.219   6.099  0.00  0.00    +0.000 A 
ATOM     10  C   UNL     1      47.402   1.939   6.078  0.00  0.00    +0.000 A 
ATOM     11  N   UNL     1      47.179   1.028   7.046  0.00  0.00    +0.000 NA
ATOM     12  C   UNL     1      46.383   1.415   8.074  0.00  0.00    +0.000 A 
ENDBRANCH   5   7
BRANCH   1  13
ATOM     13  O   UNL     1      43.662   6.023  10.783  0.00  0.00    +0.000 OA
BRANCH  13  14
ATOM     14  C   UNL     1      43.837   6.369  12.161  0.00  0.00    +0.000 C 
BRANCH  14  18
ATOM     15  C   UNL     1      48.063   6.515  13.073  0.00  0.00    +0.000 A 
ATOM     16  C   UNL     1      47.250   5.564  13.690  0.00  0.00    +0.000 A 
ATOM     17  C   UNL     1      45.881   5.518  13.411  0.00  0.00    +0.000 A 
ATOM     18  C   UNL     1      45.303   6.431  12.523  0.00  0.00    +0.000 A 
ATOM     19  C   UNL     1      46.128   7.377  11.898  0.00  0.00    +0.000 A 
ATOM     20  C   UNL     1      47.496   7.420  12.176  0.00  0.00    +0.000 A 
BRANCH  15  22
ATOM     21  C   UNL     1      49.825   7.671  14.160  0.00  0.00    +0.000 C 
ATOM     22  O   UNL     1      49.413   6.653  13.256  0.00  0.00    +0.000 OA
ENDBRANCH  15  22
ENDBRANCH  14  18
ENDBRANCH  13  14
ENDBRANCH   1  13
TORSDOF 5
ENDMDL
MODEL 4
REMARK VINA RESULT:    -7.070      1.725      2.018
REMARK INTER + INTRA:          -9.955
REMARK INTER:                  -9.255
REMARK INTRA:                  -0.699
REMARK UNBOUND:                -0.818
REMARK  Name = 
REMARK  6 active torsions:
REMARK  status: ('A' for Active; 'I' for Inactive)
REMARK    1  A    between atoms: C_1  and  O_2
REMARK    2  A    between atoms: O_2  and  C_3
REMARK    3  A    between atoms: C_6  and  C_7
REMARK    4  A    between atoms: C_7  and  O_8
REMARK    5  A    between atoms: O_8  and  C_9
REMARK    6  A    between atoms: C_13  and  C_14
REMARK                            x       y       z     vdW  Elec       q    Type
REMARK                         _______ _______ _______ _____ _____    ______ ____
ROOT
ATOM      1  C   UNL     1      45.411   5.715  11.785  0.00  0.00    +0.000 A 
ATOM      2  C   UNL     1      45.086   4.798  12.767  0.00  0.00    +0.000 A 
ATOM      3  C   UNL     1      45.982   4.622  13.815  0.00  0.00    +0.000 A 
ATOM      4  C   UNL     1      47.166   5.356  13.831  0.00  0.00    +0.000 A 
ATOM      5  C   UNL     1      47.424   6.255  12.799  0.00  0.00    +0.000 A 
ATOM      6  N   UNL     1      46.547   6.447  11.790  0.00  0.00    +0.000 NA
ENDROOT
BRANCH   5   7
ATOM      7  C   UNL     1      48.654   7.058  12.723  0.00  0.00    +0.000 A 
ATOM      8  C   UNL     1      49.122   7.609  11.522  0.00  0.00    +0.000 A 
ATOM      9  C   UNL     1      50.309   8.340  11.492  0.00  0.00    +0.000 A 
ATOM     10  C   UNL     1      51.005   8.510  12.674  0.00  0.00    +0.000 A 
ATOM     11  N   UNL     1      50.589   8.024  13.860  0.00  0.00    +0.000 NA
ATOM     12  C   UNL     1      49.429   7.321  13.855  0.00  0.00    +0.000 A 
ENDBRANCH   5   7
BRANCH   1  13
ATOM     13  O   UNL     1      44.518   5.863  10.745  0.00  0.00    +0.000 OA
BRANCH  13  14
ATOM     14  C   UNL     1      43.888   4.625  10.401  0.00  0.00    +0.000 C 
BRANCH  14  18
ATOM     15  C   UNL     1      46.334   2.312   7.684  0.00  0.00    +0.000 A 
ATOM     16  C   UNL     1      45.597   1.667   8.679  0.00  0.00    +0.000 A 
ATOM     17  C   UNL     1      44.814   2.408   9.569  0.00  0.00    +0.000 A 
ATOM     18  C   UNL     1      44.768   3.804   9.487  0.00  0.00    +0.000 A 
ATOM     19  C   UNL     1      45.502   4.444   8.478  0.00  0.00    +0.000 A 
ATOM     20  C   UNL     1      46.281   3.702   7.588  0.00  0.00    +0.000 A 
BRANCH  15  22
ATOM     21  C   UNL     1      47.519   2.492   5.638  0.00  0.00    +0.000 C 
ATOM     22  O   UNL     1      47.125   1.698   6.751  0.00  0.00    +0.000 OA
ENDBRANCH  15  22
ENDBRANCH  14  18
ENDBRANCH  13  14
ENDBRANCH   1  13
TORSDOF 5
ENDMDL
MODEL 5
REMARK VINA RESULT:    -6.672      3.475      7.705
REMARK INTER + INTRA:          -9.441
REMARK INTER:                  -8.949
REMARK INTRA:                  -0.492
REMARK UNBOUND:                -0.818
REMARK  Name = 
REMARK  6 active torsions:
REMARK  status: ('A' for Active; 'I' for Inactive)
REMARK    1  A    between atoms: C_1  and  O_2
REMARK    2  A    between atoms: O_2  and  C_3
REMARK    3  A    between atoms: C_6  and  C_7
REMARK    4  A    between atoms: C_7  and  O_8
REMARK    5  A    between atoms: O_8  and  C_9
REMARK    6  A    between atoms: C_13  and  C_14
REMARK                            x       y       z     vdW  Elec       q    Type
REMARK                         _______ _______ _______ _____ _____    ______ ____
ROOT
ATOM      1  C   UNL     1      44.736   4.419  12.917  0.00  0.00    +0.000 A 
ATOM      2  C   UNL     1      43.519   5.071  12.986  0.00  0.00    +0.000 A 
ATOM      3  C   UNL     1      42.806   5.248  11.807  0.00  0.00    +0.000 A 
ATOM      4  C   UNL     1      43.343   4.779  10.609  0.00  0.00    +0.000 A 
ATOM      5  C   UNL     1      44.580   4.140  10.621  0.00  0.00    +0.000 A 
ATOM      6  N   UNL     1      45.266   3.945  11.768  0.00  0.00    +0.000 NA
ENDROOT
BRANCH   5   7
ATOM      7  C   UNL     1      45.233   3.631   9.405  0.00  0.00    +0.000 A 
ATOM      8  C   UNL     1      45.416   2.263   9.164  0.00  0.00    +0.000 A 
ATOM      9  C   UNL     1      46.067   1.827   8.010  0.00  0.00    +0.000 A 
ATOM     10  C   UNL     1      46.517   2.777   7.112  0.00  0.00    +0.000 A 
ATOM     11  N   UNL     1      46.345   4.103   7.281  0.00  0.00    +0.000 NA
ATOM     12  C   UNL     1      45.705   4.493   8.412  0.00  0.00    +0.000 A 
ENDBRANCH   5   7
BRANCH   1  13
ATOM     13  O   UNL     1      45.435   4.268  14.095  0.00  0.00    +0.000 OA
BRANCH  13  14
ATOM     14  C   UNL     1      46.723   4.889  14.036  0.00  0.00    +0.000 C 
BRANCH  14  18
ATOM     15  C   UNL     1      48.640   4.631  17.905  0.00  0.00    +0.000 A 
ATOM     16  C   UNL     1      48.908   5.713  17.066  0.00  0.00    +0.000 A 
ATOM     17  C   UNL     1      48.303   5.798  15.809  0.00  0.00    +0.000 A 
ATOM     18  C   UNL     1      47.433   4.796  15.366  0.00  0.00    +0.000 A 
ATOM     19  C   UNL     1      47.160   3.717  16.219  0.00  0.00    +0.000 A 
ATOM     20  C   UNL     1      47.763   3.635  17.476  0.00  0.00    +0.000 A 
BRANCH  15  22
ATOM     21  C   UNL     1      50.514   4.839  19.343  0.00  0.00    +0.000 C 
ATOM     22  O   UNL     1      49.160   4.442  19.157  0.00  0.00    +0.000 OA
ENDBRANCH  15  22
ENDBRANCH  14  18
ENDBRANCH  13  14
ENDBRANCH   1  13
TORSDOF 5
ENDMDL
MODEL 6
REMARK VINA RESULT:    -6.564      2.057      2.958
REMARK INTER + INTRA:          -9.300
REMARK INTER:                  -8.601
REMARK INTRA:                  -0.699
REMARK UNBOUND:                -0.818
REMARK  Name = 
REMARK  6 active torsions:
REMARK  status: ('A' for Active; 'I' for Inactive)
REMARK    1  A    between atoms: C_1  and  O_2
REMARK    2  A    between atoms: O_2  and  C_3
REMARK    3  A    between atoms: C_6  and  C_7
REMARK    4  A    between atoms: C_7  and  O_8
REMARK    5  A    between atoms: O_8  and  C_9
REMARK    6  A    between atoms: C_13  and  C_14
REMARK                            x       y       z     vdW  Elec       q    Type
REMARK                         _______ _______ _______ _____ _____    ______ ____
ROOT
ATOM      1  C   UNL     1      45.319   5.541  12.203  0.00  0.00    +0.000 A 
ATOM      2  C   UNL     1      44.612   6.617  11.701  0.00  0.00    +0.000 A 
ATOM      3  C   UNL     1      45.098   7.893  11.960  0.00  0.00    +0.000 A 
ATOM      4  C   UNL     1      46.259   8.040  12.717  0.00  0.00    +0.000 A 
ATOM      5  C   UNL     1      46.910   6.905  13.194  0.00  0.00    +0.000 A 
ATOM      6  N   UNL     1      46.454   5.662  12.926  0.00  0.00    +0.000 NA
ENDROOT
BRANCH   5   7
ATOM      7  C   UNL     1      48.128   6.963  14.016  0.00  0.00    +0.000 A 
ATOM      8  C   UNL     1      49.187   7.837  13.735  0.00  0.00    +0.000 A 
ATOM      9  C   UNL     1      50.335   7.837  14.526  0.00  0.00    +0.000 A 
ATOM     10  C   UNL     1      50.397   6.960  15.593  0.00  0.00    +0.000 A 
ATOM     11  N   UNL     1      49.399   6.118  15.924  0.00  0.00    +0.000 NA
ATOM     12  C   UNL     1      48.294   6.145  15.137  0.00  0.00    +0.000 A 
ENDBRANCH   5   7
BRANCH   1  13
ATOM     13  O   UNL     1      44.811   4.284  11.950  0.00  0.00    +0.000 OA
BRANCH  13  14
ATOM     14  C   UNL     1      44.056   4.247  10.734  0.00  0.00    +0.000 C 
BRANCH  14  18
ATOM     15  C   UNL     1      46.516   2.633   7.563  0.00  0.00    +0.000 A 
ATOM     16  C   UNL     1      46.368   4.015   7.695  0.00  0.00    +0.000 A 
ATOM     17  C   UNL     1      45.565   4.544   8.709  0.00  0.00    +0.000 A 
ATOM     18  C   UNL     1      44.887   3.702   9.596  0.00  0.00    +0.000 A 
ATOM     19  C   UNL     1      45.048   2.315   9.463  0.00  0.00    +0.000 A 
ATOM     20  C   UNL     1      45.853   1.788   8.452  0.00  0.00    +0.000 A 
BRANCH  15  22
ATOM     21  C   UNL     1      47.248   2.548   5.309  0.00  0.00    +0.000 C 
ATOM     22  O   UNL     1      47.280   1.998   6.621  0.00  0.00    +0.000 OA
ENDBRANCH  15  22
ENDBRANCH  14  18
ENDBRANCH  13  14
ENDBRANCH   1  13
TORSDOF 5
ENDMDL
MODEL 7
REMARK VINA RESULT:    -6.262      4.996      6.925
REMARK INTER + INTRA:          -8.910
REMARK INTER:                  -8.390
REMARK INTRA:                  -0.520
REMARK UNBOUND:                -0.818
REMARK  Name = 
REMARK  6 active torsions:
REMARK  status: ('A' for Active; 'I' for Inactive)
REMARK    1  A    between atoms: C_1  and  O_2
REMARK    2  A    between atoms: O_2  and  C_3
REMARK    3  A    between atoms: C_6  and  C_7
REMARK    4  A    between atoms: C_7  and  O_8
REMARK    5  A    between atoms: O_8  and  C_9
REMARK    6  A    between atoms: C_13  and  C_14
REMARK                            x       y       z     vdW  Elec       q    Type
REMARK                         _______ _______ _______ _____ _____    ______ ____
ROOT
ATOM      1  C   UNL     1      47.822   3.677  16.105  0.00  0.00    +0.000 A 
ATOM      2  C   UNL     1      47.089   4.313  17.089  0.00  0.00    +0.000 A 
ATOM      3  C   UNL     1      47.665   4.446  18.347  0.00  0.00    +0.000 A 
ATOM      4  C   UNL     1      48.939   3.929  18.571  0.00  0.00    +0.000 A 
ATOM      5  C   UNL     1      49.610   3.294  17.529  0.00  0.00    +0.000 A 
ATOM      6  N   UNL     1      49.064   3.182  16.299  0.00  0.00    +0.000 NA
ENDROOT
BRANCH   5   7
ATOM      7  C   UNL     1      50.948   2.702  17.678  0.00  0.00    +0.000 A 
ATOM      8  C   UNL     1      52.046   3.430  18.158  0.00  0.00    +0.000 A 
ATOM      9  C   UNL     1      53.304   2.834  18.255  0.00  0.00    +0.000 A 
ATOM     10  C   UNL     1      53.435   1.512  17.874  0.00  0.00    +0.000 A 
ATOM     11  N   UNL     1      52.409   0.759  17.430  0.00  0.00    +0.000 NA
ATOM     12  C   UNL     1      51.199   1.367  17.351  0.00  0.00    +0.000 A 
ENDBRANCH   5   7
BRANCH   1  13
ATOM     13  O   UNL     1      47.226   3.540  14.869  0.00  0.00    +0.000 OA
BRANCH  13  14
ATOM     14  C   UNL     1      46.707   4.783  14.385  0.00  0.00    +0.000 C 
BRANCH  14  18
ATOM     15  C   UNL     1      44.896   4.408  10.474  0.00  0.00    +0.000 A 
ATOM     16  C   UNL     1      44.884   3.325  11.354  0.00  0.00    +0.000 A 
ATOM     17  C   UNL     1      45.478   3.434  12.615  0.00  0.00    +0.000 A 
ATOM     18  C   UNL     1      46.105   4.620  13.009  0.00  0.00    +0.000 A 
ATOM     19  C   UNL     1      46.105   5.708  12.123  0.00  0.00    +0.000 A 
ATOM     20  C   UNL     1      45.508   5.598  10.866  0.00  0.00    +0.000 A 
BRANCH  15  22
ATOM     21  C   UNL     1      44.845   3.475   8.296  0.00  0.00    +0.000 C 
ATOM     22  O   UNL     1      44.341   4.428   9.224  0.00  0.00    +0.000 OA
ENDBRANCH  15  22
ENDBRANCH  14  18
ENDBRANCH  13  14
ENDBRANCH   1  13
TORSDOF 5
ENDMDL
MODEL 8
REMARK VINA RESULT:    -6.228      2.886      6.668
REMARK INTER + INTRA:          -8.867
REMARK INTER:                  -8.208
REMARK INTRA:                  -0.659
REMARK UNBOUND:                -0.818
REMARK  Name = 
REMARK  6 active torsions:
REMARK  status: ('A' for Active; 'I' for Inactive)
REMARK    1  A    between atoms: C_1  and  O_2
REMARK    2  A    between atoms: O_2  and  C_3
REMARK    3  A    between atoms: C_6  and  C_7
REMARK    4  A    between atoms: C_7  and  O_8
REMARK    5  A    between atoms: O_8  and  C_9
REMARK    6  A    between atoms: C_13  and  C_14
REMARK                            x       y       z     vdW  Elec       q    Type
REMARK                         _______ _______ _______ _____ _____    ______ ____
ROOT
ATOM      1  C   UNL     1      45.050   5.772  12.427  0.00  0.00    +0.000 A 
ATOM      2  C   UNL     1      43.775   5.575  12.923  0.00  0.00    +0.000 A 
ATOM      3  C   UNL     1      42.936   4.706  12.237  0.00  0.00    +0.000 A 
ATOM      4  C   UNL     1      43.400   4.081  11.081  0.00  0.00    +0.000 A 
ATOM      5  C   UNL     1      44.696   4.338  10.640  0.00  0.00    +0.000 A 
ATOM      6  N   UNL     1      45.523   5.165  11.316  0.00  0.00    +0.000 NA
ENDROOT
BRANCH   5   7
ATOM      7  C   UNL     1      45.264   3.741   9.422  0.00  0.00    +0.000 A 
ATOM      8  C   UNL     1      45.345   2.356   9.228  0.00  0.00    +0.000 A 
ATOM      9  C   UNL     1      45.918   1.834   8.069  0.00  0.00    +0.000 A 
ATOM     10  C   UNL     1      46.395   2.717   7.118  0.00  0.00    +0.000 A 
ATOM     11  N   UNL     1      46.319   4.057   7.241  0.00  0.00    +0.000 NA
ATOM     12  C   UNL     1      45.753   4.532   8.379  0.00  0.00    +0.000 A 
ENDBRANCH   5   7
BRANCH   1  13
ATOM     13  O   UNL     1      45.861   6.651  13.113  0.00  0.00    +0.000 OA
BRANCH  13  14
ATOM     14  C   UNL     1      47.092   6.041  13.513  0.00  0.00    +0.000 C 
BRANCH  14  18
ATOM     15  C   UNL     1      50.443   8.548  12.415  0.00  0.00    +0.000 A 
ATOM     16  C   UNL     1      49.451   8.259  11.476  0.00  0.00    +0.000 A 
ATOM     17  C   UNL     1      48.372   7.440  11.819  0.00  0.00    +0.000 A 
ATOM     18  C   UNL     1      48.275   6.885  13.099  0.00  0.00    +0.000 A 
ATOM     19  C   UNL     1      49.270   7.188  14.041  0.00  0.00    +0.000 A 
ATOM     20  C   UNL     1      50.345   8.009  13.697  0.00  0.00    +0.000 A 
BRANCH  15  22
ATOM     21  C   UNL     1      52.080   9.329  10.889  0.00  0.00    +0.000 C 
ATOM     22  O   UNL     1      51.537   9.342  12.203  0.00  0.00    +0.000 OA
ENDBRANCH  15  22
ENDBRANCH  14  18
ENDBRANCH  13  14
ENDBRANCH   1  13
TORSDOF 5
ENDMDL
MODEL 9
REMARK VINA RESULT:    -6.026      3.248      5.594
REMARK INTER + INTRA:          -8.605
REMARK INTER:                  -7.911
REMARK INTRA:                  -0.694
REMARK UNBOUND:                -0.818
REMARK  Name = 
REMARK  6 active torsions:
REMARK  status: ('A' for Active; 'I' for Inactive)
REMARK    1  A    between atoms: C_1  and  O_2
REMARK    2  A    between atoms: O_2  and  C_3
REMARK    3  A    between atoms: C_6  and  C_7
REMARK    4  A    between atoms: C_7  and  O_8
REMARK    5  A    between atoms: O_8  and  C_9
REMARK    6  A    between atoms: C_13  and  C_14
REMARK                            x       y       z     vdW  Elec       q    Type
REMARK                         _______ _______ _______ _____ _____    ______ ____
ROOT
ATOM      1  C   UNL     1      48.448   7.178  13.606  0.00  0.00    +0.000 A 
ATOM      2  C   UNL     1      49.235   8.262  13.948  0.00  0.00    +0.000 A 
ATOM      3  C   UNL     1      49.793   8.286  15.220  0.00  0.00    +0.000 A 
ATOM      4  C   UNL     1      49.534   7.236  16.099  0.00  0.00    +0.000 A 
ATOM      5  C   UNL     1      48.724   6.183  15.682  0.00  0.00    +0.000 A 
ATOM      6  N   UNL     1      48.196   6.144  14.439  0.00  0.00    +0.000 NA
ENDROOT
BRANCH   5   7
ATOM      7  C   UNL     1      48.379   5.043  16.546  0.00  0.00    +0.000 A 
ATOM      8  C   UNL     1      49.211   4.606  17.586  0.00  0.00    +0.000 A 
ATOM      9  C   UNL     1      48.857   3.503  18.361  0.00  0.00    +0.000 A 
ATOM     10  C   UNL     1      47.666   2.859  18.081  0.00  0.00    +0.000 A 
ATOM     11  N   UNL     1      46.817   3.252  17.110  0.00  0.00    +0.000 NA
ATOM     12  C   UNL     1      47.189   4.331  16.377  0.00  0.00    +0.000 A 
ENDBRANCH   5   7
BRANCH   1  13
ATOM     13  O   UNL     1      47.889   7.182  12.346  0.00  0.00    +0.000 OA
BRANCH  13  14
ATOM     14  C   UNL     1      46.462   7.276  12.395  0.00  0.00    +0.000 C 
BRANCH  14  18
ATOM     15  C   UNL     1      44.518   3.738  10.840  0.00  0.00    +0.000 A 
ATOM     16  C   UNL     1      44.637   3.919  12.219  0.00  0.00    +0.000 A 
ATOM     17  C   UNL     1      45.274   5.053  12.730  0.00  0.00    +0.000 A 
ATOM     18  C   UNL     1      45.816   6.015  11.870  0.00  0.00    +0.000 A 
ATOM     19  C   UNL     1      45.684   5.832  10.486  0.00  0.00    +0.000 A 
ATOM     20  C   UNL     1      45.044   4.700   9.978  0.00  0.00    +0.000 A 
BRANCH  15  22
ATOM     21  C   UNL     1      44.642   2.053   9.177  0.00  0.00    +0.000 C 
ATOM     22  O   UNL     1      43.909   2.679  10.223  0.00  0.00    +0.000 OA
ENDBRANCH  15  22
ENDBRANCH  14  18
ENDBRANCH  13  14
ENDBRANCH   1  13
TORSDOF 5
ENDMDL
