MODEL 1
REMARK VINA RESULT:    -8.689      0.000      0.000
REMARK INTER + INTRA:         -13.439
REMARK INTER:                 -12.753
REMARK INTRA:                  -0.687
REMARK UNBOUND:                -0.687
REMARK  Name = 
REMARK  9 active torsions:
REMARK  status: ('A' for Active; 'I' for Inactive)
REMARK    1  A    between atoms: C_1  and  C_2
REMARK    2  A    between atoms: C_2  and  N_3
REMARK    3  A    between atoms: C_2  and  C_20
REMARK    4  A    between atoms: N_3  and  C_4
REMARK    5  A    between atoms: C_4  and  C_5
REMARK    6  A    between atoms: C_8  and  C_9
REMARK    7  A    between atoms: C_9  and  O_10
REMARK    8  A    between atoms: O_10  and  C_11
REMARK    9  A    between atoms: C_11  and  C_12
REMARK                            x       y       z     vdW  Elec       q    Type
REMARK                         _______ _______ _______ _____ _____    ______ ____
ROOT
ATOM      1  C   UNL     1      47.881   5.824  14.625  0.00  0.00    +0.000 C 
ENDROOT
BRANCH   1   2
ATOM      2  C   UNL     1      46.821   5.568  13.577  0.00  0.00    +0.000 A 
ATOM      3  C   UNL     1      45.810   4.624  13.818  0.00  0.00    +0.000 A 
ATOM      4  C   UNL     1      44.854   4.345  12.845  0.00  0.00    +0.000 A 
ATOM      5  C   UNL     1      44.881   5.015  11.616  0.00  0.00    +0.000 A 
ATOM      6  C   UNL     1      45.882   5.967  11.377  0.00  0.00    +0.000 A 
ATOM      7  C   UNL     1      46.844   6.241  12.351  0.00  0.00    +0.000 A 
BRANCH   5   8
ATOM      8  C   UNL     1      43.813   4.748  10.587  0.00  0.00    +0.000 C 
BRANCH   8   9
ATOM      9  O   UNL     1      44.381   4.286   9.363  0.00  0.00    +0.000 OA
BRANCH   9  10
ATOM     10  C   UNL     1      44.590   2.869   9.359  0.00  0.00    +0.000 C 
BRANCH  10  11
ATOM     11  C   UNL     1      45.628   2.512   8.325  0.00  0.00    +0.000 A 
ATOM     12  C   UNL     1      46.077   3.479   7.427  0.00  0.00    +0.000 A 
ATOM     13  C   UNL     1      47.049   3.133   6.495  0.00  0.00    +0.000 A 
ATOM     14  C   UNL     1      47.549   1.836   6.486  0.00  0.00    +0.000 A 
ATOM     15  C   UNL     1      47.056   0.939   7.418  0.00  0.00    +0.000 A 
ATOM     16  N   UNL     1      46.118   1.245   8.338  0.00  0.00    +0.000 NA
ENDBRANCH  10  11
ENDBRANCH   9  10
ENDBRANCH   8   9
ENDBRANCH   5   8
ENDBRANCH   1   2
BRANCH   1  17
ATOM     17  N   UNL     1      48.130   4.594  15.370  0.00  0.00    +0.000 NA
ATOM     18  H   UNL     1      49.106   4.334  15.223  0.00  0.00    +0.000 HD
BRANCH  17  20
ATOM     19  C   UNL     1      46.960   3.605  17.351  0.00  0.00    +0.000 C 
ATOM     20  C   UNL     1      47.891   4.696  16.810  0.00  0.00    +0.000 C 
BRANCH  20  21
ATOM     21  C   UNL     1      49.263   4.598  17.452  0.00  0.00    +0.000 A 
ATOM     22  C   UNL     1      49.843   5.611  18.205  0.00  0.00    +0.000 A 
ATOM     23  S   UNL     1      51.381   5.199  18.821  0.00  0.00    +0.000 S 
ATOM     24  C   UNL     1      51.314   3.657  18.107  0.00  0.00    +0.000 A 
ATOM     25  N   UNL     1      52.319   2.758  18.243  0.00  0.00    +0.000 NA
ATOM     26  N   UNL     1      52.212   1.628  17.700  0.00  0.00    +0.000 NA
ATOM     27  N   UNL     1      51.086   1.335  16.981  0.00  0.00    +0.000 N 
ATOM     28  C   UNL     1      50.012   2.173  16.773  0.00  0.00    +0.000 A 
ATOM     29  O   UNL     1      49.040   1.830  16.107  0.00  0.00    +0.000 OA
ATOM     30  C   UNL     1      50.147   3.463  17.407  0.00  0.00    +0.000 A 
ATOM     31  H   UNL     1      51.056   0.414  16.566  0.00  0.00    +0.000 HD
ENDBRANCH  20  21
ENDBRANCH  17  20
ENDBRANCH   1  17
TORSDOF 8
ENDMDL
MODEL 2
REMARK VINA RESULT:    -8.607      2.229      2.834
REMARK INTER + INTRA:         -13.319
REMARK INTER:                 -11.999
REMARK INTRA:                  -1.320
REMARK UNBOUND:                -0.687
REMARK  Name = 
REMARK  9 active torsions:
REMARK  status: ('A' for Active; 'I' for Inactive)
REMARK    1  A    between atoms: C_1  and  C_2
REMARK    2  A    between atoms: C_2  and  N_3
REMARK    3  A    between atoms: C_2  and  C_20
REMARK    4  A    between atoms: N_3  and  C_4
REMARK    5  A    between atoms: C_4  and  C_5
REMARK    6  A    between atoms: C_8  and  C_9
REMARK    7  A    between atoms: C_9  and  O_10
REMARK    8  A    between atoms: O_10  and  C_11
REMARK    9  A    between atoms: C_11  and  C_12
REMARK                            x       y       z     vdW  Elec       q    Type
REMARK                         _______ _______ _______ _____ _____    ______ ____
ROOT
ATOM      1  C   UNL     1      47.256   8.094  12.995  0.00  0.00    +0.000 C 
ENDROOT
BRANCH   1   2
ATOM      2  C   UNL     1      46.285   7.094  12.406  0.00  0.00    +0.000 A 
ATOM      3  C   UNL     1      46.511   6.569  11.124  0.00  0.00    +0.000 A 
ATOM      4  C   UNL     1      45.603   5.683  10.550  0.00  0.00    +0.000 A 
ATOM      5  C   UNL     1      44.457   5.293  11.253  0.00  0.00    +0.000 A 
ATOM      6  C   UNL     1      44.234   5.806  12.538  0.00  0.00    +0.000 A 
ATOM      7  C   UNL     1      45.142   6.699  13.110  0.00  0.00    +0.000 A 
BRANCH   5   8
ATOM      8  C   UNL     1      43.505   4.293  10.649  0.00  0.00    +0.000 C 
BRANCH   8   9
ATOM      9  O   UNL     1      43.994   3.805   9.401  0.00  0.00    +0.000 OA
BRANCH   9  10
ATOM     10  C   UNL     1      44.606   2.515   9.523  0.00  0.00    +0.000 C 
BRANCH  10  11
ATOM     11  C   UNL     1      45.610   2.325   8.414  0.00  0.00    +0.000 A 
ATOM     12  C   UNL     1      45.915   3.384   7.560  0.00  0.00    +0.000 A 
ATOM     13  C   UNL     1      46.859   3.191   6.557  0.00  0.00    +0.000 A 
ATOM     14  C   UNL     1      47.473   1.951   6.434  0.00  0.00    +0.000 A 
ATOM     15  C   UNL     1      47.120   0.954   7.328  0.00  0.00    +0.000 A 
ATOM     16  N   UNL     1      46.214   1.111   8.314  0.00  0.00    +0.000 NA
ENDBRANCH  10  11
ENDBRANCH   9  10
ENDBRANCH   8   9
ENDBRANCH   5   8
ENDBRANCH   1   2
BRANCH   1  17
ATOM     17  N   UNL     1      47.546   7.727  14.377  0.00  0.00    +0.000 NA
ATOM     18  H   UNL     1      46.851   7.038  14.668  0.00  0.00    +0.000 HD
BRANCH  17  20
ATOM     19  C   UNL     1      50.006   8.188  14.476  0.00  0.00    +0.000 C 
ATOM     20  C   UNL     1      48.877   7.156  14.588  0.00  0.00    +0.000 C 
BRANCH  20  21
ATOM     21  C   UNL     1      48.838   6.551  15.979  0.00  0.00    +0.000 A 
ATOM     22  C   UNL     1      49.400   7.145  17.102  0.00  0.00    +0.000 A 
ATOM     23  S   UNL     1      49.172   6.240  18.532  0.00  0.00    +0.000 S 
ATOM     24  C   UNL     1      48.313   5.034  17.695  0.00  0.00    +0.000 A 
ATOM     25  N   UNL     1      47.806   3.945  18.324  0.00  0.00    +0.000 NA
ATOM     26  N   UNL     1      47.171   3.089  17.656  0.00  0.00    +0.000 NA
ATOM     27  N   UNL     1      47.010   3.274  16.311  0.00  0.00    +0.000 N 
ATOM     28  C   UNL     1      47.487   4.335  15.572  0.00  0.00    +0.000 A 
ATOM     29  O   UNL     1      47.301   4.420  14.362  0.00  0.00    +0.000 OA
ATOM     30  C   UNL     1      48.208   5.312  16.352  0.00  0.00    +0.000 A 
ATOM     31  H   UNL     1      46.493   2.553  15.826  0.00  0.00    +0.000 HD
ENDBRANCH  20  21
ENDBRANCH  17  20
ENDBRANCH   1  17
TORSDOF 8
ENDMDL
MODEL 3
REMARK VINA RESULT:    -8.365      2.036      2.694
REMARK INTER + INTRA:         -12.963
REMARK INTER:                 -11.806
REMARK INTRA:                  -1.157
REMARK UNBOUND:                -0.687
REMARK  Name = 
REMARK  9 active torsions:
REMARK  status: ('A' for Active; 'I' for Inactive)
REMARK    1  A    between atoms: C_1  and  C_2
REMARK    2  A    between atoms: C_2  and  N_3
REMARK    3  A    between atoms: C_2  and  C_20
REMARK    4  A    between atoms: N_3  and  C_4
REMARK    5  A    between atoms: C_4  and  C_5
REMARK    6  A    between atoms: C_8  and  C_9
REMARK    7  A    between atoms: C_9  and  O_10
REMARK    8  A    between atoms: O_10  and  C_11
REMARK    9  A    between atoms: C_11  and  C_12
REMARK                            x       y       z     vdW  Elec       q    Type
REMARK                         _______ _______ _______ _____ _____    ______ ____
ROOT
ATOM      1  C   UNL     1      48.133   6.794  13.536  0.00  0.00    +0.000 C 
ENDROOT
BRANCH   1   2
ATOM      2  C   UNL     1      46.972   6.085  12.874  0.00  0.00    +0.000 A 
ATOM      3  C   UNL     1      46.577   6.447  11.577  0.00  0.00    +0.000 A 
ATOM      4  C   UNL     1      45.482   5.835  10.972  0.00  0.00    +0.000 A 
ATOM      5  C   UNL     1      44.767   4.839  11.649  0.00  0.00    +0.000 A 
ATOM      6  C   UNL     1      45.166   4.467  12.940  0.00  0.00    +0.000 A 
ATOM      7  C   UNL     1      46.260   5.085  13.547  0.00  0.00    +0.000 A 
BRANCH   5   8
ATOM      8  C   UNL     1      43.615   4.144  10.970  0.00  0.00    +0.000 C 
BRANCH   8   9
ATOM      9  O   UNL     1      43.973   3.716   9.658  0.00  0.00    +0.000 OA
BRANCH   9  10
ATOM     10  C   UNL     1      44.597   2.426   9.655  0.00  0.00    +0.000 C 
BRANCH  10  11
ATOM     11  C   UNL     1      45.569   2.336   8.506  0.00  0.00    +0.000 A 
ATOM     12  C   UNL     1      45.818   3.456   7.715  0.00  0.00    +0.000 A 
ATOM     13  C   UNL     1      46.734   3.354   6.672  0.00  0.00    +0.000 A 
ATOM     14  C   UNL     1      47.376   2.142   6.449  0.00  0.00    +0.000 A 
ATOM     15  C   UNL     1      47.078   1.081   7.286  0.00  0.00    +0.000 A 
ATOM     16  N   UNL     1      46.200   1.148   8.309  0.00  0.00    +0.000 NA
ENDBRANCH  10  11
ENDBRANCH   9  10
ENDBRANCH   8   9
ENDBRANCH   5   8
ENDBRANCH   1   2
BRANCH   1  17
ATOM     17  N   UNL     1      48.445   6.132  14.799  0.00  0.00    +0.000 NA
ATOM     18  H   UNL     1      48.706   5.168  14.588  0.00  0.00    +0.000 HD
BRANCH  17  20
ATOM     19  C   UNL     1      49.950   8.122  15.015  0.00  0.00    +0.000 C 
ATOM     20  C   UNL     1      49.534   6.751  15.556  0.00  0.00    +0.000 C 
BRANCH  20  21
ATOM     21  C   UNL     1      49.015   6.869  16.978  0.00  0.00    +0.000 A 
ATOM     22  C   UNL     1      48.483   8.033  17.518  0.00  0.00    +0.000 A 
ATOM     23  S   UNL     1      47.958   7.852  19.132  0.00  0.00    +0.000 S 
ATOM     24  C   UNL     1      48.420   6.216  19.156  0.00  0.00    +0.000 A 
ATOM     25  N   UNL     1      48.244   5.435  20.249  0.00  0.00    +0.000 NA
ATOM     26  N   UNL     1      48.596   4.228  20.207  0.00  0.00    +0.000 NA
ATOM     27  N   UNL     1      49.154   3.733  19.061  0.00  0.00    +0.000 N 
ATOM     28  C   UNL     1      49.385   4.436  17.899  0.00  0.00    +0.000 A 
ATOM     29  O   UNL     1      49.897   3.913  16.914  0.00  0.00    +0.000 OA
ATOM     30  C   UNL     1      48.970   5.817  17.960  0.00  0.00    +0.000 A 
ATOM     31  H   UNL     1      49.420   2.758  19.086  0.00  0.00    +0.000 HD
ENDBRANCH  20  21
ENDBRANCH  17  20
ENDBRANCH   1  17
TORSDOF 8
ENDMDL
MODEL 4
REMARK VINA RESULT:    -7.521      1.672      2.210
REMARK INTER + INTRA:         -11.724
REMARK INTER:                 -10.896
REMARK INTRA:                  -0.828
REMARK UNBOUND:                -0.687
REMARK  Name = 
REMARK  9 active torsions:
REMARK  status: ('A' for Active; 'I' for Inactive)
REMARK    1  A    between atoms: C_1  and  C_2
REMARK    2  A    between atoms: C_2  and  N_3
REMARK    3  A    between atoms: C_2  and  C_20
REMARK    4  A    between atoms: N_3  and  C_4
REMARK    5  A    between atoms: C_4  and  C_5
REMARK    6  A    between atoms: C_8  and  C_9
REMARK    7  A    between atoms: C_9  and  O_10
REMARK    8  A    between atoms: O_10  and  C_11
REMARK    9  A    between atoms: C_11  and  C_12
REMARK                            x       y       z     vdW  Elec       q    Type
REMARK                         _______ _______ _______ _____ _____    ______ ____
ROOT
ATOM      1  C   UNL     1      48.746   7.024  14.529  0.00  0.00    +0.000 C 
ENDROOT
BRANCH   1   2
ATOM      2  C   UNL     1      47.704   6.472  13.582  0.00  0.00    +0.000 A 
ATOM      3  C   UNL     1      47.026   5.285  13.899  0.00  0.00    +0.000 A 
ATOM      4  C   UNL     1      46.097   4.741  13.015  0.00  0.00    +0.000 A 
ATOM      5  C   UNL     1      45.818   5.381  11.802  0.00  0.00    +0.000 A 
ATOM      6  C   UNL     1      46.483   6.573  11.488  0.00  0.00    +0.000 A 
ATOM      7  C   UNL     1      47.419   7.115  12.371  0.00  0.00    +0.000 A 
BRANCH   5   8
ATOM      8  C   UNL     1      44.773   4.816  10.874  0.00  0.00    +0.000 C 
BRANCH   8   9
ATOM      9  O   UNL     1      45.201   4.882   9.515  0.00  0.00    +0.000 OA
BRANCH   9  10
ATOM     10  C   UNL     1      44.570   3.891   8.695  0.00  0.00    +0.000 C 
BRANCH  10  11
ATOM     11  C   UNL     1      45.621   3.096   7.962  0.00  0.00    +0.000 A 
ATOM     12  C   UNL     1      45.917   1.795   8.366  0.00  0.00    +0.000 A 
ATOM     13  C   UNL     1      46.876   1.074   7.662  0.00  0.00    +0.000 A 
ATOM     14  C   UNL     1      47.509   1.666   6.577  0.00  0.00    +0.000 A 
ATOM     15  C   UNL     1      47.151   2.959   6.237  0.00  0.00    +0.000 A 
ATOM     16  N   UNL     1      46.222   3.683   6.894  0.00  0.00    +0.000 NA
ENDBRANCH  10  11
ENDBRANCH   9  10
ENDBRANCH   8   9
ENDBRANCH   5   8
ENDBRANCH   1   2
BRANCH   1  17
ATOM     17  N   UNL     1      48.249   6.932  15.898  0.00  0.00    +0.000 NA
ATOM     18  H   UNL     1      47.534   6.204  15.921  0.00  0.00    +0.000 HD
BRANCH  17  20
ATOM     19  C   UNL     1      49.061   7.318  18.236  0.00  0.00    +0.000 C 
ATOM     20  C   UNL     1      49.270   6.606  16.895  0.00  0.00    +0.000 C 
BRANCH  20  21
ATOM     21  C   UNL     1      49.195   5.100  17.069  0.00  0.00    +0.000 A 
ATOM     22  C   UNL     1      48.020   4.365  16.981  0.00  0.00    +0.000 A 
ATOM     23  S   UNL     1      48.254   2.687  17.194  0.00  0.00    +0.000 S 
ATOM     24  C   UNL     1      49.929   2.893  17.403  0.00  0.00    +0.000 A 
ATOM     25  N   UNL     1      50.761   1.845  17.620  0.00  0.00    +0.000 NA
ATOM     26  N   UNL     1      51.993   2.055  17.758  0.00  0.00    +0.000 NA
ATOM     27  N   UNL     1      52.465   3.337  17.691  0.00  0.00    +0.000 N 
ATOM     28  C   UNL     1      51.712   4.472  17.482  0.00  0.00    +0.000 A 
ATOM     29  O   UNL     1      52.219   5.589  17.440  0.00  0.00    +0.000 OA
ATOM     30  C   UNL     1      50.302   4.214  17.319  0.00  0.00    +0.000 A 
ATOM     31  H   UNL     1      53.463   3.445  17.811  0.00  0.00    +0.000 HD
ENDBRANCH  20  21
ENDBRANCH  17  20
ENDBRANCH   1  17
TORSDOF 8
ENDMDL
MODEL 5
REMARK VINA RESULT:    -7.341      1.930      2.511
REMARK INTER + INTRA:         -11.461
REMARK INTER:                 -10.629
REMARK INTRA:                  -0.832
REMARK UNBOUND:                -0.687
REMARK  Name = 
REMARK  9 active torsions:
REMARK  status: ('A' for Active; 'I' for Inactive)
REMARK    1  A    between atoms: C_1  and  C_2
REMARK    2  A    between atoms: C_2  and  N_3
REMARK    3  A    between atoms: C_2  and  C_20
REMARK    4  A    between atoms: N_3  and  C_4
REMARK    5  A    between atoms: C_4  and  C_5
REMARK    6  A    between atoms: C_8  and  C_9
REMARK    7  A    between atoms: C_9  and  O_10
REMARK    8  A    between atoms: O_10  and  C_11
REMARK    9  A    between atoms: C_11  and  C_12
REMARK                            x       y       z     vdW  Elec       q    Type
REMARK                         _______ _______ _______ _____ _____    ______ ____
ROOT
ATOM      1  C   UNL     1      48.157   7.373  12.959  0.00  0.00    +0.000 C 
ENDROOT
BRANCH   1   2
ATOM      2  C   UNL     1      47.100   6.381  12.529  0.00  0.00    +0.000 A 
ATOM      3  C   UNL     1      46.778   5.295  13.360  0.00  0.00    +0.000 A 
ATOM      4  C   UNL     1      45.840   4.348  12.958  0.00  0.00    +0.000 A 
ATOM      5  C   UNL     1      45.194   4.475  11.722  0.00  0.00    +0.000 A 
ATOM      6  C   UNL     1      45.503   5.564  10.896  0.00  0.00    +0.000 A 
ATOM      7  C   UNL     1      46.449   6.510  11.297  0.00  0.00    +0.000 A 
BRANCH   5   8
ATOM      8  C   UNL     1      44.141   3.476  11.315  0.00  0.00    +0.000 C 
BRANCH   8   9
ATOM      9  O   UNL     1      44.073   3.349   9.896  0.00  0.00    +0.000 OA
BRANCH   9  10
ATOM     10  C   UNL     1      44.527   2.068   9.441  0.00  0.00    +0.000 C 
BRANCH  10  11
ATOM     11  C   UNL     1      45.637   2.251   8.438  0.00  0.00    +0.000 A 
ATOM     12  C   UNL     1      46.409   1.159   8.046  0.00  0.00    +0.000 A 
ATOM     13  C   UNL     1      47.415   1.348   7.104  0.00  0.00    +0.000 A 
ATOM     14  C   UNL     1      47.622   2.618   6.579  0.00  0.00    +0.000 A 
ATOM     15  C   UNL     1      46.806   3.647   7.015  0.00  0.00    +0.000 A 
ATOM     16  N   UNL     1      45.819   3.496   7.922  0.00  0.00    +0.000 NA
ENDBRANCH  10  11
ENDBRANCH   9  10
ENDBRANCH   8   9
ENDBRANCH   5   8
ENDBRANCH   1   2
BRANCH   1  17
ATOM     17  N   UNL     1      48.958   6.792  14.031  0.00  0.00    +0.000 NA
ATOM     18  H   UNL     1      49.689   6.225  13.599  0.00  0.00    +0.000 HD
BRANCH  17  20
ATOM     19  C   UNL     1      48.601   8.501  15.826  0.00  0.00    +0.000 C 
ATOM     20  C   UNL     1      49.593   7.770  14.915  0.00  0.00    +0.000 C 
BRANCH  20  21
ATOM     21  C   UNL     1      50.594   6.977  15.737  0.00  0.00    +0.000 A 
ATOM     22  C   UNL     1      51.959   7.232  15.758  0.00  0.00    +0.000 A 
ATOM     23  S   UNL     1      52.825   6.191  16.798  0.00  0.00    +0.000 S 
ATOM     24  C   UNL     1      51.404   5.375  17.253  0.00  0.00    +0.000 A 
ATOM     25  N   UNL     1      51.416   4.353  18.143  0.00  0.00    +0.000 NA
ATOM     26  N   UNL     1      50.333   3.791  18.450  0.00  0.00    +0.000 NA
ATOM     27  N   UNL     1      49.169   4.221  17.875  0.00  0.00    +0.000 N 
ATOM     28  C   UNL     1      49.043   5.242  16.957  0.00  0.00    +0.000 A 
ATOM     29  O   UNL     1      47.957   5.561  16.486  0.00  0.00    +0.000 OA
ATOM     30  C   UNL     1      50.293   5.881  16.620  0.00  0.00    +0.000 A 
ATOM     31  H   UNL     1      48.331   3.732  18.157  0.00  0.00    +0.000 HD
ENDBRANCH  20  21
ENDBRANCH  17  20
ENDBRANCH   1  17
TORSDOF 8
ENDMDL
MODEL 6
REMARK VINA RESULT:    -7.016      2.648      4.112
REMARK INTER + INTRA:         -10.984
REMARK INTER:                  -9.704
REMARK INTRA:                  -1.280
REMARK UNBOUND:                -0.687
REMARK  Name = 
REMARK  9 active torsions:
REMARK  status: ('A' for Active; 'I' for Inactive)
REMARK    1  A    between atoms: C_1  and  C_2
REMARK    2  A    between atoms: C_2  and  N_3
REMARK    3  A    between atoms: C_2  and  C_20
REMARK    4  A    between atoms: N_3  and  C_4
REMARK    5  A    between atoms: C_4  and  C_5
REMARK    6  A    between atoms: C_8  and  C_9
REMARK    7  A    between atoms: C_9  and  O_10
REMARK    8  A    between atoms: O_10  and  C_11
REMARK    9  A    between atoms: C_11  and  C_12
REMARK                            x       y       z     vdW  Elec       q    Type
REMARK                         _______ _______ _______ _____ _____    ______ ____
ROOT
ATOM      1  C   UNL     1      49.170   7.693  17.513  0.00  0.00    +0.000 C 
ENDROOT
BRANCH   1   2
ATOM      2  C   UNL     1      48.715   7.725  16.071  0.00  0.00    +0.000 A 
ATOM      3  C   UNL     1      48.273   8.930  15.502  0.00  0.00    +0.000 A 
ATOM      4  C   UNL     1      47.809   8.966  14.189  0.00  0.00    +0.000 A 
ATOM      5  C   UNL     1      47.790   7.800  13.415  0.00  0.00    +0.000 A 
ATOM      6  C   UNL     1      48.243   6.598  13.975  0.00  0.00    +0.000 A 
ATOM      7  C   UNL     1      48.702   6.561  15.293  0.00  0.00    +0.000 A 
BRANCH   5   8
ATOM      8  C   UNL     1      47.337   7.855  11.979  0.00  0.00    +0.000 C 
BRANCH   8   9
ATOM      9  O   UNL     1      46.768   6.613  11.570  0.00  0.00    +0.000 OA
BRANCH   9  10
ATOM     10  C   UNL     1      45.376   6.728  11.253  0.00  0.00    +0.000 C 
BRANCH  10  11
ATOM     11  C   UNL     1      44.693   5.403  11.481  0.00  0.00    +0.000 A 
ATOM     12  C   UNL     1      44.092   5.132  12.710  0.00  0.00    +0.000 A 
ATOM     13  C   UNL     1      43.451   3.911  12.890  0.00  0.00    +0.000 A 
ATOM     14  C   UNL     1      43.425   2.997  11.844  0.00  0.00    +0.000 A 
ATOM     15  C   UNL     1      44.038   3.348  10.654  0.00  0.00    +0.000 A 
ATOM     16  N   UNL     1      44.663   4.525  10.445  0.00  0.00    +0.000 NA
ENDBRANCH  10  11
ENDBRANCH   9  10
ENDBRANCH   8   9
ENDBRANCH   5   8
ENDBRANCH   1   2
BRANCH   1  17
ATOM     17  N   UNL     1      48.342   6.750  18.258  0.00  0.00    +0.000 NA
ATOM     18  H   UNL     1      47.996   6.052  17.599  0.00  0.00    +0.000 HD
BRANCH  17  20
ATOM     19  C   UNL     1      48.087   5.464  20.392  0.00  0.00    +0.000 C 
ATOM     20  C   UNL     1      49.036   6.057  19.344  0.00  0.00    +0.000 C 
BRANCH  20  21
ATOM     21  C   UNL     1      49.843   4.963  18.669  0.00  0.00    +0.000 A 
ATOM     22  C   UNL     1      51.208   4.782  18.846  0.00  0.00    +0.000 A 
ATOM     23  S   UNL     1      51.833   3.451  17.979  0.00  0.00    +0.000 S 
ATOM     24  C   UNL     1      50.299   3.074  17.347  0.00  0.00    +0.000 A 
ATOM     25  N   UNL     1      50.102   2.021  16.517  0.00  0.00    +0.000 NA
ATOM     26  N   UNL     1      48.944   1.784  16.088  0.00  0.00    +0.000 NA
ATOM     27  N   UNL     1      47.911   2.597  16.464  0.00  0.00    +0.000 N 
ATOM     28  C   UNL     1      47.999   3.694  17.293  0.00  0.00    +0.000 A 
ATOM     29  O   UNL     1      47.018   4.374  17.577  0.00  0.00    +0.000 OA
ATOM     30  C   UNL     1      49.332   3.950  17.783  0.00  0.00    +0.000 A 
ATOM     31  H   UNL     1      47.004   2.360  16.087  0.00  0.00    +0.000 HD
ENDBRANCH  20  21
ENDBRANCH  17  20
ENDBRANCH   1  17
TORSDOF 8
ENDMDL
MODEL 7
REMARK VINA RESULT:    -6.810      3.996      8.882
REMARK INTER + INTRA:         -10.682
REMARK INTER:                  -8.928
REMARK INTRA:                  -1.754
REMARK UNBOUND:                -0.687
REMARK  Name = 
REMARK  9 active torsions:
REMARK  status: ('A' for Active; 'I' for Inactive)
REMARK    1  A    between atoms: C_1  and  C_2
REMARK    2  A    between atoms: C_2  and  N_3
REMARK    3  A    between atoms: C_2  and  C_20
REMARK    4  A    between atoms: N_3  and  C_4
REMARK    5  A    between atoms: C_4  and  C_5
REMARK    6  A    between atoms: C_8  and  C_9
REMARK    7  A    between atoms: C_9  and  O_10
REMARK    8  A    between atoms: O_10  and  C_11
REMARK    9  A    between atoms: C_11  and  C_12
REMARK                            x       y       z     vdW  Elec       q    Type
REMARK                         _______ _______ _______ _____ _____    ______ ____
ROOT
ATOM      1  C   UNL     1      48.243   9.432  14.459  0.00  0.00    +0.000 C 
ENDROOT
BRANCH   1   2
ATOM      2  C   UNL     1      48.571   8.823  15.804  0.00  0.00    +0.000 A 
ATOM      3  C   UNL     1      47.955   9.314  16.966  0.00  0.00    +0.000 A 
ATOM      4  C   UNL     1      48.281   8.794  18.216  0.00  0.00    +0.000 A 
ATOM      5  C   UNL     1      49.220   7.762  18.328  0.00  0.00    +0.000 A 
ATOM      6  C   UNL     1      49.829   7.260  17.169  0.00  0.00    +0.000 A 
ATOM      7  C   UNL     1      49.506   7.787  15.917  0.00  0.00    +0.000 A 
BRANCH   5   8
ATOM      8  C   UNL     1      49.530   7.167  19.677  0.00  0.00    +0.000 C 
BRANCH   8   9
ATOM      9  O   UNL     1      48.529   6.231  20.070  0.00  0.00    +0.000 OA
BRANCH   9  10
ATOM     10  C   UNL     1      49.004   4.880  20.044  0.00  0.00    +0.000 C 
BRANCH  10  11
ATOM     11  C   UNL     1      48.609   4.229  18.742  0.00  0.00    +0.000 A 
ATOM     12  C   UNL     1      47.420   4.595  18.113  0.00  0.00    +0.000 A 
ATOM     13  C   UNL     1      47.086   3.995  16.903  0.00  0.00    +0.000 A 
ATOM     14  C   UNL     1      47.945   3.051  16.354  0.00  0.00    +0.000 A 
ATOM     15  C   UNL     1      49.110   2.750  17.039  0.00  0.00    +0.000 A 
ATOM     16  N   UNL     1      49.465   3.318  18.210  0.00  0.00    +0.000 NA
ENDBRANCH  10  11
ENDBRANCH   9  10
ENDBRANCH   8   9
ENDBRANCH   5   8
ENDBRANCH   1   2
BRANCH   1  17
ATOM     17  N   UNL     1      46.979   8.884  13.977  0.00  0.00    +0.000 NA
ATOM     18  H   UNL     1      46.301   9.646  13.948  0.00  0.00    +0.000 HD
BRANCH  17  20
ATOM     19  C   UNL     1      48.481   8.036  12.161  0.00  0.00    +0.000 C 
ATOM     20  C   UNL     1      47.047   8.276  12.648  0.00  0.00    +0.000 C 
BRANCH  20  21
ATOM     21  C   UNL     1      46.294   6.963  12.768  0.00  0.00    +0.000 A 
ATOM     22  C   UNL     1      46.786   5.841  13.423  0.00  0.00    +0.000 A 
ATOM     23  S   UNL     1      45.700   4.524  13.417  0.00  0.00    +0.000 S 
ATOM     24  C   UNL     1      44.541   5.414  12.547  0.00  0.00    +0.000 A 
ATOM     25  N   UNL     1      43.341   4.887  12.201  0.00  0.00    +0.000 NA
ATOM     26  N   UNL     1      42.519   5.594  11.565  0.00  0.00    +0.000 NA
ATOM     27  N   UNL     1      42.856   6.877  11.232  0.00  0.00    +0.000 N 
ATOM     28  C   UNL     1      44.045   7.508  11.524  0.00  0.00    +0.000 A 
ATOM     29  O   UNL     1      44.268   8.665  11.182  0.00  0.00    +0.000 OA
ATOM     30  C   UNL     1      44.976   6.687  12.260  0.00  0.00    +0.000 A 
ATOM     31  H   UNL     1      42.157   7.397  10.719  0.00  0.00    +0.000 HD
ENDBRANCH  20  21
ENDBRANCH  17  20
ENDBRANCH   1  17
TORSDOF 8
ENDMDL
MODEL 8
REMARK VINA RESULT:    -6.763      3.226      4.429
REMARK INTER + INTRA:         -10.612
REMARK INTER:                  -9.134
REMARK INTRA:                  -1.479
REMARK UNBOUND:                -0.687
REMARK  Name = 
REMARK  9 active torsions:
REMARK  status: ('A' for Active; 'I' for Inactive)
REMARK    1  A    between atoms: C_1  and  C_2
REMARK    2  A    between atoms: C_2  and  N_3
REMARK    3  A    between atoms: C_2  and  C_20
REMARK    4  A    between atoms: N_3  and  C_4
REMARK    5  A    between atoms: C_4  and  C_5
REMARK    6  A    between atoms: C_8  and  C_9
REMARK    7  A    between atoms: C_9  and  O_10
REMARK    8  A    between atoms: O_10  and  C_11
REMARK    9  A    between atoms: C_11  and  C_12
REMARK                            x       y       z     vdW  Elec       q    Type
REMARK                         _______ _______ _______ _____ _____    ______ ____
ROOT
ATOM      1  C   UNL     1      49.691   7.706  17.704  0.00  0.00    +0.000 C 
ENDROOT
BRANCH   1   2
ATOM      2  C   UNL     1      49.097   7.844  16.321  0.00  0.00    +0.000 A 
ATOM      3  C   UNL     1      49.037   6.730  15.469  0.00  0.00    +0.000 A 
ATOM      4  C   UNL     1      48.534   6.851  14.176  0.00  0.00    +0.000 A 
ATOM      5  C   UNL     1      48.069   8.088  13.713  0.00  0.00    +0.000 A 
ATOM      6  C   UNL     1      48.116   9.200  14.565  0.00  0.00    +0.000 A 
ATOM      7  C   UNL     1      48.626   9.078  15.859  0.00  0.00    +0.000 A 
BRANCH   5   8
ATOM      8  C   UNL     1      47.478   8.203  12.332  0.00  0.00    +0.000 C 
BRANCH   8   9
ATOM      9  O   UNL     1      46.805   7.002  11.958  0.00  0.00    +0.000 OA
BRANCH   9  10
ATOM     10  C   UNL     1      45.400   7.055  12.236  0.00  0.00    +0.000 C 
BRANCH  10  11
ATOM     11  C   UNL     1      44.798   5.683  12.062  0.00  0.00    +0.000 A 
ATOM     12  C   UNL     1      45.523   4.552  12.432  0.00  0.00    +0.000 A 
ATOM     13  C   UNL     1      44.939   3.298  12.281  0.00  0.00    +0.000 A 
ATOM     14  C   UNL     1      43.651   3.208  11.768  0.00  0.00    +0.000 A 
ATOM     15  C   UNL     1      42.997   4.380  11.432  0.00  0.00    +0.000 A 
ATOM     16  N   UNL     1      43.532   5.610  11.572  0.00  0.00    +0.000 NA
ENDBRANCH  10  11
ENDBRANCH   9  10
ENDBRANCH   8   9
ENDBRANCH   5   8
ENDBRANCH   1   2
BRANCH   1  17
ATOM     17  N   UNL     1      48.656   7.260  18.631  0.00  0.00    +0.000 NA
ATOM     18  H   UNL     1      47.800   7.117  18.095  0.00  0.00    +0.000 HD
BRANCH  17  20
ATOM     19  C   UNL     1      48.268   5.900  20.698  0.00  0.00    +0.000 C 
ATOM     20  C   UNL     1      48.969   6.018  19.340  0.00  0.00    +0.000 C 
BRANCH  20  21
ATOM     21  C   UNL     1      48.530   4.903  18.409  0.00  0.00    +0.000 A 
ATOM     22  C   UNL     1      47.230   4.744  17.945  0.00  0.00    +0.000 A 
ATOM     23  S   UNL     1      47.046   3.414  16.890  0.00  0.00    +0.000 S 
ATOM     24  C   UNL     1      48.695   3.017  17.017  0.00  0.00    +0.000 A 
ATOM     25  N   UNL     1      49.235   1.968  16.351  0.00  0.00    +0.000 NA
ATOM     26  N   UNL     1      50.463   1.726  16.475  0.00  0.00    +0.000 NA
ATOM     27  N   UNL     1      51.224   2.523  17.283  0.00  0.00    +0.000 N 
ATOM     28  C   UNL     1      50.780   3.607  18.010  0.00  0.00    +0.000 A 
ATOM     29  O   UNL     1      51.533   4.268  18.718  0.00  0.00    +0.000 OA
ATOM     30  C   UNL     1      49.370   3.876  17.853  0.00  0.00    +0.000 A 
ATOM     31  H   UNL     1      52.204   2.280  17.347  0.00  0.00    +0.000 HD
ENDBRANCH  20  21
ENDBRANCH  17  20
ENDBRANCH   1  17
TORSDOF 8
ENDMDL
MODEL 9
REMARK VINA RESULT:    -6.761      3.911      8.424
REMARK INTER + INTRA:         -10.609
REMARK INTER:                  -8.881
REMARK INTRA:                  -1.727
REMARK UNBOUND:                -0.687
REMARK  Name = 
REMARK  9 active torsions:
REMARK  status: ('A' for Active; 'I' for Inactive)
REMARK    1  A    between atoms: C_1  and  C_2
REMARK    2  A    between atoms: C_2  and  N_3
REMARK    3  A    between atoms: C_2  and  C_20
REMARK    4  A    between atoms: N_3  and  C_4
REMARK    5  A    between atoms: C_4  and  C_5
REMARK    6  A    between atoms: C_8  and  C_9
REMARK    7  A    between atoms: C_9  and  O_10
REMARK    8  A    between atoms: O_10  and  C_11
REMARK    9  A    between atoms: C_11  and  C_12
REMARK                            x       y       z     vdW  Elec       q    Type
REMARK                         _______ _______ _______ _____ _____    ______ ____
ROOT
ATOM      1  C   UNL     1      48.060   8.938  14.550  0.00  0.00    +0.000 C 
ENDROOT
BRANCH   1   2
ATOM      2  C   UNL     1      48.963   8.334  15.603  0.00  0.00    +0.000 A 
ATOM      3  C   UNL     1      48.851   8.744  16.941  0.00  0.00    +0.000 A 
ATOM      4  C   UNL     1      49.705   8.231  17.913  0.00  0.00    +0.000 A 
ATOM      5  C   UNL     1      50.680   7.286  17.569  0.00  0.00    +0.000 A 
ATOM      6  C   UNL     1      50.787   6.865  16.237  0.00  0.00    +0.000 A 
ATOM      7  C   UNL     1      49.934   7.385  15.261  0.00  0.00    +0.000 A 
BRANCH   5   8
ATOM      8  C   UNL     1      51.567   6.695  18.635  0.00  0.00    +0.000 C 
BRANCH   8   9
ATOM      9  O   UNL     1      51.498   5.271  18.631  0.00  0.00    +0.000 OA
BRANCH   9  10
ATOM     10  C   UNL     1      50.383   4.777  19.383  0.00  0.00    +0.000 C 
BRANCH  10  11
ATOM     11  C   UNL     1      49.337   4.235  18.442  0.00  0.00    +0.000 A 
ATOM     12  C   UNL     1      48.114   4.890  18.307  0.00  0.00    +0.000 A 
ATOM     13  C   UNL     1      47.173   4.383  17.417  0.00  0.00    +0.000 A 
ATOM     14  C   UNL     1      47.475   3.240  16.688  0.00  0.00    +0.000 A 
ATOM     15  C   UNL     1      48.715   2.654  16.875  0.00  0.00    +0.000 A 
ATOM     16  N   UNL     1      49.652   3.124  17.724  0.00  0.00    +0.000 NA
ENDBRANCH  10  11
ENDBRANCH   9  10
ENDBRANCH   8   9
ENDBRANCH   5   8
ENDBRANCH   1   2
BRANCH   1  17
ATOM     17  N   UNL     1      47.200   7.896  13.997  0.00  0.00    +0.000 NA
ATOM     18  H   UNL     1      46.287   7.978  14.445  0.00  0.00    +0.000 HD
BRANCH  17  20
ATOM     19  C   UNL     1      48.268   7.591  11.752  0.00  0.00    +0.000 C 
ATOM     20  C   UNL     1      47.013   7.968  12.548  0.00  0.00    +0.000 C 
BRANCH  20  21
ATOM     21  C   UNL     1      45.876   7.009  12.243  0.00  0.00    +0.000 A 
ATOM     22  C   UNL     1      44.713   7.369  11.574  0.00  0.00    +0.000 A 
ATOM     23  S   UNL     1      43.628   6.070  11.354  0.00  0.00    +0.000 S 
ATOM     24  C   UNL     1      44.681   4.988  12.139  0.00  0.00    +0.000 A 
ATOM     25  N   UNL     1      44.377   3.677  12.297  0.00  0.00    +0.000 NA
ATOM     26  N   UNL     1      45.198   2.921  12.878  0.00  0.00    +0.000 NA
ATOM     27  N   UNL     1      46.375   3.440  13.341  0.00  0.00    +0.000 N 
ATOM     28  C   UNL     1      46.781   4.753  13.240  0.00  0.00    +0.000 A 
ATOM     29  O   UNL     1      47.856   5.137  13.689  0.00  0.00    +0.000 OA
ATOM     30  C   UNL     1      45.832   5.607  12.566  0.00  0.00    +0.000 A 
ATOM     31  H   UNL     1      46.994   2.787  13.800  0.00  0.00    +0.000 HD
ENDBRANCH  20  21
ENDBRANCH  17  20
ENDBRANCH   1  17
TORSDOF 8
ENDMDL
