MODEL 1
REMARK VINA RESULT:    -8.339      0.000      0.000
REMARK INTER + INTRA:          -9.931
REMARK INTER:                 -10.289
REMARK INTRA:                   0.358
REMARK UNBOUND:                 0.358
REMARK  Name = 
REMARK  4 active torsions:
REMARK  status: ('A' for Active; 'I' for Inactive)
REMARK    1  A    between atoms: C_2  and  C_3
REMARK    2  A    between atoms: C_6  and  C_7
REMARK    3  A    between atoms: C_7  and  N_8
REMARK    4  A    between atoms: C_12  and  C_13
REMARK                            x       y       z     vdW  Elec       q    Type
REMARK                         _______ _______ _______ _____ _____    ______ ____
ROOT
ATOM      1  N   UNL     1      44.584   5.229   9.895  0.00  0.00    +0.000 N 
ATOM      2  C   UNL     1      45.281   4.279   9.152  0.00  0.00    +0.000 A 
ATOM      3  N   UNL     1      45.220   2.962   9.401  0.00  0.00    +0.000 NA
ATOM      4  C   UNL     1      45.915   2.148   8.563  0.00  0.00    +0.000 A 
ATOM      5  C   UNL     1      46.655   2.602   7.489  0.00  0.00    +0.000 A 
ATOM      6  C   UNL     1      46.669   3.964   7.337  0.00  0.00    +0.000 A 
ATOM      7  N   UNL     1      45.996   4.811   8.144  0.00  0.00    +0.000 NA
ATOM      8  H   UNL     1      44.977   6.127   9.635  0.00  0.00    +0.000 HD
ENDROOT
BRANCH   5   9
ATOM      9  C   UNL     1      47.401   1.678   6.623  0.00  0.00    +0.000 C 
ATOM     10  N   UNL     1      48.381   2.198   5.820  0.00  0.00    +0.000 N 
ATOM     11  O   UNL     1      47.144   0.482   6.615  0.00  0.00    +0.000 OA
ATOM     12  H   UNL     1      48.546   3.183   5.669  0.00  0.00    +0.000 HD
ATOM     13  H   UNL     1      48.842   1.551   5.190  0.00  0.00    +0.000 HD
ENDBRANCH   5   9
BRANCH   1  14
ATOM     14  C   UNL     1      44.054   5.033  11.241  0.00  0.00    +0.000 C 
ATOM     15  C   UNL     1      42.666   5.499  11.631  0.00  0.00    +0.000 C 
ATOM     16  C   UNL     1      42.877   4.054  11.329  0.00  0.00    +0.000 C 
BRANCH  14  20
ATOM     17  C   UNL     1      46.926   4.739  14.358  0.00  0.00    +0.000 A 
ATOM     18  N   UNL     1      46.611   5.973  13.929  0.00  0.00    +0.000 NA
ATOM     19  C   UNL     1      45.718   6.032  12.912  0.00  0.00    +0.000 A 
ATOM     20  C   UNL     1      45.112   4.934  12.324  0.00  0.00    +0.000 A 
ATOM     21  C   UNL     1      45.558   3.726  12.839  0.00  0.00    +0.000 A 
ATOM     22  N   UNL     1      46.445   3.587  13.851  0.00  0.00    +0.000 NA
BRANCH  17  24
ATOM     23  N   UNL     1      48.552   4.557  16.385  0.00  0.00    +0.000 NA
ATOM     24  C   UNL     1      47.821   4.634  15.484  0.00  0.00    +0.000 C 
ENDBRANCH  17  24
ENDBRANCH  14  20
ENDBRANCH   1  14
TORSDOF 4
ENDMDL
MODEL 2
REMARK VINA RESULT:    -7.503      3.134      6.852
REMARK INTER + INTRA:          -8.900
REMARK INTER:                  -8.810
REMARK INTRA:                  -0.089
REMARK UNBOUND:                 0.358
REMARK  Name = 
REMARK  4 active torsions:
REMARK  status: ('A' for Active; 'I' for Inactive)
REMARK    1  A    between atoms: C_2  and  C_3
REMARK    2  A    between atoms: C_6  and  C_7
REMARK    3  A    between atoms: C_7  and  N_8
REMARK    4  A    between atoms: C_12  and  C_13
REMARK                            x       y       z     vdW  Elec       q    Type
REMARK                         _______ _______ _______ _____ _____    ______ ____
ROOT
ATOM      1  N   UNL     1      44.467   5.856  10.940  0.00  0.00    +0.000 N 
ATOM      2  C   UNL     1      45.350   6.554  11.760  0.00  0.00    +0.000 A 
ATOM      3  N   UNL     1      46.481   6.020  12.246  0.00  0.00    +0.000 NA
ATOM      4  C   UNL     1      47.270   6.836  12.994  0.00  0.00    +0.000 A 
ATOM      5  C   UNL     1      46.974   8.157  13.263  0.00  0.00    +0.000 A 
ATOM      6  C   UNL     1      45.786   8.597  12.739  0.00  0.00    +0.000 A 
ATOM      7  N   UNL     1      44.970   7.823  11.992  0.00  0.00    +0.000 NA
ATOM      8  H   UNL     1      43.620   6.412  10.907  0.00  0.00    +0.000 HD
ENDROOT
BRANCH   5   9
ATOM      9  C   UNL     1      47.856   8.991  14.091  0.00  0.00    +0.000 C 
ATOM     10  N   UNL     1      47.533   9.156  15.411  0.00  0.00    +0.000 N 
ATOM     11  O   UNL     1      48.843   9.529  13.610  0.00  0.00    +0.000 OA
ATOM     12  H   UNL     1      46.664   8.864  15.837  0.00  0.00    +0.000 HD
ATOM     13  H   UNL     1      48.124   9.781  15.949  0.00  0.00    +0.000 HD
ENDBRANCH   5   9
BRANCH   1  14
ATOM     14  C   UNL     1      44.384   4.403  10.824  0.00  0.00    +0.000 C 
ATOM     15  C   UNL     1      44.161   3.514  12.032  0.00  0.00    +0.000 C 
ATOM     16  C   UNL     1      43.004   3.814  11.139  0.00  0.00    +0.000 C 
BRANCH  14  20
ATOM     17  C   UNL     1      46.547   2.764   7.555  0.00  0.00    +0.000 A 
ATOM     18  N   UNL     1      46.449   4.104   7.616  0.00  0.00    +0.000 NA
ATOM     19  C   UNL     1      45.726   4.594   8.651  0.00  0.00    +0.000 A 
ATOM     20  C   UNL     1      45.121   3.824   9.631  0.00  0.00    +0.000 A 
ATOM     21  C   UNL     1      45.271   2.461   9.421  0.00  0.00    +0.000 A 
ATOM     22  N   UNL     1      45.976   1.898   8.414  0.00  0.00    +0.000 NA
BRANCH  17  24
ATOM     23  N   UNL     1      48.035   1.751   5.673  0.00  0.00    +0.000 NA
ATOM     24  C   UNL     1      47.364   2.204   6.508  0.00  0.00    +0.000 C 
ENDBRANCH  17  24
ENDBRANCH  14  20
ENDBRANCH   1  14
TORSDOF 4
ENDMDL
MODEL 3
REMARK VINA RESULT:    -7.273      2.604      6.813
REMARK INTER + INTRA:          -8.617
REMARK INTER:                  -8.407
REMARK INTRA:                  -0.209
REMARK UNBOUND:                 0.358
REMARK  Name = 
REMARK  4 active torsions:
REMARK  status: ('A' for Active; 'I' for Inactive)
REMARK    1  A    between atoms: C_2  and  C_3
REMARK    2  A    between atoms: C_6  and  C_7
REMARK    3  A    between atoms: C_7  and  N_8
REMARK    4  A    between atoms: C_12  and  C_13
REMARK                            x       y       z     vdW  Elec       q    Type
REMARK                         _______ _______ _______ _____ _____    ______ ____
ROOT
ATOM      1  N   UNL     1      45.508   5.274  11.647  0.00  0.00    +0.000 N 
ATOM      2  C   UNL     1      46.081   4.852  12.845  0.00  0.00    +0.000 A 
ATOM      3  N   UNL     1      46.229   3.560  13.174  0.00  0.00    +0.000 NA
ATOM      4  C   UNL     1      46.850   3.297  14.355  0.00  0.00    +0.000 A 
ATOM      5  C   UNL     1      47.330   4.273  15.205  0.00  0.00    +0.000 A 
ATOM      6  C   UNL     1      47.107   5.560  14.786  0.00  0.00    +0.000 A 
ATOM      7  N   UNL     1      46.495   5.868  13.623  0.00  0.00    +0.000 NA
ATOM      8  H   UNL     1      45.328   6.266  11.759  0.00  0.00    +0.000 HD
ENDROOT
BRANCH   5   9
ATOM      9  C   UNL     1      47.979   3.933  16.478  0.00  0.00    +0.000 C 
ATOM     10  N   UNL     1      47.195   3.456  17.494  0.00  0.00    +0.000 N 
ATOM     11  O   UNL     1      49.184   4.085  16.627  0.00  0.00    +0.000 OA
ATOM     12  H   UNL     1      46.185   3.443  17.491  0.00  0.00    +0.000 HD
ATOM     13  H   UNL     1      47.656   3.283  18.381  0.00  0.00    +0.000 HD
ENDBRANCH   5   9
BRANCH   1  14
ATOM     14  C   UNL     1      44.635   4.472  10.795  0.00  0.00    +0.000 C 
ATOM     15  C   UNL     1      43.400   3.780  11.337  0.00  0.00    +0.000 C 
ATOM     16  C   UNL     1      43.234   5.056  10.584  0.00  0.00    +0.000 C 
BRANCH  14  20
ATOM     17  C   UNL     1      46.652   2.779   7.460  0.00  0.00    +0.000 A 
ATOM     18  N   UNL     1      46.582   4.121   7.518  0.00  0.00    +0.000 NA
ATOM     19  C   UNL     1      45.905   4.629   8.575  0.00  0.00    +0.000 A 
ATOM     20  C   UNL     1      45.320   3.874   9.580  0.00  0.00    +0.000 A 
ATOM     21  C   UNL     1      45.436   2.508   9.371  0.00  0.00    +0.000 A 
ATOM     22  N   UNL     1      46.096   1.927   8.343  0.00  0.00    +0.000 NA
BRANCH  17  24
ATOM     23  N   UNL     1      48.054   1.728   5.533  0.00  0.00    +0.000 NA
ATOM     24  C   UNL     1      47.422   2.199   6.388  0.00  0.00    +0.000 C 
ENDBRANCH  17  24
ENDBRANCH  14  20
ENDBRANCH   1  14
TORSDOF 4
ENDMDL
MODEL 4
REMARK VINA RESULT:    -7.193      1.856      2.607
REMARK INTER + INTRA:          -8.517
REMARK INTER:                  -8.288
REMARK INTRA:                  -0.229
REMARK UNBOUND:                 0.358
REMARK  Name = 
REMARK  4 active torsions:
REMARK  status: ('A' for Active; 'I' for Inactive)
REMARK    1  A    between atoms: C_2  and  C_3
REMARK    2  A    between atoms: C_6  and  C_7
REMARK    3  A    between atoms: C_7  and  N_8
REMARK    4  A    between atoms: C_12  and  C_13
REMARK                            x       y       z     vdW  Elec       q    Type
REMARK                         _______ _______ _______ _____ _____    ______ ____
ROOT
ATOM      1  N   UNL     1      44.591   3.775  11.187  0.00  0.00    +0.000 N 
ATOM      2  C   UNL     1      45.190   3.611   9.941  0.00  0.00    +0.000 A 
ATOM      3  N   UNL     1      45.665   4.633   9.213  0.00  0.00    +0.000 NA
ATOM      4  C   UNL     1      46.268   4.317   8.036  0.00  0.00    +0.000 A 
ATOM      5  C   UNL     1      46.419   3.025   7.571  0.00  0.00    +0.000 A 
ATOM      6  C   UNL     1      45.879   2.058   8.380  0.00  0.00    +0.000 A 
ATOM      7  N   UNL     1      45.270   2.325   9.555  0.00  0.00    +0.000 NA
ATOM      8  H   UNL     1      44.143   2.890  11.399  0.00  0.00    +0.000 HD
ENDROOT
BRANCH   5   9
ATOM      9  C   UNL     1      47.065   2.742   6.283  0.00  0.00    +0.000 C 
ATOM     10  N   UNL     1      48.406   2.465   6.282  0.00  0.00    +0.000 N 
ATOM     11  O   UNL     1      46.423   2.765   5.242  0.00  0.00    +0.000 OA
ATOM     12  H   UNL     1      49.021   2.570   7.077  0.00  0.00    +0.000 HD
ATOM     13  H   UNL     1      48.841   2.329   5.376  0.00  0.00    +0.000 HD
ENDBRANCH   5   9
BRANCH   1  14
ATOM     14  C   UNL     1      44.016   5.017  11.696  0.00  0.00    +0.000 C 
ATOM     15  C   UNL     1      42.614   5.460  11.328  0.00  0.00    +0.000 C 
ATOM     16  C   UNL     1      42.839   4.829  12.660  0.00  0.00    +0.000 C 
BRANCH  14  20
ATOM     17  C   UNL     1      46.822   8.004  12.817  0.00  0.00    +0.000 A 
ATOM     18  N   UNL     1      45.781   8.393  12.059  0.00  0.00    +0.000 NA
ATOM     19  C   UNL     1      44.923   7.413  11.691  0.00  0.00    +0.000 A 
ATOM     20  C   UNL     1      45.036   6.081  12.056  0.00  0.00    +0.000 A 
ATOM     21  C   UNL     1      46.174   5.817  12.803  0.00  0.00    +0.000 A 
ATOM     22  N   UNL     1      47.075   6.740  13.209  0.00  0.00    +0.000 NA
BRANCH  17  24
ATOM     23  N   UNL     1      48.458   9.845  13.663  0.00  0.00    +0.000 NA
ATOM     24  C   UNL     1      47.722   9.027  13.288  0.00  0.00    +0.000 C 
ENDBRANCH  17  24
ENDBRANCH  14  20
ENDBRANCH   1  14
TORSDOF 4
ENDMDL
MODEL 5
REMARK VINA RESULT:    -6.672      3.699      6.475
REMARK INTER + INTRA:          -7.875
REMARK INTER:                  -7.942
REMARK INTRA:                   0.067
REMARK UNBOUND:                 0.358
REMARK  Name = 
REMARK  4 active torsions:
REMARK  status: ('A' for Active; 'I' for Inactive)
REMARK    1  A    between atoms: C_2  and  C_3
REMARK    2  A    between atoms: C_6  and  C_7
REMARK    3  A    between atoms: C_7  and  N_8
REMARK    4  A    between atoms: C_12  and  C_13
REMARK                            x       y       z     vdW  Elec       q    Type
REMARK                         _______ _______ _______ _____ _____    ______ ____
ROOT
ATOM      1  N   UNL     1      47.123   3.847  15.769  0.00  0.00    +0.000 N 
ATOM      2  C   UNL     1      46.808   4.495  14.577  0.00  0.00    +0.000 A 
ATOM      3  N   UNL     1      47.579   5.449  14.034  0.00  0.00    +0.000 NA
ATOM      4  C   UNL     1      47.170   5.960  12.842  0.00  0.00    +0.000 A 
ATOM      5  C   UNL     1      46.033   5.546  12.177  0.00  0.00    +0.000 A 
ATOM      6  C   UNL     1      45.306   4.583  12.829  0.00  0.00    +0.000 A 
ATOM      7  N   UNL     1      45.672   4.049  14.013  0.00  0.00    +0.000 NA
ATOM      8  H   UNL     1      46.283   3.350  16.046  0.00  0.00    +0.000 HD
ENDROOT
BRANCH   5   9
ATOM      9  C   UNL     1      45.629   6.143  10.897  0.00  0.00    +0.000 C 
ATOM     10  N   UNL     1      44.789   7.223  10.927  0.00  0.00    +0.000 N 
ATOM     11  O   UNL     1      46.025   5.679   9.837  0.00  0.00    +0.000 OA
ATOM     12  H   UNL     1      44.312   7.565  11.750  0.00  0.00    +0.000 HD
ATOM     13  H   UNL     1      44.478   7.582  10.031  0.00  0.00    +0.000 HD
ENDBRANCH   5   9
BRANCH   1  14
ATOM     14  C   UNL     1      48.038   4.346  16.792  0.00  0.00    +0.000 C 
ATOM     15  C   UNL     1      48.122   5.819  17.141  0.00  0.00    +0.000 C 
ATOM     16  C   UNL     1      47.354   4.912  18.041  0.00  0.00    +0.000 C 
BRANCH  14  20
ATOM     17  C   UNL     1      51.424   1.883  17.513  0.00  0.00    +0.000 A 
ATOM     18  N   UNL     1      51.528   3.181  17.846  0.00  0.00    +0.000 NA
ATOM     19  C   UNL     1      50.444   3.947  17.574  0.00  0.00    +0.000 A 
ATOM     20  C   UNL     1      49.265   3.482  17.013  0.00  0.00    +0.000 A 
ATOM     21  C   UNL     1      49.313   2.135  16.685  0.00  0.00    +0.000 A 
ATOM     22  N   UNL     1      50.356   1.308  16.926  0.00  0.00    +0.000 NA
BRANCH  17  24
ATOM     23  N   UNL     1      53.418   0.327  18.132  0.00  0.00    +0.000 NA
ATOM     24  C   UNL     1      52.528   1.019  17.849  0.00  0.00    +0.000 C 
ENDBRANCH  17  24
ENDBRANCH  14  20
ENDBRANCH   1  14
TORSDOF 4
ENDMDL
MODEL 6
REMARK VINA RESULT:    -6.615      3.102      6.891
REMARK INTER + INTRA:          -7.804
REMARK INTER:                  -7.712
REMARK INTRA:                  -0.092
REMARK UNBOUND:                 0.358
REMARK  Name = 
REMARK  4 active torsions:
REMARK  status: ('A' for Active; 'I' for Inactive)
REMARK    1  A    between atoms: C_2  and  C_3
REMARK    2  A    between atoms: C_6  and  C_7
REMARK    3  A    between atoms: C_7  and  N_8
REMARK    4  A    between atoms: C_12  and  C_13
REMARK                            x       y       z     vdW  Elec       q    Type
REMARK                         _______ _______ _______ _____ _____    ______ ____
ROOT
ATOM      1  N   UNL     1      44.668   6.390  11.623  0.00  0.00    +0.000 N 
ATOM      2  C   UNL     1      45.790   6.686  12.394  0.00  0.00    +0.000 A 
ATOM      3  N   UNL     1      46.804   5.826  12.574  0.00  0.00    +0.000 NA
ATOM      4  C   UNL     1      47.857   6.270  13.312  0.00  0.00    +0.000 A 
ATOM      5  C   UNL     1      47.932   7.534  13.863  0.00  0.00    +0.000 A 
ATOM      6  C   UNL     1      46.834   8.324  13.638  0.00  0.00    +0.000 A 
ATOM      7  N   UNL     1      45.767   7.926  12.914  0.00  0.00    +0.000 NA
ATOM      8  H   UNL     1      43.987   7.111  11.837  0.00  0.00    +0.000 HD
ENDROOT
BRANCH   5   9
ATOM      9  C   UNL     1      49.087   7.956  14.666  0.00  0.00    +0.000 C 
ATOM     10  N   UNL     1      49.341   7.285  15.832  0.00  0.00    +0.000 N 
ATOM     11  O   UNL     1      49.793   8.888  14.306  0.00  0.00    +0.000 OA
ATOM     12  H   UNL     1      48.723   6.609  16.259  0.00  0.00    +0.000 HD
ATOM     13  H   UNL     1      50.109   7.631  16.397  0.00  0.00    +0.000 HD
ENDBRANCH   5   9
BRANCH   1  14
ATOM     14  C   UNL     1      44.214   5.050  11.262  0.00  0.00    +0.000 C 
ATOM     15  C   UNL     1      43.669   4.083  12.294  0.00  0.00    +0.000 C 
ATOM     16  C   UNL     1      42.708   4.819  11.424  0.00  0.00    +0.000 C 
BRANCH  14  20
ATOM     17  C   UNL     1      45.951   3.508   7.704  0.00  0.00    +0.000 A 
ATOM     18  N   UNL     1      45.214   2.661   8.444  0.00  0.00    +0.000 NA
ATOM     19  C   UNL     1      44.701   3.173   9.588  0.00  0.00    +0.000 A 
ATOM     20  C   UNL     1      44.866   4.481  10.016  0.00  0.00    +0.000 A 
ATOM     21  C   UNL     1      45.679   5.229   9.176  0.00  0.00    +0.000 A 
ATOM     22  N   UNL     1      46.224   4.789   8.020  0.00  0.00    +0.000 NA
BRANCH  17  24
ATOM     23  N   UNL     1      46.872   2.621   5.435  0.00  0.00    +0.000 NA
ATOM     24  C   UNL     1      46.457   3.023   6.444  0.00  0.00    +0.000 C 
ENDBRANCH  17  24
ENDBRANCH  14  20
ENDBRANCH   1  14
TORSDOF 4
ENDMDL
MODEL 7
REMARK VINA RESULT:    -5.858      4.753      9.090
REMARK INTER + INTRA:          -6.870
REMARK INTER:                  -6.581
REMARK INTRA:                  -0.289
REMARK UNBOUND:                 0.358
REMARK  Name = 
REMARK  4 active torsions:
REMARK  status: ('A' for Active; 'I' for Inactive)
REMARK    1  A    between atoms: C_2  and  C_3
REMARK    2  A    between atoms: C_6  and  C_7
REMARK    3  A    between atoms: C_7  and  N_8
REMARK    4  A    between atoms: C_12  and  C_13
REMARK                            x       y       z     vdW  Elec       q    Type
REMARK                         _______ _______ _______ _____ _____    ______ ____
ROOT
ATOM      1  N   UNL     1      50.495   4.991  17.815  0.00  0.00    +0.000 N 
ATOM      2  C   UNL     1      51.158   3.767  17.787  0.00  0.00    +0.000 A 
ATOM      3  N   UNL     1      50.563   2.618  17.432  0.00  0.00    +0.000 NA
ATOM      4  C   UNL     1      51.347   1.507  17.404  0.00  0.00    +0.000 A 
ATOM      5  C   UNL     1      52.694   1.509  17.707  0.00  0.00    +0.000 A 
ATOM      6  C   UNL     1      53.197   2.730  18.078  0.00  0.00    +0.000 A 
ATOM      7  N   UNL     1      52.457   3.857  18.122  0.00  0.00    +0.000 NA
ATOM      8  H   UNL     1      51.107   5.627  18.315  0.00  0.00    +0.000 HD
ENDROOT
BRANCH   5   9
ATOM      9  C   UNL     1      53.492   0.276  17.676  0.00  0.00    +0.000 C 
ATOM     10  N   UNL     1      53.160  -0.728  18.545  0.00  0.00    +0.000 N 
ATOM     11  O   UNL     1      54.432   0.157  16.902  0.00  0.00    +0.000 OA
ATOM     12  H   UNL     1      52.497  -0.644  19.303  0.00  0.00    +0.000 HD
ATOM     13  H   UNL     1      53.760  -1.546  18.545  0.00  0.00    +0.000 HD
ENDBRANCH   5   9
BRANCH   1  14
ATOM     14  C   UNL     1      49.048   5.173  17.888  0.00  0.00    +0.000 C 
ATOM     15  C   UNL     1      48.262   4.848  19.143  0.00  0.00    +0.000 C 
ATOM     16  C   UNL     1      48.588   6.273  18.851  0.00  0.00    +0.000 C 
BRANCH  14  20
ATOM     17  C   UNL     1      46.977   5.029  14.181  0.00  0.00    +0.000 A 
ATOM     18  N   UNL     1      46.688   4.075  15.082  0.00  0.00    +0.000 NA
ATOM     19  C   UNL     1      47.387   4.128  16.241  0.00  0.00    +0.000 A 
ATOM     20  C   UNL     1      48.336   5.090  16.551  0.00  0.00    +0.000 A 
ATOM     21  C   UNL     1      48.560   5.985  15.516  0.00  0.00    +0.000 A 
ATOM     22  N   UNL     1      47.902   5.996  14.335  0.00  0.00    +0.000 NA
BRANCH  17  24
ATOM     23  N   UNL     1      45.590   5.079  11.978  0.00  0.00    +0.000 NA
ATOM     24  C   UNL     1      46.207   5.049  12.962  0.00  0.00    +0.000 C 
ENDBRANCH  17  24
ENDBRANCH  14  20
ENDBRANCH   1  14
TORSDOF 4
ENDMDL
MODEL 8
REMARK VINA RESULT:    -5.747      3.716      5.383
REMARK INTER + INTRA:          -6.733
REMARK INTER:                  -6.449
REMARK INTRA:                  -0.284
REMARK UNBOUND:                 0.358
REMARK  Name = 
REMARK  4 active torsions:
REMARK  status: ('A' for Active; 'I' for Inactive)
REMARK    1  A    between atoms: C_2  and  C_3
REMARK    2  A    between atoms: C_6  and  C_7
REMARK    3  A    between atoms: C_7  and  N_8
REMARK    4  A    between atoms: C_12  and  C_13
REMARK                            x       y       z     vdW  Elec       q    Type
REMARK                         _______ _______ _______ _____ _____    ______ ____
ROOT
ATOM      1  N   UNL     1      46.708   8.145  12.502  0.00  0.00    +0.000 N 
ATOM      2  C   UNL     1      46.076   6.922  12.289  0.00  0.00    +0.000 A 
ATOM      3  N   UNL     1      46.620   5.744  12.631  0.00  0.00    +0.000 NA
ATOM      4  C   UNL     1      45.866   4.635  12.406  0.00  0.00    +0.000 A 
ATOM      5  C   UNL     1      44.597   4.664  11.864  0.00  0.00    +0.000 A 
ATOM      6  C   UNL     1      44.145   5.915  11.529  0.00  0.00    +0.000 A 
ATOM      7  N   UNL     1      44.858   7.043  11.732  0.00  0.00    +0.000 NA
ATOM      8  H   UNL     1      46.185   8.826  11.963  0.00  0.00    +0.000 HD
ENDROOT
BRANCH   5   9
ATOM      9  C   UNL     1      43.833   3.432  11.627  0.00  0.00    +0.000 C 
ATOM     10  N   UNL     1      43.732   2.530  12.651  0.00  0.00    +0.000 N 
ATOM     11  O   UNL     1      43.312   3.217  10.541  0.00  0.00    +0.000 OA
ATOM     12  H   UNL     1      44.252   2.573  13.516  0.00  0.00    +0.000 HD
ATOM     13  H   UNL     1      43.249   1.662  12.446  0.00  0.00    +0.000 HD
ENDBRANCH   5   9
BRANCH   1  14
ATOM     14  C   UNL     1      48.140   8.335  12.714  0.00  0.00    +0.000 C 
ATOM     15  C   UNL     1      49.142   8.196  11.585  0.00  0.00    +0.000 C 
ATOM     16  C   UNL     1      48.733   9.564  12.015  0.00  0.00    +0.000 C 
BRANCH  14  20
ATOM     17  C   UNL     1      49.367   7.475  16.690  0.00  0.00    +0.000 A 
ATOM     18  N   UNL     1      48.581   8.551  16.509  0.00  0.00    +0.000 NA
ATOM     19  C   UNL     1      48.234   8.818  15.228  0.00  0.00    +0.000 A 
ATOM     20  C   UNL     1      48.609   8.059  14.130  0.00  0.00    +0.000 A 
ATOM     21  C   UNL     1      49.448   7.005  14.459  0.00  0.00    +0.000 A 
ATOM     22  N   UNL     1      49.837   6.676  15.712  0.00  0.00    +0.000 NA
BRANCH  17  24
ATOM     23  N   UNL     1      49.960   6.829  19.142  0.00  0.00    +0.000 NA
ATOM     24  C   UNL     1      49.703   7.116  18.045  0.00  0.00    +0.000 C 
ENDBRANCH  17  24
ENDBRANCH  14  20
ENDBRANCH   1  14
TORSDOF 4
ENDMDL
MODEL 9
REMARK VINA RESULT:    -5.556      4.443      5.994
REMARK INTER + INTRA:          -6.497
REMARK INTER:                  -6.440
REMARK INTRA:                  -0.058
REMARK UNBOUND:                 0.358
REMARK  Name = 
REMARK  4 active torsions:
REMARK  status: ('A' for Active; 'I' for Inactive)
REMARK    1  A    between atoms: C_2  and  C_3
REMARK    2  A    between atoms: C_6  and  C_7
REMARK    3  A    between atoms: C_7  and  N_8
REMARK    4  A    between atoms: C_12  and  C_13
REMARK                            x       y       z     vdW  Elec       q    Type
REMARK                         _______ _______ _______ _____ _____    ______ ____
ROOT
ATOM      1  N   UNL     1      47.639   6.554  13.311  0.00  0.00    +0.000 N 
ATOM      2  C   UNL     1      46.723   5.732  12.658  0.00  0.00    +0.000 A 
ATOM      3  N   UNL     1      46.142   6.060  11.494  0.00  0.00    +0.000 NA
ATOM      4  C   UNL     1      45.305   5.138  10.948  0.00  0.00    +0.000 A 
ATOM      5  C   UNL     1      45.039   3.909  11.517  0.00  0.00    +0.000 A 
ATOM      6  C   UNL     1      45.665   3.683  12.715  0.00  0.00    +0.000 A 
ATOM      7  N   UNL     1      46.503   4.569  13.295  0.00  0.00    +0.000 NA
ATOM      8  H   UNL     1      47.742   6.168  14.244  0.00  0.00    +0.000 HD
ENDROOT
BRANCH   5   9
ATOM      9  C   UNL     1      44.112   2.956  10.891  0.00  0.00    +0.000 C 
ATOM     10  N   UNL     1      44.558   2.232   9.818  0.00  0.00    +0.000 N 
ATOM     11  O   UNL     1      42.971   2.823  11.312  0.00  0.00    +0.000 OA
ATOM     12  H   UNL     1      45.429   2.393   9.331  0.00  0.00    +0.000 HD
ATOM     13  H   UNL     1      43.883   1.624   9.368  0.00  0.00    +0.000 HD
ENDBRANCH   5   9
BRANCH   1  14
ATOM     14  C   UNL     1      47.792   7.990  13.101  0.00  0.00    +0.000 C 
ATOM     15  C   UNL     1      46.610   8.938  13.150  0.00  0.00    +0.000 C 
ATOM     16  C   UNL     1      47.508   8.852  14.337  0.00  0.00    +0.000 C 
BRANCH  14  20
ATOM     17  C   UNL     1      51.216   9.082  10.835  0.00  0.00    +0.000 A 
ATOM     18  N   UNL     1      50.314  10.046  11.085  0.00  0.00    +0.000 NA
ATOM     19  C   UNL     1      49.218   9.660  11.781  0.00  0.00    +0.000 A 
ATOM     20  C   UNL     1      48.991   8.378  12.255  0.00  0.00    +0.000 A 
ATOM     21  C   UNL     1      49.983   7.480  11.891  0.00  0.00    +0.000 A 
ATOM     22  N   UNL     1      51.103   7.790  11.200  0.00  0.00    +0.000 NA
BRANCH  17  24
ATOM     23  N   UNL     1      53.399   9.778   9.598  0.00  0.00    +0.000 NA
ATOM     24  C   UNL     1      52.429   9.465  10.156  0.00  0.00    +0.000 C 
ENDBRANCH  17  24
ENDBRANCH  14  20
ENDBRANCH   1  14
TORSDOF 4
ENDMDL
