MODEL 1
REMARK VINA RESULT:    -8.165      0.000      0.000
REMARK INTER + INTRA:         -10.383
REMARK INTER:                 -10.075
REMARK INTRA:                  -0.309
REMARK UNBOUND:                -0.309
REMARK  Name = 
REMARK  5 active torsions:
REMARK  status: ('A' for Active; 'I' for Inactive)
REMARK    1  A    between atoms: C_1  and  C_2
REMARK    2  A    between atoms: C_2  and  O_3
REMARK    3  A    between atoms: C_2  and  C_13
REMARK    4  A    between atoms: O_3  and  C_4
REMARK    5  A    between atoms: C_7  and  C_8
REMARK                            x       y       z     vdW  Elec       q    Type
REMARK                         _______ _______ _______ _____ _____    ______ ____
ROOT
ATOM      1  C   UNL     1      44.798   4.112   9.177  0.00  0.00    +0.000 A 
ATOM      2  C   UNL     1      44.759   2.738   9.331  0.00  0.00    +0.000 A 
ATOM      3  C   UNL     1      45.636   1.957   8.591  0.00  0.00    +0.000 A 
ATOM      4  C   UNL     1      46.490   2.597   7.709  0.00  0.00    +0.000 A 
ATOM      5  N   UNL     1      46.508   3.949   7.569  0.00  0.00    +0.000 NA
ATOM      6  N   UNL     1      45.647   4.719   8.319  0.00  0.00    +0.000 NA
ENDROOT
BRANCH   4   7
ATOM      7  C   UNL     1      47.408   1.795   6.850  0.00  0.00    +0.000 C 
ATOM      8  N   UNL     1      48.523   2.432   6.373  0.00  0.00    +0.000 N 
ATOM      9  O   UNL     1      47.178   0.627   6.566  0.00  0.00    +0.000 OA
ATOM     10  H   UNL     1      48.703   3.406   6.580  0.00  0.00    +0.000 HD
ATOM     11  H   UNL     1      49.141   1.925   5.753  0.00  0.00    +0.000 HD
ENDBRANCH   4   7
BRANCH   1  12
ATOM     12  O   UNL     1      43.866   4.826   9.889  0.00  0.00    +0.000 OA
BRANCH  12  14
ATOM     13  C   UNL     1      42.492   5.193  11.876  0.00  0.00    +0.000 C 
ATOM     14  C   UNL     1      43.657   4.423  11.249  0.00  0.00    +0.000 C 
BRANCH  14  15
ATOM     15  C   UNL     1      44.944   4.769  11.995  0.00  0.00    +0.000 A 
ATOM     16  C   UNL     1      45.556   6.011  11.818  0.00  0.00    +0.000 A 
ATOM     17  C   UNL     1      46.698   6.313  12.557  0.00  0.00    +0.000 A 
ATOM     18  C   UNL     1      47.207   5.375  13.446  0.00  0.00    +0.000 A 
ATOM     19  C   UNL     1      46.560   4.157  13.545  0.00  0.00    +0.000 A 
ATOM     20  N   UNL     1      45.454   3.834  12.841  0.00  0.00    +0.000 NA
ENDBRANCH  14  15
ENDBRANCH  12  14
ENDBRANCH   1  12
TORSDOF 4
ENDMDL
MODEL 2
REMARK VINA RESULT:    -7.397      1.493      1.973
REMARK INTER + INTRA:          -9.436
REMARK INTER:                  -8.890
REMARK INTRA:                  -0.545
REMARK UNBOUND:                -0.309
REMARK  Name = 
REMARK  5 active torsions:
REMARK  status: ('A' for Active; 'I' for Inactive)
REMARK    1  A    between atoms: C_1  and  C_2
REMARK    2  A    between atoms: C_2  and  O_3
REMARK    3  A    between atoms: C_2  and  C_13
REMARK    4  A    between atoms: O_3  and  C_4
REMARK    5  A    between atoms: C_7  and  C_8
REMARK                            x       y       z     vdW  Elec       q    Type
REMARK                         _______ _______ _______ _____ _____    ______ ____
ROOT
ATOM      1  C   UNL     1      44.737   3.792   9.385  0.00  0.00    +0.000 A 
ATOM      2  C   UNL     1      45.563   4.511   8.542  0.00  0.00    +0.000 A 
ATOM      3  C   UNL     1      46.416   3.820   7.692  0.00  0.00    +0.000 A 
ATOM      4  C   UNL     1      46.415   2.437   7.754  0.00  0.00    +0.000 A 
ATOM      5  N   UNL     1      45.597   1.750   8.595  0.00  0.00    +0.000 NA
ATOM      6  N   UNL     1      44.742   2.442   9.423  0.00  0.00    +0.000 NA
ENDROOT
BRANCH   4   7
ATOM      7  C   UNL     1      47.356   1.654   6.902  0.00  0.00    +0.000 C 
ATOM      8  N   UNL     1      48.374   2.350   6.304  0.00  0.00    +0.000 N 
ATOM      9  O   UNL     1      47.226   0.450   6.726  0.00  0.00    +0.000 OA
ATOM     10  H   UNL     1      48.469   3.351   6.421  0.00  0.00    +0.000 HD
ATOM     11  H   UNL     1      49.002   1.852   5.687  0.00  0.00    +0.000 HD
ENDBRANCH   4   7
BRANCH   1  12
ATOM     12  O   UNL     1      43.961   4.530  10.245  0.00  0.00    +0.000 OA
BRANCH  12  14
ATOM     13  C   UNL     1      43.077   4.446  12.521  0.00  0.00    +0.000 C 
ATOM     14  C   UNL     1      44.322   4.480  11.632  0.00  0.00    +0.000 C 
BRANCH  14  15
ATOM     15  C   UNL     1      45.101   5.764  11.912  0.00  0.00    +0.000 A 
ATOM     16  C   UNL     1      46.384   5.712  12.459  0.00  0.00    +0.000 A 
ATOM     17  C   UNL     1      47.086   6.901  12.648  0.00  0.00    +0.000 A 
ATOM     18  C   UNL     1      46.497   8.108  12.298  0.00  0.00    +0.000 A 
ATOM     19  C   UNL     1      45.212   8.079  11.787  0.00  0.00    +0.000 A 
ATOM     20  N   UNL     1      44.505   6.945  11.595  0.00  0.00    +0.000 NA
ENDBRANCH  14  15
ENDBRANCH  12  14
ENDBRANCH   1  12
TORSDOF 4
ENDMDL
MODEL 3
REMARK VINA RESULT:    -6.667      2.789      6.294
REMARK INTER + INTRA:          -8.535
REMARK INTER:                  -8.011
REMARK INTRA:                  -0.524
REMARK UNBOUND:                -0.309
REMARK  Name = 
REMARK  5 active torsions:
REMARK  status: ('A' for Active; 'I' for Inactive)
REMARK    1  A    between atoms: C_1  and  C_2
REMARK    2  A    between atoms: C_2  and  O_3
REMARK    3  A    between atoms: C_2  and  C_13
REMARK    4  A    between atoms: O_3  and  C_4
REMARK    5  A    between atoms: C_7  and  C_8
REMARK                            x       y       z     vdW  Elec       q    Type
REMARK                         _______ _______ _______ _____ _____    ______ ____
ROOT
ATOM      1  C   UNL     1      45.945   4.381  13.014  0.00  0.00    +0.000 A 
ATOM      2  C   UNL     1      46.229   5.718  12.810  0.00  0.00    +0.000 A 
ATOM      3  C   UNL     1      47.160   6.336  13.633  0.00  0.00    +0.000 A 
ATOM      4  C   UNL     1      47.738   5.584  14.642  0.00  0.00    +0.000 A 
ATOM      5  N   UNL     1      47.439   4.271  14.828  0.00  0.00    +0.000 NA
ATOM      6  N   UNL     1      46.528   3.659  13.997  0.00  0.00    +0.000 NA
ENDROOT
BRANCH   4   7
ATOM      7  C   UNL     1      48.699   6.222  15.587  0.00  0.00    +0.000 C 
ATOM      8  N   UNL     1      48.295   6.344  16.891  0.00  0.00    +0.000 N 
ATOM      9  O   UNL     1      49.793   6.634  15.224  0.00  0.00    +0.000 OA
ATOM     10  H   UNL     1      47.380   6.033  17.191  0.00  0.00    +0.000 HD
ATOM     11  H   UNL     1      48.909   6.811  17.545  0.00  0.00    +0.000 HD
ENDBRANCH   4   7
BRANCH   1  12
ATOM     12  O   UNL     1      44.973   3.840  12.209  0.00  0.00    +0.000 OA
BRANCH  12  14
ATOM     13  C   UNL     1      43.031   4.736  11.027  0.00  0.00    +0.000 C 
ATOM     14  C   UNL     1      44.557   4.635  11.090  0.00  0.00    +0.000 C 
BRANCH  14  15
ATOM     15  C   UNL     1      45.061   3.908   9.845  0.00  0.00    +0.000 A 
ATOM     16  C   UNL     1      45.614   4.621   8.781  0.00  0.00    +0.000 A 
ATOM     17  C   UNL     1      46.115   3.920   7.685  0.00  0.00    +0.000 A 
ATOM     18  C   UNL     1      46.049   2.533   7.671  0.00  0.00    +0.000 A 
ATOM     19  C   UNL     1      45.461   1.900   8.751  0.00  0.00    +0.000 A 
ATOM     20  N   UNL     1      44.965   2.551   9.825  0.00  0.00    +0.000 NA
ENDBRANCH  14  15
ENDBRANCH  12  14
ENDBRANCH   1  12
TORSDOF 4
ENDMDL
MODEL 4
REMARK VINA RESULT:    -6.549      2.878      6.168
REMARK INTER + INTRA:          -8.389
REMARK INTER:                  -7.875
REMARK INTRA:                  -0.514
REMARK UNBOUND:                -0.309
REMARK  Name = 
REMARK  5 active torsions:
REMARK  status: ('A' for Active; 'I' for Inactive)
REMARK    1  A    between atoms: C_1  and  C_2
REMARK    2  A    between atoms: C_2  and  O_3
REMARK    3  A    between atoms: C_2  and  C_13
REMARK    4  A    between atoms: O_3  and  C_4
REMARK    5  A    between atoms: C_7  and  C_8
REMARK                            x       y       z     vdW  Elec       q    Type
REMARK                         _______ _______ _______ _____ _____    ______ ____
ROOT
ATOM      1  C   UNL     1      45.367   5.347  11.641  0.00  0.00    +0.000 A 
ATOM      2  C   UNL     1      46.495   5.843  12.268  0.00  0.00    +0.000 A 
ATOM      3  C   UNL     1      46.574   7.206  12.521  0.00  0.00    +0.000 A 
ATOM      4  C   UNL     1      45.525   8.007  12.104  0.00  0.00    +0.000 A 
ATOM      5  N   UNL     1      44.427   7.498  11.484  0.00  0.00    +0.000 NA
ATOM      6  N   UNL     1      44.348   6.144  11.252  0.00  0.00    +0.000 NA
ENDROOT
BRANCH   4   7
ATOM      7  C   UNL     1      45.593   9.484  12.301  0.00  0.00    +0.000 C 
ATOM      8  N   UNL     1      44.401  10.146  12.434  0.00  0.00    +0.000 N 
ATOM      9  O   UNL     1      46.658  10.088  12.329  0.00  0.00    +0.000 OA
ATOM     10  H   UNL     1      43.517   9.656  12.382  0.00  0.00    +0.000 HD
ATOM     11  H   UNL     1      44.416  11.153  12.526  0.00  0.00    +0.000 HD
ENDBRANCH   4   7
BRANCH   1  12
ATOM     12  O   UNL     1      45.372   4.003  11.363  0.00  0.00    +0.000 OA
BRANCH  12  14
ATOM     13  C   UNL     1      43.614   2.354  10.958  0.00  0.00    +0.000 C 
ATOM     14  C   UNL     1      44.404   3.545  10.409  0.00  0.00    +0.000 C 
BRANCH  14  15
ATOM     15  C   UNL     1      45.198   3.096   9.184  0.00  0.00    +0.000 A 
ATOM     16  C   UNL     1      45.583   4.018   8.210  0.00  0.00    +0.000 A 
ATOM     17  C   UNL     1      46.355   3.582   7.134  0.00  0.00    +0.000 A 
ATOM     18  C   UNL     1      46.718   2.244   7.049  0.00  0.00    +0.000 A 
ATOM     19  C   UNL     1      46.274   1.387   8.040  0.00  0.00    +0.000 A 
ATOM     20  N   UNL     1      45.524   1.779   9.092  0.00  0.00    +0.000 NA
ENDBRANCH  14  15
ENDBRANCH  12  14
ENDBRANCH   1  12
TORSDOF 4
ENDMDL
MODEL 5
REMARK VINA RESULT:    -6.470      4.046      6.258
REMARK INTER + INTRA:          -8.292
REMARK INTER:                  -7.820
REMARK INTRA:                  -0.471
REMARK UNBOUND:                -0.309
REMARK  Name = 
REMARK  5 active torsions:
REMARK  status: ('A' for Active; 'I' for Inactive)
REMARK    1  A    between atoms: C_1  and  C_2
REMARK    2  A    between atoms: C_2  and  O_3
REMARK    3  A    between atoms: C_2  and  C_13
REMARK    4  A    between atoms: O_3  and  C_4
REMARK    5  A    between atoms: C_7  and  C_8
REMARK                            x       y       z     vdW  Elec       q    Type
REMARK                         _______ _______ _______ _____ _____    ______ ____
ROOT
ATOM      1  C   UNL     1      47.000   4.390  14.399  0.00  0.00    +0.000 A 
ATOM      2  C   UNL     1      46.388   5.482  13.813  0.00  0.00    +0.000 A 
ATOM      3  C   UNL     1      45.546   5.275  12.729  0.00  0.00    +0.000 A 
ATOM      4  C   UNL     1      45.384   3.979  12.270  0.00  0.00    +0.000 A 
ATOM      5  N   UNL     1      46.000   2.920  12.859  0.00  0.00    +0.000 NA
ATOM      6  N   UNL     1      46.821   3.131  13.944  0.00  0.00    +0.000 NA
ENDROOT
BRANCH   4   7
ATOM      7  C   UNL     1      44.536   3.715  11.072  0.00  0.00    +0.000 C 
ATOM      8  N   UNL     1      44.828   2.592  10.343  0.00  0.00    +0.000 N 
ATOM      9  O   UNL     1      43.630   4.467  10.738  0.00  0.00    +0.000 OA
ATOM     10  H   UNL     1      45.595   1.983  10.597  0.00  0.00    +0.000 HD
ATOM     11  H   UNL     1      44.297   2.412   9.501  0.00  0.00    +0.000 HD
ENDBRANCH   4   7
BRANCH   1  12
ATOM     12  O   UNL     1      47.868   4.664  15.427  0.00  0.00    +0.000 OA
BRANCH  12  14
ATOM     13  C   UNL     1      47.176   4.646  17.771  0.00  0.00    +0.000 C 
ATOM     14  C   UNL     1      47.747   3.844  16.599  0.00  0.00    +0.000 C 
BRANCH  14  15
ATOM     15  C   UNL     1      49.164   3.392  16.945  0.00  0.00    +0.000 A 
ATOM     16  C   UNL     1      50.058   4.269  17.563  0.00  0.00    +0.000 A 
ATOM     17  C   UNL     1      51.324   3.805  17.915  0.00  0.00    +0.000 A 
ATOM     18  C   UNL     1      51.673   2.489  17.640  0.00  0.00    +0.000 A 
ATOM     19  C   UNL     1      50.742   1.690  17.002  0.00  0.00    +0.000 A 
ATOM     20  N   UNL     1      49.509   2.111  16.646  0.00  0.00    +0.000 NA
ENDBRANCH  14  15
ENDBRANCH  12  14
ENDBRANCH   1  12
TORSDOF 4
ENDMDL
MODEL 6
REMARK VINA RESULT:    -6.365      2.148      5.975
REMARK INTER + INTRA:          -8.163
REMARK INTER:                  -8.785
REMARK INTRA:                   0.622
REMARK UNBOUND:                -0.309
REMARK  Name = 
REMARK  5 active torsions:
REMARK  status: ('A' for Active; 'I' for Inactive)
REMARK    1  A    between atoms: C_1  and  C_2
REMARK    2  A    between atoms: C_2  and  O_3
REMARK    3  A    between atoms: C_2  and  C_13
REMARK    4  A    between atoms: O_3  and  C_4
REMARK    5  A    between atoms: C_7  and  C_8
REMARK                            x       y       z     vdW  Elec       q    Type
REMARK                         _______ _______ _______ _____ _____    ______ ____
ROOT
ATOM      1  C   UNL     1      45.127   5.121  11.788  0.00  0.00    +0.000 A 
ATOM      2  C   UNL     1      46.340   5.782  11.807  0.00  0.00    +0.000 A 
ATOM      3  C   UNL     1      47.130   5.696  12.946  0.00  0.00    +0.000 A 
ATOM      4  C   UNL     1      46.645   4.970  14.020  0.00  0.00    +0.000 A 
ATOM      5  N   UNL     1      45.445   4.332  13.981  0.00  0.00    +0.000 NA
ATOM      6  N   UNL     1      44.675   4.408  12.842  0.00  0.00    +0.000 NA
ENDROOT
BRANCH   4   7
ATOM      7  C   UNL     1      47.432   4.899  15.285  0.00  0.00    +0.000 C 
ATOM      8  N   UNL     1      46.891   4.168  16.310  0.00  0.00    +0.000 N 
ATOM      9  O   UNL     1      48.504   5.474  15.418  0.00  0.00    +0.000 OA
ATOM     10  H   UNL     1      45.990   3.715  16.217  0.00  0.00    +0.000 HD
ATOM     11  H   UNL     1      47.382   4.138  17.193  0.00  0.00    +0.000 HD
ENDBRANCH   4   7
BRANCH   1  12
ATOM     12  O   UNL     1      44.363   5.293  10.660  0.00  0.00    +0.000 OA
BRANCH  12  14
ATOM     13  C   UNL     1      43.528   3.045  11.131  0.00  0.00    +0.000 C 
ATOM     14  C   UNL     1      43.827   4.103  10.065  0.00  0.00    +0.000 C 
BRANCH  14  15
ATOM     15  C   UNL     1      44.910   3.574   9.127  0.00  0.00    +0.000 A 
ATOM     16  C   UNL     1      45.228   2.216   9.104  0.00  0.00    +0.000 A 
ATOM     17  C   UNL     1      46.183   1.761   8.195  0.00  0.00    +0.000 A 
ATOM     18  C   UNL     1      46.801   2.665   7.341  0.00  0.00    +0.000 A 
ATOM     19  C   UNL     1      46.452   3.999   7.444  0.00  0.00    +0.000 A 
ATOM     20  N   UNL     1      45.534   4.470   8.315  0.00  0.00    +0.000 NA
ENDBRANCH  14  15
ENDBRANCH  12  14
ENDBRANCH   1  12
TORSDOF 4
ENDMDL
MODEL 7
REMARK VINA RESULT:    -6.298      3.053      5.955
REMARK INTER + INTRA:          -8.079
REMARK INTER:                  -7.519
REMARK INTRA:                  -0.560
REMARK UNBOUND:                -0.309
REMARK  Name = 
REMARK  5 active torsions:
REMARK  status: ('A' for Active; 'I' for Inactive)
REMARK    1  A    between atoms: C_1  and  C_2
REMARK    2  A    between atoms: C_2  and  O_3
REMARK    3  A    between atoms: C_2  and  C_13
REMARK    4  A    between atoms: O_3  and  C_4
REMARK    5  A    between atoms: C_7  and  C_8
REMARK                            x       y       z     vdW  Elec       q    Type
REMARK                         _______ _______ _______ _____ _____    ______ ____
ROOT
ATOM      1  C   UNL     1      46.405   5.605  12.475  0.00  0.00    +0.000 A 
ATOM      2  C   UNL     1      46.472   6.855  11.887  0.00  0.00    +0.000 A 
ATOM      3  C   UNL     1      47.583   7.650  12.132  0.00  0.00    +0.000 A 
ATOM      4  C   UNL     1      48.561   7.158  12.981  0.00  0.00    +0.000 A 
ATOM      5  N   UNL     1      48.471   5.928  13.552  0.00  0.00    +0.000 NA
ATOM      6  N   UNL     1      47.375   5.138  13.292  0.00  0.00    +0.000 NA
ENDROOT
BRANCH   4   7
ATOM      7  C   UNL     1      49.743   8.001  13.320  0.00  0.00    +0.000 C 
ATOM      8  N   UNL     1      50.639   7.479  14.215  0.00  0.00    +0.000 N 
ATOM      9  O   UNL     1      49.908   9.114  12.838  0.00  0.00    +0.000 OA
ATOM     10  H   UNL     1      50.492   6.572  14.640  0.00  0.00    +0.000 HD
ATOM     11  H   UNL     1      51.428   8.046  14.496  0.00  0.00    +0.000 HD
ENDBRANCH   4   7
BRANCH   1  12
ATOM     12  O   UNL     1      45.256   4.890  12.245  0.00  0.00    +0.000 OA
BRANCH  12  14
ATOM     13  C   UNL     1      42.990   5.145  11.367  0.00  0.00    +0.000 C 
ATOM     14  C   UNL     1      44.490   5.267  11.092  0.00  0.00    +0.000 C 
BRANCH  14  15
ATOM     15  C   UNL     1      44.878   4.284   9.989  0.00  0.00    +0.000 A 
ATOM     16  C   UNL     1      45.586   4.717   8.867  0.00  0.00    +0.000 A 
ATOM     17  C   UNL     1      45.971   3.782   7.908  0.00  0.00    +0.000 A 
ATOM     18  C   UNL     1      45.639   2.445   8.083  0.00  0.00    +0.000 A 
ATOM     19  C   UNL     1      44.913   2.098   9.208  0.00  0.00    +0.000 A 
ATOM     20  N   UNL     1      44.523   2.981  10.152  0.00  0.00    +0.000 NA
ENDBRANCH  14  15
ENDBRANCH  12  14
ENDBRANCH   1  12
TORSDOF 4
ENDMDL
MODEL 8
REMARK VINA RESULT:    -6.041      4.198      6.262
REMARK INTER + INTRA:          -7.763
REMARK INTER:                  -7.295
REMARK INTRA:                  -0.468
REMARK UNBOUND:                -0.309
REMARK  Name = 
REMARK  5 active torsions:
REMARK  status: ('A' for Active; 'I' for Inactive)
REMARK    1  A    between atoms: C_1  and  C_2
REMARK    2  A    between atoms: C_2  and  O_3
REMARK    3  A    between atoms: C_2  and  C_13
REMARK    4  A    between atoms: O_3  and  C_4
REMARK    5  A    between atoms: C_7  and  C_8
REMARK                            x       y       z     vdW  Elec       q    Type
REMARK                         _______ _______ _______ _____ _____    ______ ____
ROOT
ATOM      1  C   UNL     1      46.798   5.240  13.666  0.00  0.00    +0.000 A 
ATOM      2  C   UNL     1      46.545   6.126  12.635  0.00  0.00    +0.000 A 
ATOM      3  C   UNL     1      45.318   6.066  11.988  0.00  0.00    +0.000 A 
ATOM      4  C   UNL     1      44.416   5.098  12.393  0.00  0.00    +0.000 A 
ATOM      5  N   UNL     1      44.688   4.233  13.407  0.00  0.00    +0.000 NA
ATOM      6  N   UNL     1      45.900   4.309  14.055  0.00  0.00    +0.000 NA
ENDROOT
BRANCH   4   7
ATOM      7  C   UNL     1      43.109   4.959  11.689  0.00  0.00    +0.000 C 
ATOM      8  N   UNL     1      42.249   6.022  11.764  0.00  0.00    +0.000 N 
ATOM      9  O   UNL     1      42.803   3.940  11.082  0.00  0.00    +0.000 OA
ATOM     10  H   UNL     1      42.484   6.855  12.289  0.00  0.00    +0.000 HD
ATOM     11  H   UNL     1      41.339   5.939  11.331  0.00  0.00    +0.000 HD
ENDBRANCH   4   7
BRANCH   1  12
ATOM     12  O   UNL     1      48.050   5.306  14.226  0.00  0.00    +0.000 OA
BRANCH  12  14
ATOM     13  C   UNL     1      49.456   7.100  15.106  0.00  0.00    +0.000 C 
ATOM     14  C   UNL     1      48.214   6.229  15.312  0.00  0.00    +0.000 C 
BRANCH  14  15
ATOM     15  C   UNL     1      48.405   5.376  16.565  0.00  0.00    +0.000 A 
ATOM     16  C   UNL     1      48.285   5.943  17.835  0.00  0.00    +0.000 A 
ATOM     17  C   UNL     1      48.410   5.124  18.955  0.00  0.00    +0.000 A 
ATOM     18  C   UNL     1      48.657   3.767  18.788  0.00  0.00    +0.000 A 
ATOM     19  C   UNL     1      48.790   3.286  17.498  0.00  0.00    +0.000 A 
ATOM     20  N   UNL     1      48.677   4.055  16.394  0.00  0.00    +0.000 NA
ENDBRANCH  14  15
ENDBRANCH  12  14
ENDBRANCH   1  12
TORSDOF 4
ENDMDL
MODEL 9
REMARK VINA RESULT:    -5.766      3.944      6.015
REMARK INTER + INTRA:          -7.423
REMARK INTER:                  -6.970
REMARK INTRA:                  -0.453
REMARK UNBOUND:                -0.309
REMARK  Name = 
REMARK  5 active torsions:
REMARK  status: ('A' for Active; 'I' for Inactive)
REMARK    1  A    between atoms: C_1  and  C_2
REMARK    2  A    between atoms: C_2  and  O_3
REMARK    3  A    between atoms: C_2  and  C_13
REMARK    4  A    between atoms: O_3  and  C_4
REMARK    5  A    between atoms: C_7  and  C_8
REMARK                            x       y       z     vdW  Elec       q    Type
REMARK                         _______ _______ _______ _____ _____    ______ ____
ROOT
ATOM      1  C   UNL     1      46.928   5.039  13.440  0.00  0.00    +0.000 A 
ATOM      2  C   UNL     1      46.134   6.045  12.922  0.00  0.00    +0.000 A 
ATOM      3  C   UNL     1      44.892   5.714  12.399  0.00  0.00    +0.000 A 
ATOM      4  C   UNL     1      44.521   4.380  12.399  0.00  0.00    +0.000 A 
ATOM      5  N   UNL     1      45.320   3.406  12.909  0.00  0.00    +0.000 NA
ATOM      6  N   UNL     1      46.544   3.744  13.441  0.00  0.00    +0.000 NA
ENDROOT
BRANCH   4   7
ATOM      7  C   UNL     1      43.221   3.970  11.794  0.00  0.00    +0.000 C 
ATOM      8  N   UNL     1      42.251   4.933  11.701  0.00  0.00    +0.000 N 
ATOM      9  O   UNL     1      43.013   2.826  11.411  0.00  0.00    +0.000 OA
ATOM     10  H   UNL     1      42.406   5.873  12.044  0.00  0.00    +0.000 HD
ATOM     11  H   UNL     1      41.345   4.673  11.334  0.00  0.00    +0.000 HD
ENDBRANCH   4   7
BRANCH   1  12
ATOM     12  O   UNL     1      48.170   5.418  13.886  0.00  0.00    +0.000 OA
BRANCH  12  14
ATOM     13  C   UNL     1      49.445   7.288  12.964  0.00  0.00    +0.000 C 
ATOM     14  C   UNL     1      48.406   6.829  13.991  0.00  0.00    +0.000 C 
BRANCH  14  15
ATOM     15  C   UNL     1      48.956   7.062  15.396  0.00  0.00    +0.000 A 
ATOM     16  C   UNL     1      48.712   8.263  16.065  0.00  0.00    +0.000 A 
ATOM     17  C   UNL     1      49.182   8.418  17.368  0.00  0.00    +0.000 A 
ATOM     18  C   UNL     1      49.887   7.384  17.970  0.00  0.00    +0.000 A 
ATOM     19  C   UNL     1      50.112   6.235  17.232  0.00  0.00    +0.000 A 
ATOM     20  N   UNL     1      49.672   6.057  15.968  0.00  0.00    +0.000 NA
ENDBRANCH  14  15
ENDBRANCH  12  14
ENDBRANCH   1  12
TORSDOF 4
ENDMDL
