MODEL 1
REMARK VINA RESULT:    -7.958      0.000      0.000
REMARK INTER + INTRA:         -11.347
REMARK INTER:                 -10.284
REMARK INTRA:                  -1.063
REMARK UNBOUND:                -1.063
REMARK  Name = 
REMARK  6 active torsions:
REMARK  status: ('A' for Active; 'I' for Inactive)
REMARK    1  A    between atoms: C_1  and  N_2
REMARK    2  A    between atoms: N_2  and  C_3
REMARK    3  A    between atoms: C_3  and  C_4
REMARK    4  A    between atoms: C_7  and  C_8
REMARK    5  A    between atoms: C_8  and  C_9
REMARK    6  A    between atoms: C_20  and  C_22
REMARK                            x       y       z     vdW  Elec       q    Type
REMARK                         _______ _______ _______ _____ _____    ______ ____
ROOT
ATOM      1  C   UNL     1      47.532   5.800  13.967  0.00  0.00    +0.000 A 
ATOM      2  C   UNL     1      48.391   6.660  14.670  0.00  0.00    +0.000 A 
ATOM      3  C   UNL     1      48.757   6.373  15.983  0.00  0.00    +0.000 A 
ATOM      4  C   UNL     1      48.260   5.229  16.619  0.00  0.00    +0.000 A 
ATOM      5  C   UNL     1      47.374   4.391  15.926  0.00  0.00    +0.000 A 
ATOM      6  C   UNL     1      47.009   4.672  14.609  0.00  0.00    +0.000 A 
ENDROOT
BRANCH   1   7
ATOM      7  C   UNL     1      47.203   6.072  12.524  0.00  0.00    +0.000 C 
BRANCH   7   9
ATOM      8  C   UNL     1      46.355   8.462  12.328  0.00  0.00    +0.000 C 
ATOM      9  N   UNL     1      46.119   7.023  12.247  0.00  0.00    +0.000 N 
ATOM     10  C   UNL     1      44.869   6.645  11.724  0.00  0.00    +0.000 C 
ATOM     11  O   UNL     1      44.044   7.492  11.385  0.00  0.00    +0.000 OA
BRANCH  10  12
ATOM     12  C   UNL     1      44.525   5.220  11.615  0.00  0.00    +0.000 A 
ATOM     13  C   UNL     1      43.795   4.512  12.556  0.00  0.00    +0.000 A 
ATOM     14  S   UNL     1      43.496   2.892  12.115  0.00  0.00    +0.000 S 
ATOM     15  C   UNL     1      44.194   3.126  10.584  0.00  0.00    +0.000 A 
ATOM     16  N   UNL     1      44.161   2.145   9.644  0.00  0.00    +0.000 NA
ATOM     17  C   UNL     1      44.656   2.492   8.503  0.00  0.00    +0.000 A 
ATOM     18  N   UNL     1      45.218   3.712   8.231  0.00  0.00    +0.000 N 
ATOM     19  C   UNL     1      45.399   4.685   9.193  0.00  0.00    +0.000 A 
ATOM     20  O   UNL     1      46.121   5.654   8.979  0.00  0.00    +0.000 OA
ATOM     21  C   UNL     1      44.740   4.390  10.453  0.00  0.00    +0.000 A 
ATOM     22  H   UNL     1      45.650   3.894   7.337  0.00  0.00    +0.000 HD
ENDBRANCH  10  12
ENDBRANCH   7   9
ENDBRANCH   1   7
BRANCH   4  23
ATOM     23  C   UNL     1      48.752   4.862  17.997  0.00  0.00    +0.000 C 
BRANCH  23  24
ATOM     24  C   UNL     1      50.177   5.282  18.327  0.00  0.00    +0.000 C 
ATOM     25  O   UNL     1      50.460   6.401  18.758  0.00  0.00    +0.000 OA
ATOM     26  N   UNL     1      51.150   4.303  18.169  0.00  0.00    +0.000 N 
ATOM     27  C   UNL     1      52.512   4.571  18.621  0.00  0.00    +0.000 C 
ATOM     28  C   UNL     1      53.020   3.357  19.395  0.00  0.00    +0.000 C 
ATOM     29  N   UNL     1      52.916   2.141  18.612  0.00  0.00    +0.000 N 
ATOM     30  C   UNL     1      51.868   1.897  17.762  0.00  0.00    +0.000 C 
ATOM     31  O   UNL     1      51.708   0.778  17.286  0.00  0.00    +0.000 OA
ATOM     32  C   UNL     1      50.988   3.093  17.351  0.00  0.00    +0.000 C 
ATOM     33  H   UNL     1      53.427   1.313  18.897  0.00  0.00    +0.000 HD
ENDBRANCH  23  24
ENDBRANCH   4  23
TORSDOF 5
ENDMDL
MODEL 2
REMARK VINA RESULT:    -7.687      1.004      1.952
REMARK INTER + INTRA:         -10.997
REMARK INTER:                  -9.787
REMARK INTRA:                  -1.210
REMARK UNBOUND:                -1.063
REMARK  Name = 
REMARK  6 active torsions:
REMARK  status: ('A' for Active; 'I' for Inactive)
REMARK    1  A    between atoms: C_1  and  N_2
REMARK    2  A    between atoms: N_2  and  C_3
REMARK    3  A    between atoms: C_3  and  C_4
REMARK    4  A    between atoms: C_7  and  C_8
REMARK    5  A    between atoms: C_8  and  C_9
REMARK    6  A    between atoms: C_20  and  C_22
REMARK                            x       y       z     vdW  Elec       q    Type
REMARK                         _______ _______ _______ _____ _____    ______ ____
ROOT
ATOM      1  C   UNL     1      47.374   5.829  13.712  0.00  0.00    +0.000 A 
ATOM      2  C   UNL     1      48.255   6.586  14.501  0.00  0.00    +0.000 A 
ATOM      3  C   UNL     1      48.603   6.157  15.780  0.00  0.00    +0.000 A 
ATOM      4  C   UNL     1      48.066   4.972  16.296  0.00  0.00    +0.000 A 
ATOM      5  C   UNL     1      47.159   4.236  15.519  0.00  0.00    +0.000 A 
ATOM      6  C   UNL     1      46.813   4.659  14.236  0.00  0.00    +0.000 A 
ENDROOT
BRANCH   1   7
ATOM      7  C   UNL     1      47.065   6.254  12.302  0.00  0.00    +0.000 C 
BRANCH   7   9
ATOM      8  C   UNL     1      46.040   8.580  12.212  0.00  0.00    +0.000 C 
ATOM      9  N   UNL     1      45.904   7.131  12.103  0.00  0.00    +0.000 N 
ATOM     10  C   UNL     1      44.660   6.676  11.627  0.00  0.00    +0.000 C 
ATOM     11  O   UNL     1      43.761   7.470  11.351  0.00  0.00    +0.000 OA
BRANCH  10  12
ATOM     12  C   UNL     1      44.412   5.234  11.495  0.00  0.00    +0.000 A 
ATOM     13  C   UNL     1      43.661   4.479  12.381  0.00  0.00    +0.000 A 
ATOM     14  S   UNL     1      43.495   2.844  11.920  0.00  0.00    +0.000 S 
ATOM     15  C   UNL     1      44.287   3.127  10.444  0.00  0.00    +0.000 A 
ATOM     16  N   UNL     1      44.383   2.150   9.505  0.00  0.00    +0.000 NA
ATOM     17  C   UNL     1      44.938   2.530   8.402  0.00  0.00    +0.000 A 
ATOM     18  N   UNL     1      45.441   3.784   8.172  0.00  0.00    +0.000 N 
ATOM     19  C   UNL     1      45.491   4.763   9.143  0.00  0.00    +0.000 A 
ATOM     20  O   UNL     1      46.166   5.775   8.982  0.00  0.00    +0.000 OA
ATOM     21  C   UNL     1      44.763   4.422  10.352  0.00  0.00    +0.000 A 
ATOM     22  H   UNL     1      45.925   3.995   7.311  0.00  0.00    +0.000 HD
ENDBRANCH  10  12
ENDBRANCH   7   9
ENDBRANCH   1   7
BRANCH   4  23
ATOM     23  C   UNL     1      48.536   4.453  17.632  0.00  0.00    +0.000 C 
BRANCH  23  24
ATOM     24  C   UNL     1      49.808   3.616  17.609  0.00  0.00    +0.000 C 
ATOM     25  O   UNL     1      49.890   2.545  17.008  0.00  0.00    +0.000 OA
ATOM     26  N   UNL     1      50.903   4.161  18.266  0.00  0.00    +0.000 N 
ATOM     27  C   UNL     1      52.203   3.504  18.152  0.00  0.00    +0.000 C 
ATOM     28  C   UNL     1      53.265   4.564  17.874  0.00  0.00    +0.000 C 
ATOM     29  N   UNL     1      53.251   5.612  18.876  0.00  0.00    +0.000 N 
ATOM     30  C   UNL     1      52.092   6.079  19.440  0.00  0.00    +0.000 C 
ATOM     31  O   UNL     1      52.104   7.102  20.118  0.00  0.00    +0.000 OA
ATOM     32  C   UNL     1      50.824   5.218  19.283  0.00  0.00    +0.000 C 
ATOM     33  H   UNL     1      54.041   6.243  18.957  0.00  0.00    +0.000 HD
ENDBRANCH  23  24
ENDBRANCH   4  23
TORSDOF 5
ENDMDL
MODEL 3
REMARK VINA RESULT:    -7.400      1.769      3.058
REMARK INTER + INTRA:         -10.625
REMARK INTER:                  -9.427
REMARK INTRA:                  -1.199
REMARK UNBOUND:                -1.063
REMARK  Name = 
REMARK  6 active torsions:
REMARK  status: ('A' for Active; 'I' for Inactive)
REMARK    1  A    between atoms: C_1  and  N_2
REMARK    2  A    between atoms: N_2  and  C_3
REMARK    3  A    between atoms: C_3  and  C_4
REMARK    4  A    between atoms: C_7  and  C_8
REMARK    5  A    between atoms: C_8  and  C_9
REMARK    6  A    between atoms: C_20  and  C_22
REMARK                            x       y       z     vdW  Elec       q    Type
REMARK                         _______ _______ _______ _____ _____    ______ ____
ROOT
ATOM      1  C   UNL     1      47.476   5.705  13.657  0.00  0.00    +0.000 A 
ATOM      2  C   UNL     1      46.929   4.482  14.075  0.00  0.00    +0.000 A 
ATOM      3  C   UNL     1      47.116   4.034  15.380  0.00  0.00    +0.000 A 
ATOM      4  C   UNL     1      47.865   4.795  16.286  0.00  0.00    +0.000 A 
ATOM      5  C   UNL     1      48.440   6.000  15.855  0.00  0.00    +0.000 A 
ATOM      6  C   UNL     1      48.250   6.454  14.550  0.00  0.00    +0.000 A 
ENDROOT
BRANCH   1   7
ATOM      7  C   UNL     1      47.204   6.222  12.270  0.00  0.00    +0.000 C 
BRANCH   7   9
ATOM      8  C   UNL     1      46.258   8.583  12.223  0.00  0.00    +0.000 C 
ATOM      9  N   UNL     1      46.070   7.140  12.104  0.00  0.00    +0.000 N 
ATOM     10  C   UNL     1      44.801   6.733  11.653  0.00  0.00    +0.000 C 
ATOM     11  O   UNL     1      43.924   7.559  11.403  0.00  0.00    +0.000 OA
BRANCH  10  12
ATOM     12  C   UNL     1      44.501   5.301  11.514  0.00  0.00    +0.000 A 
ATOM     13  C   UNL     1      43.734   4.566  12.404  0.00  0.00    +0.000 A 
ATOM     14  S   UNL     1      43.505   2.942  11.934  0.00  0.00    +0.000 S 
ATOM     15  C   UNL     1      44.289   3.208  10.450  0.00  0.00    +0.000 A 
ATOM     16  N   UNL     1      44.339   2.234   9.504  0.00  0.00    +0.000 NA
ATOM     17  C   UNL     1      44.894   2.602   8.397  0.00  0.00    +0.000 A 
ATOM     18  N   UNL     1      45.439   3.839   8.169  0.00  0.00    +0.000 N 
ATOM     19  C   UNL     1      45.535   4.808   9.146  0.00  0.00    +0.000 A 
ATOM     20  O   UNL     1      46.243   5.797   8.984  0.00  0.00    +0.000 OA
ATOM     21  C   UNL     1      44.809   4.485  10.362  0.00  0.00    +0.000 A 
ATOM     22  H   UNL     1      45.920   4.039   7.304  0.00  0.00    +0.000 HD
ENDBRANCH  10  12
ENDBRANCH   7   9
ENDBRANCH   1   7
BRANCH   4  23
ATOM     23  C   UNL     1      47.965   4.364  17.728  0.00  0.00    +0.000 C 
BRANCH  23  24
ATOM     24  C   UNL     1      49.304   4.616  18.405  0.00  0.00    +0.000 C 
ATOM     25  O   UNL     1      50.330   4.005  18.103  0.00  0.00    +0.000 OA
ATOM     26  N   UNL     1      49.320   5.626  19.358  0.00  0.00    +0.000 N 
ATOM     27  C   UNL     1      50.596   6.044  19.934  0.00  0.00    +0.000 C 
ATOM     28  C   UNL     1      50.650   7.569  19.952  0.00  0.00    +0.000 C 
ATOM     29  N   UNL     1      49.509   8.138  20.642  0.00  0.00    +0.000 N 
ATOM     30  C   UNL     1      48.251   7.597  20.559  0.00  0.00    +0.000 C 
ATOM     31  O   UNL     1      47.282   8.223  20.978  0.00  0.00    +0.000 OA
ATOM     32  C   UNL     1      48.127   6.155  20.032  0.00  0.00    +0.000 C 
ATOM     33  H   UNL     1      49.530   9.106  20.939  0.00  0.00    +0.000 HD
ENDBRANCH  23  24
ENDBRANCH   4  23
TORSDOF 5
ENDMDL
MODEL 4
REMARK VINA RESULT:    -7.238      1.622      2.248
REMARK INTER + INTRA:         -10.416
REMARK INTER:                  -9.346
REMARK INTRA:                  -1.071
REMARK UNBOUND:                -1.063
REMARK  Name = 
REMARK  6 active torsions:
REMARK  status: ('A' for Active; 'I' for Inactive)
REMARK    1  A    between atoms: C_1  and  N_2
REMARK    2  A    between atoms: N_2  and  C_3
REMARK    3  A    between atoms: C_3  and  C_4
REMARK    4  A    between atoms: C_7  and  C_8
REMARK    5  A    between atoms: C_8  and  C_9
REMARK    6  A    between atoms: C_20  and  C_22
REMARK                            x       y       z     vdW  Elec       q    Type
REMARK                         _______ _______ _______ _____ _____    ______ ____
ROOT
ATOM      1  C   UNL     1      47.535   5.686  14.071  0.00  0.00    +0.000 A 
ATOM      2  C   UNL     1      48.378   6.366  14.964  0.00  0.00    +0.000 A 
ATOM      3  C   UNL     1      48.609   5.860  16.241  0.00  0.00    +0.000 A 
ATOM      4  C   UNL     1      47.990   4.673  16.652  0.00  0.00    +0.000 A 
ATOM      5  C   UNL     1      47.121   4.015  15.769  0.00  0.00    +0.000 A 
ATOM      6  C   UNL     1      46.891   4.515  14.488  0.00  0.00    +0.000 A 
ENDROOT
BRANCH   1   7
ATOM      7  C   UNL     1      47.352   6.193  12.667  0.00  0.00    +0.000 C 
BRANCH   7   9
ATOM      8  C   UNL     1      46.553   8.565  13.124  0.00  0.00    +0.000 C 
ATOM      9  N   UNL     1      46.380   7.275  12.462  0.00  0.00    +0.000 N 
ATOM     10  C   UNL     1      45.348   7.221  11.508  0.00  0.00    +0.000 C 
ATOM     11  O   UNL     1      44.643   8.205  11.283  0.00  0.00    +0.000 OA
BRANCH  10  12
ATOM     12  C   UNL     1      45.078   5.964  10.795  0.00  0.00    +0.000 A 
ATOM     13  C   UNL     1      45.600   5.634   9.555  0.00  0.00    +0.000 A 
ATOM     14  S   UNL     1      45.160   4.075   9.019  0.00  0.00    +0.000 S 
ATOM     15  C   UNL     1      44.389   3.730  10.493  0.00  0.00    +0.000 A 
ATOM     16  N   UNL     1      43.887   2.493  10.745  0.00  0.00    +0.000 NA
ATOM     17  C   UNL     1      43.403   2.353  11.934  0.00  0.00    +0.000 A 
ATOM     18  N   UNL     1      43.338   3.347  12.875  0.00  0.00    +0.000 N 
ATOM     19  C   UNL     1      43.707   4.651  12.615  0.00  0.00    +0.000 A 
ATOM     20  O   UNL     1      43.405   5.556  13.388  0.00  0.00    +0.000 OA
ATOM     21  C   UNL     1      44.377   4.824  11.338  0.00  0.00    +0.000 A 
ATOM     22  H   UNL     1      42.884   3.189  13.763  0.00  0.00    +0.000 HD
ENDBRANCH  10  12
ENDBRANCH   7   9
ENDBRANCH   1   7
BRANCH   4  23
ATOM     23  C   UNL     1      48.336   4.069  17.990  0.00  0.00    +0.000 C 
BRANCH  23  24
ATOM     24  C   UNL     1      48.983   5.010  18.996  0.00  0.00    +0.000 C 
ATOM     25  O   UNL     1      48.347   5.859  19.622  0.00  0.00    +0.000 OA
ATOM     26  N   UNL     1      50.341   4.820  19.216  0.00  0.00    +0.000 N 
ATOM     27  C   UNL     1      51.003   5.566  20.283  0.00  0.00    +0.000 C 
ATOM     28  C   UNL     1      51.888   4.608  21.076  0.00  0.00    +0.000 C 
ATOM     29  N   UNL     1      52.823   3.908  20.217  0.00  0.00    +0.000 N 
ATOM     30  C   UNL     1      52.494   3.491  18.952  0.00  0.00    +0.000 C 
ATOM     31  O   UNL     1      53.233   2.722  18.345  0.00  0.00    +0.000 OA
ATOM     32  C   UNL     1      51.242   4.107  18.300  0.00  0.00    +0.000 C 
ATOM     33  H   UNL     1      53.619   3.430  20.622  0.00  0.00    +0.000 HD
ENDBRANCH  23  24
ENDBRANCH   4  23
TORSDOF 5
ENDMDL
MODEL 5
REMARK VINA RESULT:    -7.135      2.964      9.044
REMARK INTER + INTRA:         -10.283
REMARK INTER:                 -10.034
REMARK INTRA:                  -0.249
REMARK UNBOUND:                -1.063
REMARK  Name = 
REMARK  6 active torsions:
REMARK  status: ('A' for Active; 'I' for Inactive)
REMARK    1  A    between atoms: C_1  and  N_2
REMARK    2  A    between atoms: N_2  and  C_3
REMARK    3  A    between atoms: C_3  and  C_4
REMARK    4  A    between atoms: C_7  and  C_8
REMARK    5  A    between atoms: C_8  and  C_9
REMARK    6  A    between atoms: C_20  and  C_22
REMARK                            x       y       z     vdW  Elec       q    Type
REMARK                         _______ _______ _______ _____ _____    ______ ____
ROOT
ATOM      1  C   UNL     1      46.751   5.282  13.785  0.00  0.00    +0.000 A 
ATOM      2  C   UNL     1      46.688   3.886  13.646  0.00  0.00    +0.000 A 
ATOM      3  C   UNL     1      46.021   3.313  12.566  0.00  0.00    +0.000 A 
ATOM      4  C   UNL     1      45.394   4.126  11.613  0.00  0.00    +0.000 A 
ATOM      5  C   UNL     1      45.429   5.519  11.774  0.00  0.00    +0.000 A 
ATOM      6  C   UNL     1      46.100   6.097  12.852  0.00  0.00    +0.000 A 
ENDROOT
BRANCH   1   7
ATOM      7  C   UNL     1      47.540   5.897  14.909  0.00  0.00    +0.000 C 
BRANCH   7   9
ATOM      8  C   UNL     1      49.129   6.838  13.161  0.00  0.00    +0.000 C 
ATOM      9  N   UNL     1      48.672   6.757  14.545  0.00  0.00    +0.000 N 
ATOM     10  C   UNL     1      49.265   7.677  15.430  0.00  0.00    +0.000 C 
ATOM     11  O   UNL     1      50.122   8.469  15.038  0.00  0.00    +0.000 OA
BRANCH  10  12
ATOM     12  C   UNL     1      48.888   7.669  16.850  0.00  0.00    +0.000 A 
ATOM     13  C   UNL     1      48.044   8.593  17.446  0.00  0.00    +0.000 A 
ATOM     14  S   UNL     1      47.739   8.280  19.095  0.00  0.00    +0.000 S 
ATOM     15  C   UNL     1      48.597   6.814  19.027  0.00  0.00    +0.000 A 
ATOM     16  N   UNL     1      48.629   5.974  20.095  0.00  0.00    +0.000 NA
ATOM     17  C   UNL     1      49.248   4.863  19.873  0.00  0.00    +0.000 A 
ATOM     18  N   UNL     1      49.873   4.536  18.698  0.00  0.00    +0.000 N 
ATOM     19  C   UNL     1      49.986   5.414  17.639  0.00  0.00    +0.000 A 
ATOM     20  O   UNL     1      50.757   5.186  16.712  0.00  0.00    +0.000 OA
ATOM     21  C   UNL     1      49.194   6.621  17.796  0.00  0.00    +0.000 A 
ATOM     22  H   UNL     1      50.400   3.679  18.615  0.00  0.00    +0.000 HD
ENDBRANCH  10  12
ENDBRANCH   7   9
ENDBRANCH   1   7
BRANCH   4  23
ATOM     23  C   UNL     1      44.776   3.505  10.386  0.00  0.00    +0.000 C 
BRANCH  23  24
ATOM     24  C   UNL     1      45.293   4.019   9.049  0.00  0.00    +0.000 C 
ATOM     25  O   UNL     1      45.271   5.211   8.740  0.00  0.00    +0.000 OA
ATOM     26  N   UNL     1      45.850   3.065   8.208  0.00  0.00    +0.000 N 
ATOM     27  C   UNL     1      46.517   3.497   6.983  0.00  0.00    +0.000 C 
ATOM     28  C   UNL     1      47.841   2.749   6.856  0.00  0.00    +0.000 C 
ATOM     29  N   UNL     1      47.653   1.312   6.917  0.00  0.00    +0.000 N 
ATOM     30  C   UNL     1      46.724   0.723   7.736  0.00  0.00    +0.000 C 
ATOM     31  O   UNL     1      46.742  -0.490   7.916  0.00  0.00    +0.000 OA
ATOM     32  C   UNL     1      45.612   1.619   8.315  0.00  0.00    +0.000 C 
ATOM     33  H   UNL     1      48.394   0.693   6.610  0.00  0.00    +0.000 HD
ENDBRANCH  23  24
ENDBRANCH   4  23
TORSDOF 5
ENDMDL
MODEL 6
REMARK VINA RESULT:    -6.958      2.326      3.784
REMARK INTER + INTRA:         -10.055
REMARK INTER:                  -8.940
REMARK INTRA:                  -1.115
REMARK UNBOUND:                -1.063
REMARK  Name = 
REMARK  6 active torsions:
REMARK  status: ('A' for Active; 'I' for Inactive)
REMARK    1  A    between atoms: C_1  and  N_2
REMARK    2  A    between atoms: N_2  and  C_3
REMARK    3  A    between atoms: C_3  and  C_4
REMARK    4  A    between atoms: C_7  and  C_8
REMARK    5  A    between atoms: C_8  and  C_9
REMARK    6  A    between atoms: C_20  and  C_22
REMARK                            x       y       z     vdW  Elec       q    Type
REMARK                         _______ _______ _______ _____ _____    ______ ____
ROOT
ATOM      1  C   UNL     1      47.665   5.956  13.839  0.00  0.00    +0.000 A 
ATOM      2  C   UNL     1      46.954   4.805  14.213  0.00  0.00    +0.000 A 
ATOM      3  C   UNL     1      47.095   4.273  15.493  0.00  0.00    +0.000 A 
ATOM      4  C   UNL     1      47.958   4.876  16.416  0.00  0.00    +0.000 A 
ATOM      5  C   UNL     1      48.693   6.006  16.027  0.00  0.00    +0.000 A 
ATOM      6  C   UNL     1      48.551   6.545  14.748  0.00  0.00    +0.000 A 
ENDROOT
BRANCH   1   7
ATOM      7  C   UNL     1      47.449   6.572  12.483  0.00  0.00    +0.000 C 
BRANCH   7   9
ATOM      8  C   UNL     1      46.444   8.855  12.983  0.00  0.00    +0.000 C 
ATOM      9  N   UNL     1      46.355   7.542  12.351  0.00  0.00    +0.000 N 
ATOM     10  C   UNL     1      45.259   7.363  11.486  0.00  0.00    +0.000 C 
ATOM     11  O   UNL     1      44.438   8.263  11.312  0.00  0.00    +0.000 OA
BRANCH  10  12
ATOM     12  C   UNL     1      45.066   6.072  10.811  0.00  0.00    +0.000 A 
ATOM     13  C   UNL     1      45.626   5.730   9.590  0.00  0.00    +0.000 A 
ATOM     14  S   UNL     1      45.276   4.134   9.098  0.00  0.00    +0.000 S 
ATOM     15  C   UNL     1      44.498   3.797  10.571  0.00  0.00    +0.000 A 
ATOM     16  N   UNL     1      44.056   2.544  10.855  0.00  0.00    +0.000 NA
ATOM     17  C   UNL     1      43.560   2.416  12.040  0.00  0.00    +0.000 A 
ATOM     18  N   UNL     1      43.427   3.435  12.947  0.00  0.00    +0.000 N 
ATOM     19  C   UNL     1      43.733   4.748  12.651  0.00  0.00    +0.000 A 
ATOM     20  O   UNL     1      43.373   5.660  13.388  0.00  0.00    +0.000 OA
ATOM     21  C   UNL     1      44.415   4.915  11.379  0.00  0.00    +0.000 A 
ATOM     22  H   UNL     1      42.966   3.282  13.832  0.00  0.00    +0.000 HD
ENDBRANCH  10  12
ENDBRANCH   7   9
ENDBRANCH   1   7
BRANCH   4  23
ATOM     23  C   UNL     1      48.016   4.367  17.834  0.00  0.00    +0.000 C 
BRANCH  23  24
ATOM     24  C   UNL     1      49.201   4.843  18.663  0.00  0.00    +0.000 C 
ATOM     25  O   UNL     1      50.239   4.192  18.778  0.00  0.00    +0.000 OA
ATOM     26  N   UNL     1      49.068   6.097  19.245  0.00  0.00    +0.000 N 
ATOM     27  C   UNL     1      50.218   6.698  19.916  0.00  0.00    +0.000 C 
ATOM     28  C   UNL     1      50.333   8.156  19.480  0.00  0.00    +0.000 C 
ATOM     29  N   UNL     1      49.101   8.885  19.715  0.00  0.00    +0.000 N 
ATOM     30  C   UNL     1      47.864   8.318  19.544  0.00  0.00    +0.000 C 
ATOM     31  O   UNL     1      46.858   9.021  19.544  0.00  0.00    +0.000 OA
ATOM     32  C   UNL     1      47.787   6.781  19.466  0.00  0.00    +0.000 C 
ATOM     33  H   UNL     1      49.104   9.898  19.701  0.00  0.00    +0.000 HD
ENDBRANCH  23  24
ENDBRANCH   4  23
TORSDOF 5
ENDMDL
MODEL 7
REMARK VINA RESULT:    -6.894      3.202      8.100
REMARK INTER + INTRA:          -9.972
REMARK INTER:                  -8.331
REMARK INTRA:                  -1.641
REMARK UNBOUND:                -1.063
REMARK  Name = 
REMARK  6 active torsions:
REMARK  status: ('A' for Active; 'I' for Inactive)
REMARK    1  A    between atoms: C_1  and  N_2
REMARK    2  A    between atoms: N_2  and  C_3
REMARK    3  A    between atoms: C_3  and  C_4
REMARK    4  A    between atoms: C_7  and  C_8
REMARK    5  A    between atoms: C_8  and  C_9
REMARK    6  A    between atoms: C_20  and  C_22
REMARK                            x       y       z     vdW  Elec       q    Type
REMARK                         _______ _______ _______ _____ _____    ______ ____
ROOT
ATOM      1  C   UNL     1      49.760   8.728  16.023  0.00  0.00    +0.000 A 
ATOM      2  C   UNL     1      50.392   7.865  15.113  0.00  0.00    +0.000 A 
ATOM      3  C   UNL     1      49.766   7.517  13.919  0.00  0.00    +0.000 A 
ATOM      4  C   UNL     1      48.493   8.015  13.619  0.00  0.00    +0.000 A 
ATOM      5  C   UNL     1      47.850   8.849  14.546  0.00  0.00    +0.000 A 
ATOM      6  C   UNL     1      48.475   9.205  15.740  0.00  0.00    +0.000 A 
ENDROOT
BRANCH   1   7
ATOM      7  C   UNL     1      50.474   9.164  17.274  0.00  0.00    +0.000 C 
BRANCH   7   9
ATOM      8  C   UNL     1      52.946   8.596  17.460  0.00  0.00    +0.000 C 
ATOM      9  N   UNL     1      51.551   8.299  17.771  0.00  0.00    +0.000 N 
ATOM     10  C   UNL     1      51.347   7.264  18.703  0.00  0.00    +0.000 C 
ATOM     11  O   UNL     1      52.300   6.656  19.188  0.00  0.00    +0.000 OA
BRANCH  10  12
ATOM     12  C   UNL     1      49.980   6.875  19.073  0.00  0.00    +0.000 A 
ATOM     13  C   UNL     1      49.207   7.520  20.025  0.00  0.00    +0.000 A 
ATOM     14  S   UNL     1      47.635   6.878  20.183  0.00  0.00    +0.000 S 
ATOM     15  C   UNL     1      47.881   5.820  18.877  0.00  0.00    +0.000 A 
ATOM     16  N   UNL     1      46.867   5.049  18.403  0.00  0.00    +0.000 NA
ATOM     17  C   UNL     1      47.176   4.357  17.357  0.00  0.00    +0.000 A 
ATOM     18  N   UNL     1      48.415   4.333  16.772  0.00  0.00    +0.000 N 
ATOM     19  C   UNL     1      49.508   4.989  17.302  0.00  0.00    +0.000 A 
ATOM     20  O   UNL     1      50.642   4.747  16.901  0.00  0.00    +0.000 OA
ATOM     21  C   UNL     1      49.176   5.883  18.398  0.00  0.00    +0.000 A 
ATOM     22  H   UNL     1      48.608   3.715  15.997  0.00  0.00    +0.000 HD
ENDBRANCH  10  12
ENDBRANCH   7   9
ENDBRANCH   1   7
BRANCH   4  23
ATOM     23  C   UNL     1      47.871   7.730  12.275  0.00  0.00    +0.000 C 
BRANCH  23  24
ATOM     24  C   UNL     1      46.382   7.414  12.285  0.00  0.00    +0.000 C 
ATOM     25  O   UNL     1      45.534   8.185  11.835  0.00  0.00    +0.000 OA
ATOM     26  N   UNL     1      46.032   6.166  12.784  0.00  0.00    +0.000 N 
ATOM     27  C   UNL     1      44.646   5.719  12.676  0.00  0.00    +0.000 C 
ATOM     28  C   UNL     1      44.634   4.275  12.181  0.00  0.00    +0.000 C 
ATOM     29  N   UNL     1      45.439   3.413  13.025  0.00  0.00    +0.000 N 
ATOM     30  C   UNL     1      46.616   3.827  13.595  0.00  0.00    +0.000 C 
ATOM     31  O   UNL     1      47.367   3.012  14.121  0.00  0.00    +0.000 OA
ATOM     32  C   UNL     1      46.890   5.343  13.646  0.00  0.00    +0.000 C 
ATOM     33  H   UNL     1      45.334   2.407  12.965  0.00  0.00    +0.000 HD
ENDBRANCH  23  24
ENDBRANCH   4  23
TORSDOF 5
ENDMDL
MODEL 8
REMARK VINA RESULT:    -6.797      4.176      5.456
REMARK INTER + INTRA:          -9.846
REMARK INTER:                  -8.800
REMARK INTRA:                  -1.047
REMARK UNBOUND:                -1.063
REMARK  Name = 
REMARK  6 active torsions:
REMARK  status: ('A' for Active; 'I' for Inactive)
REMARK    1  A    between atoms: C_1  and  N_2
REMARK    2  A    between atoms: N_2  and  C_3
REMARK    3  A    between atoms: C_3  and  C_4
REMARK    4  A    between atoms: C_7  and  C_8
REMARK    5  A    between atoms: C_8  and  C_9
REMARK    6  A    between atoms: C_20  and  C_22
REMARK                            x       y       z     vdW  Elec       q    Type
REMARK                         _______ _______ _______ _____ _____    ______ ____
ROOT
ATOM      1  C   UNL     1      47.834   6.920  12.694  0.00  0.00    +0.000 A 
ATOM      2  C   UNL     1      48.617   7.105  13.845  0.00  0.00    +0.000 A 
ATOM      3  C   UNL     1      49.833   7.780  13.770  0.00  0.00    +0.000 A 
ATOM      4  C   UNL     1      50.293   8.270  12.542  0.00  0.00    +0.000 A 
ATOM      5  C   UNL     1      49.525   8.052  11.388  0.00  0.00    +0.000 A 
ATOM      6  C   UNL     1      48.304   7.382  11.460  0.00  0.00    +0.000 A 
ENDROOT
BRANCH   1   7
ATOM      7  C   UNL     1      46.485   6.261  12.795  0.00  0.00    +0.000 C 
BRANCH   7   9
ATOM      8  C   UNL     1      45.303   8.495  12.503  0.00  0.00    +0.000 C 
ATOM      9  N   UNL     1      45.320   7.042  12.359  0.00  0.00    +0.000 N 
ATOM     10  C   UNL     1      44.249   6.496  11.629  0.00  0.00    +0.000 C 
ATOM     11  O   UNL     1      43.362   7.218  11.173  0.00  0.00    +0.000 OA
BRANCH  10  12
ATOM     12  C   UNL     1      44.161   5.041  11.439  0.00  0.00    +0.000 A 
ATOM     13  C   UNL     1      43.398   4.189  12.221  0.00  0.00    +0.000 A 
ATOM     14  S   UNL     1      43.445   2.562  11.710  0.00  0.00    +0.000 S 
ATOM     15  C   UNL     1      44.360   2.967  10.336  0.00  0.00    +0.000 A 
ATOM     16  N   UNL     1      44.653   2.034   9.393  0.00  0.00    +0.000 NA
ATOM     17  C   UNL     1      45.282   2.502   8.367  0.00  0.00    +0.000 A 
ATOM     18  N   UNL     1      45.681   3.805   8.220  0.00  0.00    +0.000 N 
ATOM     19  C   UNL     1      45.529   4.752   9.212  0.00  0.00    +0.000 A 
ATOM     20  O   UNL     1      46.113   5.829   9.147  0.00  0.00    +0.000 OA
ATOM     21  C   UNL     1      44.711   4.304  10.325  0.00  0.00    +0.000 A 
ATOM     22  H   UNL     1      46.231   4.089   7.423  0.00  0.00    +0.000 HD
ENDBRANCH  10  12
ENDBRANCH   7   9
ENDBRANCH   1   7
BRANCH   4  23
ATOM     23  C   UNL     1      51.550   9.101  12.487  0.00  0.00    +0.000 C 
BRANCH  23  24
ATOM     24  C   UNL     1      52.861   8.328  12.552  0.00  0.00    +0.000 C 
ATOM     25  O   UNL     1      53.412   8.039  13.613  0.00  0.00    +0.000 OA
ATOM     26  N   UNL     1      53.379   7.913  11.332  0.00  0.00    +0.000 N 
ATOM     27  C   UNL     1      54.540   7.027  11.315  0.00  0.00    +0.000 C 
ATOM     28  C   UNL     1      54.286   5.905  10.311  0.00  0.00    +0.000 C 
ATOM     29  N   UNL     1      53.957   6.426   8.998  0.00  0.00    +0.000 N 
ATOM     30  C   UNL     1      53.198   7.554   8.820  0.00  0.00    +0.000 C 
ATOM     31  O   UNL     1      52.767   7.837   7.707  0.00  0.00    +0.000 OA
ATOM     32  C   UNL     1      53.012   8.488  10.031  0.00  0.00    +0.000 C 
ATOM     33  H   UNL     1      54.000   5.817   8.189  0.00  0.00    +0.000 HD
ENDBRANCH  23  24
ENDBRANCH   4  23
TORSDOF 5
ENDMDL
MODEL 9
REMARK VINA RESULT:    -6.758      3.066      8.027
REMARK INTER + INTRA:          -9.796
REMARK INTER:                  -8.451
REMARK INTRA:                  -1.345
REMARK UNBOUND:                -1.063
REMARK  Name = 
REMARK  6 active torsions:
REMARK  status: ('A' for Active; 'I' for Inactive)
REMARK    1  A    between atoms: C_1  and  N_2
REMARK    2  A    between atoms: N_2  and  C_3
REMARK    3  A    between atoms: C_3  and  C_4
REMARK    4  A    between atoms: C_7  and  C_8
REMARK    5  A    between atoms: C_8  and  C_9
REMARK    6  A    between atoms: C_20  and  C_22
REMARK                            x       y       z     vdW  Elec       q    Type
REMARK                         _______ _______ _______ _____ _____    ______ ____
ROOT
ATOM      1  C   UNL     1      49.735   8.223  16.037  0.00  0.00    +0.000 A 
ATOM      2  C   UNL     1      50.208   7.332  15.061  0.00  0.00    +0.000 A 
ATOM      3  C   UNL     1      49.518   7.168  13.862  0.00  0.00    +0.000 A 
ATOM      4  C   UNL     1      48.337   7.881  13.625  0.00  0.00    +0.000 A 
ATOM      5  C   UNL     1      47.848   8.744  14.617  0.00  0.00    +0.000 A 
ATOM      6  C   UNL     1      48.539   8.916  15.817  0.00  0.00    +0.000 A 
ENDROOT
BRANCH   1   7
ATOM      7  C   UNL     1      50.526   8.457  17.296  0.00  0.00    +0.000 C 
BRANCH   7   9
ATOM      8  C   UNL     1      49.078   9.328  19.197  0.00  0.00    +0.000 C 
ATOM      9  N   UNL     1      49.836   8.247  18.574  0.00  0.00    +0.000 N 
ATOM     10  C   UNL     1      49.699   6.986  19.185  0.00  0.00    +0.000 C 
ATOM     11  O   UNL     1      48.998   6.842  20.186  0.00  0.00    +0.000 OA
BRANCH  10  12
ATOM     12  C   UNL     1      50.433   5.832  18.647  0.00  0.00    +0.000 A 
ATOM     13  C   UNL     1      51.757   5.538  18.932  0.00  0.00    +0.000 A 
ATOM     14  S   UNL     1      52.308   4.092  18.214  0.00  0.00    +0.000 S 
ATOM     15  C   UNL     1      50.754   3.730  17.629  0.00  0.00    +0.000 A 
ATOM     16  N   UNL     1      50.500   2.549  17.008  0.00  0.00    +0.000 NA
ATOM     17  C   UNL     1      49.259   2.376  16.691  0.00  0.00    +0.000 A 
ATOM     18  N   UNL     1      48.264   3.295  16.898  0.00  0.00    +0.000 N 
ATOM     19  C   UNL     1      48.501   4.560  17.396  0.00  0.00    +0.000 A 
ATOM     20  O   UNL     1      47.640   5.431  17.335  0.00  0.00    +0.000 OA
ATOM     21  C   UNL     1      49.855   4.748  17.887  0.00  0.00    +0.000 A 
ATOM     22  H   UNL     1      47.327   3.125  16.562  0.00  0.00    +0.000 HD
ENDBRANCH  10  12
ENDBRANCH   7   9
ENDBRANCH   1   7
BRANCH   4  23
ATOM     23  C   UNL     1      47.660   7.788  12.281  0.00  0.00    +0.000 C 
BRANCH  23  24
ATOM     24  C   UNL     1      46.173   7.460  12.307  0.00  0.00    +0.000 C 
ATOM     25  O   UNL     1      45.310   8.244  11.910  0.00  0.00    +0.000 OA
ATOM     26  N   UNL     1      45.841   6.189  12.756  0.00  0.00    +0.000 N 
ATOM     27  C   UNL     1      44.456   5.736  12.657  0.00  0.00    +0.000 C 
ATOM     28  C   UNL     1      44.444   4.316  12.098  0.00  0.00    +0.000 C 
ATOM     29  N   UNL     1      45.271   3.423  12.886  0.00  0.00    +0.000 N 
ATOM     30  C   UNL     1      46.457   3.820  13.449  0.00  0.00    +0.000 C 
ATOM     31  O   UNL     1      47.224   2.987  13.922  0.00  0.00    +0.000 OA
ATOM     32  C   UNL     1      46.722   5.333  13.562  0.00  0.00    +0.000 C 
ATOM     33  H   UNL     1      45.172   2.420  12.782  0.00  0.00    +0.000 HD
ENDBRANCH  23  24
ENDBRANCH   4  23
TORSDOF 5
ENDMDL
