MODEL 1
REMARK VINA RESULT:    -8.129      0.000      0.000
REMARK INTER + INTRA:         -12.628
REMARK INTER:                 -11.455
REMARK INTRA:                  -1.173
REMARK UNBOUND:                -1.173
REMARK  Name = 
REMARK  8 active torsions:
REMARK  status: ('A' for Active; 'I' for Inactive)
REMARK    1  A    between atoms: C_1  and  C_2
REMARK    2  A    between atoms: C_2  and  N_3
REMARK    3  A    between atoms: C_2  and  C_25
REMARK    4  A    between atoms: N_3  and  C_4
REMARK    5  A    between atoms: C_4  and  C_5
REMARK    6  A    between atoms: C_8  and  C_9
REMARK    7  A    between atoms: C_9  and  N_10
REMARK    8  A    between atoms: C_11  and  C_13
REMARK                            x       y       z     vdW  Elec       q    Type
REMARK                         _______ _______ _______ _____ _____    ______ ____
ROOT
ATOM      1  C   UNL     1      44.731   5.703  11.164  0.00  0.00    +0.000 A 
ATOM      2  C   UNL     1      44.381   7.034  11.412  0.00  0.00    +0.000 A 
ATOM      3  C   UNL     1      45.223   7.851  12.159  0.00  0.00    +0.000 A 
ATOM      4  C   UNL     1      46.401   7.316  12.665  0.00  0.00    +0.000 A 
ATOM      5  N   UNL     1      46.785   6.037  12.414  0.00  0.00    +0.000 NA
ATOM      6  C   UNL     1      45.949   5.270  11.674  0.00  0.00    +0.000 A 
ENDROOT
BRANCH   1   7
ATOM      7  C   UNL     1      43.823   4.814  10.353  0.00  0.00    +0.000 C 
BRANCH   7   8
ATOM      8  N   UNL     1      44.357   4.549   9.019  0.00  0.00    +0.000 NA
ATOM      9  H   UNL     1      43.735   4.967   8.328  0.00  0.00    +0.000 HD
BRANCH   8  11
ATOM     10  C   UNL     1      44.483   2.198   9.934  0.00  0.00    +0.000 C 
ATOM     11  C   UNL     1      44.451   3.106   8.698  0.00  0.00    +0.000 C 
BRANCH  11  12
ATOM     12  C   UNL     1      45.685   2.786   7.851  0.00  0.00    +0.000 A 
ATOM     13  C   UNL     1      46.392   1.592   8.020  0.00  0.00    +0.000 A 
ATOM     14  C   UNL     1      47.469   1.317   7.181  0.00  0.00    +0.000 A 
ATOM     15  C   UNL     1      47.806   2.224   6.187  0.00  0.00    +0.000 A 
ATOM     16  C   UNL     1      47.057   3.384   6.081  0.00  0.00    +0.000 A 
ATOM     17  N   UNL     1      46.015   3.686   6.889  0.00  0.00    +0.000 NA
ENDBRANCH  11  12
ENDBRANCH   8  11
ENDBRANCH   7   8
ENDBRANCH   1   7
BRANCH   4  18
ATOM     18  C   UNL     1      47.302   8.157  13.534  0.00  0.00    +0.000 C 
BRANCH  18  19
ATOM     19  N   UNL     1      47.724   7.468  14.729  0.00  0.00    +0.000 N 
ATOM     20  C   UNL     1      48.983   6.955  14.885  0.00  0.00    +0.000 C 
ATOM     21  O   UNL     1      49.833   7.019  14.006  0.00  0.00    +0.000 OA
ATOM     22  H   UNL     1      46.976   7.170  15.347  0.00  0.00    +0.000 HD
BRANCH  20  23
ATOM     23  C   UNL     1      49.282   6.391  16.207  0.00  0.00    +0.000 A 
ATOM     24  C   UNL     1      50.210   7.016  17.029  0.00  0.00    +0.000 A 
ATOM     25  S   UNL     1      50.409   6.249  18.540  0.00  0.00    +0.000 S 
ATOM     26  C   UNL     1      49.293   5.030  18.130  0.00  0.00    +0.000 A 
ATOM     27  N   UNL     1      49.016   4.016  18.991  0.00  0.00    +0.000 NA
ATOM     28  C   UNL     1      48.173   3.147  18.537  0.00  0.00    +0.000 A 
ATOM     29  N   UNL     1      47.572   3.208  17.307  0.00  0.00    +0.000 N 
ATOM     30  C   UNL     1      47.775   4.247  16.432  0.00  0.00    +0.000 A 
ATOM     31  O   UNL     1      47.141   4.326  15.385  0.00  0.00    +0.000 OA
ATOM     32  C   UNL     1      48.750   5.226  16.873  0.00  0.00    +0.000 A 
ATOM     33  H   UNL     1      46.899   2.515  17.022  0.00  0.00    +0.000 HD
ENDBRANCH  20  23
ENDBRANCH  18  19
ENDBRANCH   4  18
TORSDOF 7
ENDMDL
MODEL 2
REMARK VINA RESULT:    -8.023      1.623      1.873
REMARK INTER + INTRA:         -12.480
REMARK INTER:                 -11.538
REMARK INTRA:                  -0.941
REMARK UNBOUND:                -1.173
REMARK  Name = 
REMARK  8 active torsions:
REMARK  status: ('A' for Active; 'I' for Inactive)
REMARK    1  A    between atoms: C_1  and  C_2
REMARK    2  A    between atoms: C_2  and  N_3
REMARK    3  A    between atoms: C_2  and  C_25
REMARK    4  A    between atoms: N_3  and  C_4
REMARK    5  A    between atoms: C_4  and  C_5
REMARK    6  A    between atoms: C_8  and  C_9
REMARK    7  A    between atoms: C_9  and  N_10
REMARK    8  A    between atoms: C_11  and  C_13
REMARK                            x       y       z     vdW  Elec       q    Type
REMARK                         _______ _______ _______ _____ _____    ______ ____
ROOT
ATOM      1  C   UNL     1      45.072   5.523  11.711  0.00  0.00    +0.000 A 
ATOM      2  C   UNL     1      46.087   6.218  11.047  0.00  0.00    +0.000 A 
ATOM      3  C   UNL     1      47.220   6.634  11.740  0.00  0.00    +0.000 A 
ATOM      4  C   UNL     1      47.311   6.361  13.100  0.00  0.00    +0.000 A 
ATOM      5  N   UNL     1      46.357   5.659  13.766  0.00  0.00    +0.000 NA
ATOM      6  C   UNL     1      45.272   5.259  13.061  0.00  0.00    +0.000 A 
ENDROOT
BRANCH   1   7
ATOM      7  C   UNL     1      43.844   5.068  10.964  0.00  0.00    +0.000 C 
BRANCH   7   8
ATOM      8  N   UNL     1      44.121   4.813   9.551  0.00  0.00    +0.000 NA
ATOM      9  H   UNL     1      43.375   5.225   8.991  0.00  0.00    +0.000 HD
BRANCH   8  11
ATOM     10  C   UNL     1      44.152   2.447  10.437  0.00  0.00    +0.000 C 
ATOM     11  C   UNL     1      44.168   3.372   9.212  0.00  0.00    +0.000 C 
BRANCH  11  12
ATOM     12  C   UNL     1      45.402   3.019   8.378  0.00  0.00    +0.000 A 
ATOM     13  C   UNL     1      45.912   1.718   8.349  0.00  0.00    +0.000 A 
ATOM     14  C   UNL     1      46.996   1.432   7.524  0.00  0.00    +0.000 A 
ATOM     15  C   UNL     1      47.535   2.440   6.736  0.00  0.00    +0.000 A 
ATOM     16  C   UNL     1      46.973   3.703   6.818  0.00  0.00    +0.000 A 
ATOM     17  N   UNL     1      45.930   4.014   7.619  0.00  0.00    +0.000 NA
ENDBRANCH  11  12
ENDBRANCH   8  11
ENDBRANCH   7   8
ENDBRANCH   1   7
BRANCH   4  18
ATOM     18  C   UNL     1      48.494   6.857  13.892  0.00  0.00    +0.000 C 
BRANCH  18  19
ATOM     19  N   UNL     1      48.230   6.914  15.309  0.00  0.00    +0.000 N 
ATOM     20  C   UNL     1      49.167   6.591  16.252  0.00  0.00    +0.000 C 
ATOM     21  O   UNL     1      50.289   6.199  15.958  0.00  0.00    +0.000 OA
ATOM     22  H   UNL     1      47.250   6.971  15.568  0.00  0.00    +0.000 HD
BRANCH  20  23
ATOM     23  C   UNL     1      48.772   6.818  17.647  0.00  0.00    +0.000 A 
ATOM     24  C   UNL     1      48.465   8.102  18.077  0.00  0.00    +0.000 A 
ATOM     25  S   UNL     1      47.992   8.179  19.715  0.00  0.00    +0.000 S 
ATOM     26  C   UNL     1      48.222   6.504  19.917  0.00  0.00    +0.000 A 
ATOM     27  N   UNL     1      48.016   5.910  21.122  0.00  0.00    +0.000 NA
ATOM     28  C   UNL     1      48.257   4.640  21.137  0.00  0.00    +0.000 A 
ATOM     29  N   UNL     1      48.672   3.909  20.055  0.00  0.00    +0.000 N 
ATOM     30  C   UNL     1      48.832   4.456  18.805  0.00  0.00    +0.000 A 
ATOM     31  O   UNL     1      49.100   3.754  17.836  0.00  0.00    +0.000 OA
ATOM     32  C   UNL     1      48.620   5.890  18.743  0.00  0.00    +0.000 A 
ATOM     33  H   UNL     1      48.814   2.913  20.123  0.00  0.00    +0.000 HD
ENDBRANCH  20  23
ENDBRANCH  18  19
ENDBRANCH   4  18
TORSDOF 7
ENDMDL
MODEL 3
REMARK VINA RESULT:    -7.845      2.470      3.180
REMARK INTER + INTRA:         -12.229
REMARK INTER:                 -11.222
REMARK INTRA:                  -1.007
REMARK UNBOUND:                -1.173
REMARK  Name = 
REMARK  8 active torsions:
REMARK  status: ('A' for Active; 'I' for Inactive)
REMARK    1  A    between atoms: C_1  and  C_2
REMARK    2  A    between atoms: C_2  and  N_3
REMARK    3  A    between atoms: C_2  and  C_25
REMARK    4  A    between atoms: N_3  and  C_4
REMARK    5  A    between atoms: C_4  and  C_5
REMARK    6  A    between atoms: C_8  and  C_9
REMARK    7  A    between atoms: C_9  and  N_10
REMARK    8  A    between atoms: C_11  and  C_13
REMARK                            x       y       z     vdW  Elec       q    Type
REMARK                         _______ _______ _______ _____ _____    ______ ____
ROOT
ATOM      1  C   UNL     1      45.659   5.650  11.763  0.00  0.00    +0.000 A 
ATOM      2  C   UNL     1      46.570   6.630  11.357  0.00  0.00    +0.000 A 
ATOM      3  C   UNL     1      47.618   7.001  12.194  0.00  0.00    +0.000 A 
ATOM      4  C   UNL     1      47.728   6.392  13.439  0.00  0.00    +0.000 A 
ATOM      5  N   UNL     1      46.880   5.414  13.847  0.00  0.00    +0.000 NA
ATOM      6  C   UNL     1      45.876   5.068  13.006  0.00  0.00    +0.000 A 
ENDROOT
BRANCH   1   7
ATOM      7  C   UNL     1      44.522   5.245  10.859  0.00  0.00    +0.000 C 
BRANCH   7   8
ATOM      8  N   UNL     1      44.982   4.900   9.515  0.00  0.00    +0.000 NA
ATOM      9  H   UNL     1      44.606   5.580   8.855  0.00  0.00    +0.000 HD
BRANCH   8  11
ATOM     10  C   UNL     1      44.170   2.611  10.209  0.00  0.00    +0.000 C 
ATOM     11  C   UNL     1      44.528   3.565   9.062  0.00  0.00    +0.000 C 
BRANCH  11  12
ATOM     12  C   UNL     1      45.574   2.870   8.186  0.00  0.00    +0.000 A 
ATOM     13  C   UNL     1      46.282   3.570   7.205  0.00  0.00    +0.000 A 
ATOM     14  C   UNL     1      47.269   2.911   6.479  0.00  0.00    +0.000 A 
ATOM     15  C   UNL     1      47.541   1.578   6.756  0.00  0.00    +0.000 A 
ATOM     16  C   UNL     1      46.799   0.953   7.744  0.00  0.00    +0.000 A 
ATOM     17  N   UNL     1      45.824   1.563   8.456  0.00  0.00    +0.000 NA
ENDBRANCH  11  12
ENDBRANCH   8  11
ENDBRANCH   7   8
ENDBRANCH   1   7
BRANCH   4  18
ATOM     18  C   UNL     1      48.814   6.819  14.394  0.00  0.00    +0.000 C 
BRANCH  18  19
ATOM     19  N   UNL     1      48.350   6.913  15.757  0.00  0.00    +0.000 N 
ATOM     20  C   UNL     1      48.935   6.232  16.789  0.00  0.00    +0.000 C 
ATOM     21  O   UNL     1      49.878   5.468  16.622  0.00  0.00    +0.000 OA
ATOM     22  H   UNL     1      47.426   7.315  15.876  0.00  0.00    +0.000 HD
BRANCH  20  23
ATOM     23  C   UNL     1      48.415   6.532  18.128  0.00  0.00    +0.000 A 
ATOM     24  C   UNL     1      48.202   5.501  19.033  0.00  0.00    +0.000 A 
ATOM     25  S   UNL     1      47.630   6.032  20.550  0.00  0.00    +0.000 S 
ATOM     26  C   UNL     1      47.608   7.654  20.036  0.00  0.00    +0.000 A 
ATOM     27  N   UNL     1      47.181   8.645  20.863  0.00  0.00    +0.000 NA
ATOM     28  C   UNL     1      47.191   9.823  20.331  0.00  0.00    +0.000 A 
ATOM     29  N   UNL     1      47.600  10.102  19.054  0.00  0.00    +0.000 N 
ATOM     30  C   UNL     1      48.096   9.142  18.206  0.00  0.00    +0.000 A 
ATOM     31  O   UNL     1      48.554   9.442  17.108  0.00  0.00    +0.000 OA
ATOM     32  C   UNL     1      48.064   7.793  18.737  0.00  0.00    +0.000 A 
ATOM     33  H   UNL     1      47.612  11.048  18.706  0.00  0.00    +0.000 HD
ENDBRANCH  20  23
ENDBRANCH  18  19
ENDBRANCH   4  18
TORSDOF 7
ENDMDL
MODEL 4
REMARK VINA RESULT:    -7.536      2.785      3.650
REMARK INTER + INTRA:         -11.792
REMARK INTER:                 -10.680
REMARK INTRA:                  -1.112
REMARK UNBOUND:                -1.173
REMARK  Name = 
REMARK  8 active torsions:
REMARK  status: ('A' for Active; 'I' for Inactive)
REMARK    1  A    between atoms: C_1  and  C_2
REMARK    2  A    between atoms: C_2  and  N_3
REMARK    3  A    between atoms: C_2  and  C_25
REMARK    4  A    between atoms: N_3  and  C_4
REMARK    5  A    between atoms: C_4  and  C_5
REMARK    6  A    between atoms: C_8  and  C_9
REMARK    7  A    between atoms: C_9  and  N_10
REMARK    8  A    between atoms: C_11  and  C_13
REMARK                            x       y       z     vdW  Elec       q    Type
REMARK                         _______ _______ _______ _____ _____    ______ ____
ROOT
ATOM      1  C   UNL     1      46.731   4.621  13.570  0.00  0.00    +0.000 A 
ATOM      2  C   UNL     1      46.775   4.275  14.923  0.00  0.00    +0.000 A 
ATOM      3  C   UNL     1      47.602   4.974  15.797  0.00  0.00    +0.000 A 
ATOM      4  C   UNL     1      48.389   6.004  15.295  0.00  0.00    +0.000 A 
ATOM      5  N   UNL     1      48.343   6.386  13.993  0.00  0.00    +0.000 NA
ATOM      6  C   UNL     1      47.520   5.693  13.169  0.00  0.00    +0.000 A 
ENDROOT
BRANCH   1   7
ATOM      7  C   UNL     1      45.835   3.868  12.619  0.00  0.00    +0.000 C 
BRANCH   7   8
ATOM      8  N   UNL     1      45.048   4.764  11.775  0.00  0.00    +0.000 NA
ATOM      9  H   UNL     1      44.459   5.345  12.372  0.00  0.00    +0.000 HD
BRANCH   8  11
ATOM     10  C   UNL     1      43.400   2.872  11.482  0.00  0.00    +0.000 C 
ATOM     11  C   UNL     1      44.144   4.052  10.843  0.00  0.00    +0.000 C 
BRANCH  11  12
ATOM     12  C   UNL     1      44.889   3.523   9.614  0.00  0.00    +0.000 A 
ATOM     13  C   UNL     1      45.499   4.391   8.705  0.00  0.00    +0.000 A 
ATOM     14  C   UNL     1      46.221   3.861   7.639  0.00  0.00    +0.000 A 
ATOM     15  C   UNL     1      46.332   2.484   7.512  0.00  0.00    +0.000 A 
ATOM     16  C   UNL     1      45.701   1.689   8.454  0.00  0.00    +0.000 A 
ATOM     17  N   UNL     1      44.982   2.173   9.491  0.00  0.00    +0.000 NA
ENDBRANCH  11  12
ENDBRANCH   8  11
ENDBRANCH   7   8
ENDBRANCH   1   7
BRANCH   4  18
ATOM     18  C   UNL     1      49.344   6.736  16.204  0.00  0.00    +0.000 C 
BRANCH  18  19
ATOM     19  N   UNL     1      50.409   5.892  16.689  0.00  0.00    +0.000 N 
ATOM     20  C   UNL     1      50.615   5.646  18.019  0.00  0.00    +0.000 C 
ATOM     21  O   UNL     1      49.927   6.153  18.895  0.00  0.00    +0.000 OA
ATOM     22  H   UNL     1      51.141   5.685  16.017  0.00  0.00    +0.000 HD
BRANCH  20  23
ATOM     23  C   UNL     1      51.666   4.672  18.332  0.00  0.00    +0.000 A 
ATOM     24  C   UNL     1      52.811   5.083  19.003  0.00  0.00    +0.000 A 
ATOM     25  S   UNL     1      53.910   3.816  19.317  0.00  0.00    +0.000 S 
ATOM     26  C   UNL     1      52.913   2.682  18.529  0.00  0.00    +0.000 A 
ATOM     27  N   UNL     1      53.290   1.381  18.411  0.00  0.00    +0.000 NA
ATOM     28  C   UNL     1      52.451   0.641  17.764  0.00  0.00    +0.000 A 
ATOM     29  N   UNL     1      51.265   1.079  17.237  0.00  0.00    +0.000 N 
ATOM     30  C   UNL     1      50.817   2.369  17.386  0.00  0.00    +0.000 A 
ATOM     31  O   UNL     1      49.703   2.701  16.995  0.00  0.00    +0.000 OA
ATOM     32  C   UNL     1      51.743   3.255  18.064  0.00  0.00    +0.000 A 
ATOM     33  H   UNL     1      50.638   0.445  16.768  0.00  0.00    +0.000 HD
ENDBRANCH  20  23
ENDBRANCH  18  19
ENDBRANCH   4  18
TORSDOF 7
ENDMDL
MODEL 5
REMARK VINA RESULT:    -7.209      4.421      9.677
REMARK INTER + INTRA:         -11.332
REMARK INTER:                 -10.277
REMARK INTRA:                  -1.055
REMARK UNBOUND:                -1.173
REMARK  Name = 
REMARK  8 active torsions:
REMARK  status: ('A' for Active; 'I' for Inactive)
REMARK    1  A    between atoms: C_1  and  C_2
REMARK    2  A    between atoms: C_2  and  N_3
REMARK    3  A    between atoms: C_2  and  C_25
REMARK    4  A    between atoms: N_3  and  C_4
REMARK    5  A    between atoms: C_4  and  C_5
REMARK    6  A    between atoms: C_8  and  C_9
REMARK    7  A    between atoms: C_9  and  N_10
REMARK    8  A    between atoms: C_11  and  C_13
REMARK                            x       y       z     vdW  Elec       q    Type
REMARK                         _______ _______ _______ _____ _____    ______ ____
ROOT
ATOM      1  C   UNL     1      51.299   3.795  17.738  0.00  0.00    +0.000 A 
ATOM      2  C   UNL     1      50.769   2.539  17.427  0.00  0.00    +0.000 A 
ATOM      3  C   UNL     1      49.435   2.415  17.053  0.00  0.00    +0.000 A 
ATOM      4  C   UNL     1      48.642   3.557  17.013  0.00  0.00    +0.000 A 
ATOM      5  N   UNL     1      49.136   4.794  17.276  0.00  0.00    +0.000 NA
ATOM      6  C   UNL     1      50.441   4.883  17.626  0.00  0.00    +0.000 A 
ENDROOT
BRANCH   1   7
ATOM      7  C   UNL     1      52.745   3.934  18.141  0.00  0.00    +0.000 C 
BRANCH   7   8
ATOM      8  N   UNL     1      53.125   2.970  19.172  0.00  0.00    +0.000 NA
ATOM      9  H   UNL     1      53.073   3.425  20.083  0.00  0.00    +0.000 HD
BRANCH   8  11
ATOM     10  C   UNL     1      55.409   3.366  18.168  0.00  0.00    +0.000 C 
ATOM     11  C   UNL     1      54.509   2.464  19.022  0.00  0.00    +0.000 C 
BRANCH  11  12
ATOM     12  C   UNL     1      54.544   1.060  18.413  0.00  0.00    +0.000 A 
ATOM     13  C   UNL     1      54.575   0.869  17.029  0.00  0.00    +0.000 A 
ATOM     14  C   UNL     1      54.672  -0.425  16.523  0.00  0.00    +0.000 A 
ATOM     15  C   UNL     1      54.752  -1.494  17.404  0.00  0.00    +0.000 A 
ATOM     16  C   UNL     1      54.717  -1.225  18.762  0.00  0.00    +0.000 A 
ATOM     17  N   UNL     1      54.609   0.018  19.283  0.00  0.00    +0.000 NA
ENDBRANCH  11  12
ENDBRANCH   8  11
ENDBRANCH   7   8
ENDBRANCH   1   7
BRANCH   4  18
ATOM     18  C   UNL     1      47.176   3.446  16.676  0.00  0.00    +0.000 C 
BRANCH  18  19
ATOM     19  N   UNL     1      46.758   4.416  15.692  0.00  0.00    +0.000 N 
ATOM     20  C   UNL     1      46.790   4.170  14.347  0.00  0.00    +0.000 C 
ATOM     21  O   UNL     1      47.206   3.117  13.881  0.00  0.00    +0.000 OA
ATOM     22  H   UNL     1      46.668   5.368  16.030  0.00  0.00    +0.000 HD
BRANCH  20  23
ATOM     23  C   UNL     1      46.217   5.217  13.493  0.00  0.00    +0.000 A 
ATOM     24  C   UNL     1      46.943   6.373  13.240  0.00  0.00    +0.000 A 
ATOM     25  S   UNL     1      46.144   7.466  12.201  0.00  0.00    +0.000 S 
ATOM     26  C   UNL     1      44.783   6.450  12.089  0.00  0.00    +0.000 A 
ATOM     27  N   UNL     1      43.695   6.815  11.360  0.00  0.00    +0.000 NA
ATOM     28  C   UNL     1      42.725   5.962  11.388  0.00  0.00    +0.000 A 
ATOM     29  N   UNL     1      42.748   4.772  12.067  0.00  0.00    +0.000 N 
ATOM     30  C   UNL     1      43.848   4.336  12.765  0.00  0.00    +0.000 A 
ATOM     31  O   UNL     1      43.874   3.220  13.272  0.00  0.00    +0.000 OA
ATOM     32  C   UNL     1      44.950   5.279  12.805  0.00  0.00    +0.000 A 
ATOM     33  H   UNL     1      41.969   4.134  12.026  0.00  0.00    +0.000 HD
ENDBRANCH  20  23
ENDBRANCH  18  19
ENDBRANCH   4  18
TORSDOF 7
ENDMDL
MODEL 6
REMARK VINA RESULT:    -7.185      3.255      8.207
REMARK INTER + INTRA:         -11.298
REMARK INTER:                  -9.879
REMARK INTRA:                  -1.419
REMARK UNBOUND:                -1.173
REMARK  Name = 
REMARK  8 active torsions:
REMARK  status: ('A' for Active; 'I' for Inactive)
REMARK    1  A    between atoms: C_1  and  C_2
REMARK    2  A    between atoms: C_2  and  N_3
REMARK    3  A    between atoms: C_2  and  C_25
REMARK    4  A    between atoms: N_3  and  C_4
REMARK    5  A    between atoms: C_4  and  C_5
REMARK    6  A    between atoms: C_8  and  C_9
REMARK    7  A    between atoms: C_9  and  N_10
REMARK    8  A    between atoms: C_11  and  C_13
REMARK                            x       y       z     vdW  Elec       q    Type
REMARK                         _______ _______ _______ _____ _____    ______ ____
ROOT
ATOM      1  C   UNL     1      48.743   7.693  16.695  0.00  0.00    +0.000 A 
ATOM      2  C   UNL     1      48.301   8.853  16.052  0.00  0.00    +0.000 A 
ATOM      3  C   UNL     1      48.213   8.893  14.664  0.00  0.00    +0.000 A 
ATOM      4  C   UNL     1      48.588   7.769  13.936  0.00  0.00    +0.000 A 
ATOM      5  N   UNL     1      48.989   6.617  14.533  0.00  0.00    +0.000 NA
ATOM      6  C   UNL     1      49.054   6.606  15.886  0.00  0.00    +0.000 A 
ENDROOT
BRANCH   1   7
ATOM      7  C   UNL     1      48.839   7.645  18.199  0.00  0.00    +0.000 C 
BRANCH   7   8
ATOM      8  N   UNL     1      47.694   6.967  18.803  0.00  0.00    +0.000 NA
ATOM      9  H   UNL     1      47.262   7.593  19.482  0.00  0.00    +0.000 HD
BRANCH   8  11
ATOM     10  C   UNL     1      49.308   5.874  20.409  0.00  0.00    +0.000 C 
ATOM     11  C   UNL     1      48.059   5.729  19.531  0.00  0.00    +0.000 C 
BRANCH  11  12
ATOM     12  C   UNL     1      48.292   4.552  18.579  0.00  0.00    +0.000 A 
ATOM     13  C   UNL     1      47.270   4.070  17.756  0.00  0.00    +0.000 A 
ATOM     14  C   UNL     1      47.548   3.041  16.861  0.00  0.00    +0.000 A 
ATOM     15  C   UNL     1      48.836   2.528  16.794  0.00  0.00    +0.000 A 
ATOM     16  C   UNL     1      49.794   3.059  17.641  0.00  0.00    +0.000 A 
ATOM     17  N   UNL     1      49.552   4.048  18.530  0.00  0.00    +0.000 NA
ENDBRANCH  11  12
ENDBRANCH   8  11
ENDBRANCH   7   8
ENDBRANCH   1   7
BRANCH   4  18
ATOM     18  C   UNL     1      48.566   7.804  12.429  0.00  0.00    +0.000 C 
BRANCH  18  19
ATOM     19  N   UNL     1      47.753   6.757  11.860  0.00  0.00    +0.000 N 
ATOM     20  C   UNL     1      46.406   6.890  11.657  0.00  0.00    +0.000 C 
ATOM     21  O   UNL     1      45.791   7.900  11.973  0.00  0.00    +0.000 OA
ATOM     22  H   UNL     1      48.178   5.836  11.843  0.00  0.00    +0.000 HD
BRANCH  20  23
ATOM     23  C   UNL     1      45.753   5.776  10.960  0.00  0.00    +0.000 A 
ATOM     24  C   UNL     1      45.872   5.660   9.581  0.00  0.00    +0.000 A 
ATOM     25  S   UNL     1      45.082   4.290   8.942  0.00  0.00    +0.000 S 
ATOM     26  C   UNL     1      44.519   3.828  10.480  0.00  0.00    +0.000 A 
ATOM     27  N   UNL     1      43.735   2.728  10.638  0.00  0.00    +0.000 NA
ATOM     28  C   UNL     1      43.358   2.513  11.855  0.00  0.00    +0.000 A 
ATOM     29  N   UNL     1      43.702   3.290  12.930  0.00  0.00    +0.000 N 
ATOM     30  C   UNL     1      44.540   4.373  12.826  0.00  0.00    +0.000 A 
ATOM     31  O   UNL     1      44.914   4.983  13.823  0.00  0.00    +0.000 OA
ATOM     32  C   UNL     1      44.956   4.687  11.472  0.00  0.00    +0.000 A 
ATOM     33  H   UNL     1      43.399   3.053  13.862  0.00  0.00    +0.000 HD
ENDBRANCH  20  23
ENDBRANCH  18  19
ENDBRANCH   4  18
TORSDOF 7
ENDMDL
MODEL 7
REMARK VINA RESULT:    -7.096      2.858      8.628
REMARK INTER + INTRA:         -11.173
REMARK INTER:                  -9.486
REMARK INTRA:                  -1.687
REMARK UNBOUND:                -1.173
REMARK  Name = 
REMARK  8 active torsions:
REMARK  status: ('A' for Active; 'I' for Inactive)
REMARK    1  A    between atoms: C_1  and  C_2
REMARK    2  A    between atoms: C_2  and  N_3
REMARK    3  A    between atoms: C_2  and  C_25
REMARK    4  A    between atoms: N_3  and  C_4
REMARK    5  A    between atoms: C_4  and  C_5
REMARK    6  A    between atoms: C_8  and  C_9
REMARK    7  A    between atoms: C_9  and  N_10
REMARK    8  A    between atoms: C_11  and  C_13
REMARK                            x       y       z     vdW  Elec       q    Type
REMARK                         _______ _______ _______ _____ _____    ______ ____
ROOT
ATOM      1  C   UNL     1      48.651   8.071  16.078  0.00  0.00    +0.000 A 
ATOM      2  C   UNL     1      49.028   6.915  15.387  0.00  0.00    +0.000 A 
ATOM      3  C   UNL     1      48.695   6.762  14.045  0.00  0.00    +0.000 A 
ATOM      4  C   UNL     1      47.970   7.768  13.415  0.00  0.00    +0.000 A 
ATOM      5  N   UNL     1      47.619   8.917  14.050  0.00  0.00    +0.000 NA
ATOM      6  C   UNL     1      47.967   9.040  15.353  0.00  0.00    +0.000 A 
ENDROOT
BRANCH   1   7
ATOM      7  C   UNL     1      49.011   8.241  17.532  0.00  0.00    +0.000 C 
BRANCH   7   8
ATOM      8  N   UNL     1      48.067   7.562  18.417  0.00  0.00    +0.000 NA
ATOM      9  H   UNL     1      47.733   8.227  19.114  0.00  0.00    +0.000 HD
BRANCH   8  11
ATOM     10  C   UNL     1      50.158   6.611  19.468  0.00  0.00    +0.000 C 
ATOM     11  C   UNL     1      48.667   6.428  19.157  0.00  0.00    +0.000 C 
BRANCH  11  12
ATOM     12  C   UNL     1      48.506   5.103  18.406  0.00  0.00    +0.000 A 
ATOM     13  C   UNL     1      47.284   4.733  17.839  0.00  0.00    +0.000 A 
ATOM     14  C   UNL     1      47.204   3.550  17.109  0.00  0.00    +0.000 A 
ATOM     15  C   UNL     1      48.343   2.773  16.947  0.00  0.00    +0.000 A 
ATOM     16  C   UNL     1      49.518   3.208  17.538  0.00  0.00    +0.000 A 
ATOM     17  N   UNL     1      49.623   4.343  18.264  0.00  0.00    +0.000 NA
ENDBRANCH  11  12
ENDBRANCH   8  11
ENDBRANCH   7   8
ENDBRANCH   1   7
BRANCH   4  18
ATOM     18  C   UNL     1      47.538   7.603  11.980  0.00  0.00    +0.000 C 
BRANCH  18  19
ATOM     19  N   UNL     1      46.802   6.382  11.759  0.00  0.00    +0.000 N 
ATOM     20  C   UNL     1      45.435   6.323  11.789  0.00  0.00    +0.000 C 
ATOM     21  O   UNL     1      44.740   7.300  12.037  0.00  0.00    +0.000 OA
ATOM     22  H   UNL     1      47.346   5.528  11.819  0.00  0.00    +0.000 HD
BRANCH  20  23
ATOM     23  C   UNL     1      44.845   5.030  11.425  0.00  0.00    +0.000 A 
ATOM     24  C   UNL     1      44.047   4.354  12.339  0.00  0.00    +0.000 A 
ATOM     25  S   UNL     1      43.414   2.887  11.739  0.00  0.00    +0.000 S 
ATOM     26  C   UNL     1      44.220   3.084  10.252  0.00  0.00    +0.000 A 
ATOM     27  N   UNL     1      44.124   2.144   9.275  0.00  0.00    +0.000 NA
ATOM     28  C   UNL     1      44.810   2.410   8.212  0.00  0.00    +0.000 A 
ATOM     29  N   UNL     1      45.571   3.536   8.033  0.00  0.00    +0.000 N 
ATOM     30  C   UNL     1      45.646   4.538   8.968  0.00  0.00    +0.000 A 
ATOM     31  O   UNL     1      46.250   5.580   8.732  0.00  0.00    +0.000 OA
ATOM     32  C   UNL     1      44.932   4.269  10.201  0.00  0.00    +0.000 A 
ATOM     33  H   UNL     1      46.061   3.700   7.167  0.00  0.00    +0.000 HD
ENDBRANCH  20  23
ENDBRANCH  18  19
ENDBRANCH   4  18
TORSDOF 7
ENDMDL
MODEL 8
REMARK VINA RESULT:    -7.093      1.770      2.023
REMARK INTER + INTRA:         -11.168
REMARK INTER:                 -10.325
REMARK INTRA:                  -0.843
REMARK UNBOUND:                -1.173
REMARK  Name = 
REMARK  8 active torsions:
REMARK  status: ('A' for Active; 'I' for Inactive)
REMARK    1  A    between atoms: C_1  and  C_2
REMARK    2  A    between atoms: C_2  and  N_3
REMARK    3  A    between atoms: C_2  and  C_25
REMARK    4  A    between atoms: N_3  and  C_4
REMARK    5  A    between atoms: C_4  and  C_5
REMARK    6  A    between atoms: C_8  and  C_9
REMARK    7  A    between atoms: C_9  and  N_10
REMARK    8  A    between atoms: C_11  and  C_13
REMARK                            x       y       z     vdW  Elec       q    Type
REMARK                         _______ _______ _______ _____ _____    ______ ____
ROOT
ATOM      1  C   UNL     1      44.821   5.944  11.283  0.00  0.00    +0.000 A 
ATOM      2  C   UNL     1      46.056   5.416  11.668  0.00  0.00    +0.000 A 
ATOM      3  C   UNL     1      46.900   6.144  12.501  0.00  0.00    +0.000 A 
ATOM      4  C   UNL     1      46.498   7.405  12.925  0.00  0.00    +0.000 A 
ATOM      5  N   UNL     1      45.290   7.931  12.596  0.00  0.00    +0.000 NA
ATOM      6  C   UNL     1      44.487   7.194  11.792  0.00  0.00    +0.000 A 
ENDROOT
BRANCH   1   7
ATOM      7  C   UNL     1      43.903   5.158  10.382  0.00  0.00    +0.000 C 
BRANCH   7   8
ATOM      8  N   UNL     1      44.553   4.775   9.130  0.00  0.00    +0.000 NA
ATOM      9  H   UNL     1      44.072   5.233   8.357  0.00  0.00    +0.000 HD
BRANCH   8  11
ATOM     10  C   UNL     1      44.509   2.458  10.134  0.00  0.00    +0.000 C 
ATOM     11  C   UNL     1      44.507   3.319   8.864  0.00  0.00    +0.000 C 
BRANCH  11  12
ATOM     12  C   UNL     1      45.674   2.859   7.987  0.00  0.00    +0.000 A 
ATOM     13  C   UNL     1      46.212   1.575   8.108  0.00  0.00    +0.000 A 
ATOM     14  C   UNL     1      47.229   1.180   7.243  0.00  0.00    +0.000 A 
ATOM     15  C   UNL     1      47.674   2.063   6.269  0.00  0.00    +0.000 A 
ATOM     16  C   UNL     1      47.090   3.318   6.211  0.00  0.00    +0.000 A 
ATOM     17  N   UNL     1      46.112   3.735   7.045  0.00  0.00    +0.000 NA
ENDBRANCH  11  12
ENDBRANCH   8  11
ENDBRANCH   7   8
ENDBRANCH   1   7
BRANCH   4  18
ATOM     18  C   UNL     1      47.418   8.245  13.774  0.00  0.00    +0.000 C 
BRANCH  18  19
ATOM     19  N   UNL     1      48.140   7.466  14.750  0.00  0.00    +0.000 N 
ATOM     20  C   UNL     1      48.662   8.007  15.894  0.00  0.00    +0.000 C 
ATOM     21  O   UNL     1      48.577   9.201  16.154  0.00  0.00    +0.000 OA
ATOM     22  H   UNL     1      48.452   6.554  14.435  0.00  0.00    +0.000 HD
BRANCH  20  23
ATOM     23  C   UNL     1      49.261   7.054  16.834  0.00  0.00    +0.000 A 
ATOM     24  C   UNL     1      50.358   6.296  16.443  0.00  0.00    +0.000 A 
ATOM     25  S   UNL     1      50.949   5.268  17.670  0.00  0.00    +0.000 S 
ATOM     26  C   UNL     1      49.734   5.770  18.752  0.00  0.00    +0.000 A 
ATOM     27  N   UNL     1      49.647   5.240  20.001  0.00  0.00    +0.000 NA
ATOM     28  C   UNL     1      48.660   5.691  20.703  0.00  0.00    +0.000 A 
ATOM     29  N   UNL     1      47.760   6.632  20.274  0.00  0.00    +0.000 N 
ATOM     30  C   UNL     1      47.847   7.237  19.044  0.00  0.00    +0.000 A 
ATOM     31  O   UNL     1      47.090   8.151  18.734  0.00  0.00    +0.000 OA
ATOM     32  C   UNL     1      48.911   6.733  18.197  0.00  0.00    +0.000 A 
ATOM     33  H   UNL     1      47.028   6.966  20.881  0.00  0.00    +0.000 HD
ENDBRANCH  20  23
ENDBRANCH  18  19
ENDBRANCH   4  18
TORSDOF 7
ENDMDL
MODEL 9
REMARK VINA RESULT:    -6.829      2.376      4.088
REMARK INTER + INTRA:         -10.796
REMARK INTER:                  -9.991
REMARK INTRA:                  -0.805
REMARK UNBOUND:                -1.173
REMARK  Name = 
REMARK  8 active torsions:
REMARK  status: ('A' for Active; 'I' for Inactive)
REMARK    1  A    between atoms: C_1  and  C_2
REMARK    2  A    between atoms: C_2  and  N_3
REMARK    3  A    between atoms: C_2  and  C_25
REMARK    4  A    between atoms: N_3  and  C_4
REMARK    5  A    between atoms: C_4  and  C_5
REMARK    6  A    between atoms: C_8  and  C_9
REMARK    7  A    between atoms: C_9  and  N_10
REMARK    8  A    between atoms: C_11  and  C_13
REMARK                            x       y       z     vdW  Elec       q    Type
REMARK                         _______ _______ _______ _____ _____    ______ ____
ROOT
ATOM      1  C   UNL     1      44.443   3.652  11.935  0.00  0.00    +0.000 A 
ATOM      2  C   UNL     1      44.336   4.936  12.478  0.00  0.00    +0.000 A 
ATOM      3  C   UNL     1      45.231   5.358  13.457  0.00  0.00    +0.000 A 
ATOM      4  C   UNL     1      46.214   4.477  13.891  0.00  0.00    +0.000 A 
ATOM      5  N   UNL     1      46.365   3.236  13.359  0.00  0.00    +0.000 NA
ATOM      6  C   UNL     1      45.485   2.858  12.401  0.00  0.00    +0.000 A 
ENDROOT
BRANCH   1   7
ATOM      7  C   UNL     1      43.477   3.191  10.874  0.00  0.00    +0.000 C 
BRANCH   7   8
ATOM      8  N   UNL     1      43.870   3.636   9.538  0.00  0.00    +0.000 NA
ATOM      9  H   UNL     1      43.666   2.893   8.871  0.00  0.00    +0.000 HD
BRANCH   8  11
ATOM     10  C   UNL     1      45.624   5.421   9.193  0.00  0.00    +0.000 C 
ATOM     11  C   UNL     1      45.316   3.935   9.420  0.00  0.00    +0.000 C 
BRANCH  11  12
ATOM     12  C   UNL     1      45.974   3.144   8.286  0.00  0.00    +0.000 A 
ATOM     13  C   UNL     1      46.196   1.769   8.393  0.00  0.00    +0.000 A 
ATOM     14  C   UNL     1      46.737   1.082   7.309  0.00  0.00    +0.000 A 
ATOM     15  C   UNL     1      47.029   1.775   6.143  0.00  0.00    +0.000 A 
ATOM     16  C   UNL     1      46.779   3.136   6.113  0.00  0.00    +0.000 A 
ATOM     17  N   UNL     1      46.268   3.833   7.152  0.00  0.00    +0.000 NA
ENDBRANCH  11  12
ENDBRANCH   8  11
ENDBRANCH   7   8
ENDBRANCH   1   7
BRANCH   4  18
ATOM     18  C   UNL     1      47.157   4.881  14.996  0.00  0.00    +0.000 C 
BRANCH  18  19
ATOM     19  N   UNL     1      47.649   6.229  14.842  0.00  0.00    +0.000 N 
ATOM     20  C   UNL     1      48.866   6.634  15.318  0.00  0.00    +0.000 C 
ATOM     21  O   UNL     1      49.611   5.886  15.938  0.00  0.00    +0.000 OA
ATOM     22  H   UNL     1      46.953   6.919  14.580  0.00  0.00    +0.000 HD
BRANCH  20  23
ATOM     23  C   UNL     1      49.262   8.003  14.972  0.00  0.00    +0.000 A 
ATOM     24  C   UNL     1      49.744   8.853  15.960  0.00  0.00    +0.000 A 
ATOM     25  S   UNL     1      50.191  10.393  15.376  0.00  0.00    +0.000 S 
ATOM     26  C   UNL     1      49.717   9.991  13.791  0.00  0.00    +0.000 A 
ATOM     27  N   UNL     1      49.811  10.897  12.782  0.00  0.00    +0.000 NA
ATOM     28  C   UNL     1      49.388  10.466  11.639  0.00  0.00    +0.000 A 
ATOM     29  N   UNL     1      48.893   9.208  11.411  0.00  0.00    +0.000 N 
ATOM     30  C   UNL     1      48.838   8.243  12.387  0.00  0.00    +0.000 A 
ATOM     31  O   UNL     1      48.490   7.096  12.124  0.00  0.00    +0.000 OA
ATOM     32  C   UNL     1      49.257   8.690  13.702  0.00  0.00    +0.000 A 
ATOM     33  H   UNL     1      48.607   8.921  10.489  0.00  0.00    +0.000 HD
ENDBRANCH  20  23
ENDBRANCH  18  19
ENDBRANCH   4  18
TORSDOF 7
ENDMDL
