MODEL 1
REMARK VINA RESULT:    -8.568      0.000      0.000
REMARK INTER + INTRA:         -10.192
REMARK INTER:                 -10.571
REMARK INTRA:                   0.379
REMARK UNBOUND:                 0.379
REMARK  Name = 
REMARK  4 active torsions:
REMARK  status: ('A' for Active; 'I' for Inactive)
REMARK    1  A    between atoms: C_2  and  C_3
REMARK    2  A    between atoms: C_6  and  C_7
REMARK    3  A    between atoms: C_7  and  N_8
REMARK    4  A    between atoms: C_12  and  C_13
REMARK                            x       y       z     vdW  Elec       q    Type
REMARK                         _______ _______ _______ _____ _____    ______ ____
ROOT
ATOM      1  N   UNL     1      44.249   5.154   9.810  0.00  0.00    +0.000 N 
ATOM      2  C   UNL     1      44.975   4.179   9.120  0.00  0.00    +0.000 A 
ATOM      3  C   UNL     1      44.971   2.841   9.496  0.00  0.00    +0.000 A 
ATOM      4  C   UNL     1      45.701   1.907   8.761  0.00  0.00    +0.000 A 
ATOM      5  C   UNL     1      46.429   2.329   7.655  0.00  0.00    +0.000 A 
ATOM      6  C   UNL     1      46.373   3.680   7.338  0.00  0.00    +0.000 A 
ATOM      7  N   UNL     1      45.663   4.603   8.043  0.00  0.00    +0.000 NA
ATOM      8  H   UNL     1      44.483   6.058   9.406  0.00  0.00    +0.000 HD
ENDROOT
BRANCH   5   9
ATOM      9  C   UNL     1      47.251   1.427   6.814  0.00  0.00    +0.000 C 
ATOM     10  N   UNL     1      48.250   1.975   6.057  0.00  0.00    +0.000 N 
ATOM     11  O   UNL     1      47.044   0.222   6.787  0.00  0.00    +0.000 OA
ATOM     12  H   UNL     1      48.499   2.951   6.028  0.00  0.00    +0.000 HD
ATOM     13  H   UNL     1      48.794   1.339   5.489  0.00  0.00    +0.000 HD
ENDBRANCH   5   9
BRANCH   1  14
ATOM     14  C   UNL     1      43.917   5.054  11.240  0.00  0.00    +0.000 C 
ATOM     15  C   UNL     1      42.496   5.327  11.702  0.00  0.00    +0.000 C 
ATOM     16  C   UNL     1      42.990   3.919  11.656  0.00  0.00    +0.000 C 
BRANCH  14  20
ATOM     17  C   UNL     1      47.190   5.907  13.815  0.00  0.00    +0.000 A 
ATOM     18  N   UNL     1      46.862   4.613  13.656  0.00  0.00    +0.000 NA
ATOM     19  C   UNL     1      45.817   4.375  12.835  0.00  0.00    +0.000 A 
ATOM     20  C   UNL     1      45.083   5.345  12.168  0.00  0.00    +0.000 A 
ATOM     21  C   UNL     1      45.515   6.634  12.446  0.00  0.00    +0.000 A 
ATOM     22  N   UNL     1      46.557   6.949  13.248  0.00  0.00    +0.000 NA
BRANCH  17  24
ATOM     23  N   UNL     1      49.267   6.425  15.296  0.00  0.00    +0.000 NA
ATOM     24  C   UNL     1      48.335   6.198  14.636  0.00  0.00    +0.000 C 
ENDBRANCH  17  24
ENDBRANCH  14  20
ENDBRANCH   1  14
TORSDOF 4
ENDMDL
MODEL 2
REMARK VINA RESULT:    -7.576      3.008      6.926
REMARK INTER + INTRA:          -8.968
REMARK INTER:                  -8.883
REMARK INTRA:                  -0.084
REMARK UNBOUND:                 0.379
REMARK  Name = 
REMARK  4 active torsions:
REMARK  status: ('A' for Active; 'I' for Inactive)
REMARK    1  A    between atoms: C_2  and  C_3
REMARK    2  A    between atoms: C_6  and  C_7
REMARK    3  A    between atoms: C_7  and  N_8
REMARK    4  A    between atoms: C_12  and  C_13
REMARK                            x       y       z     vdW  Elec       q    Type
REMARK                         _______ _______ _______ _____ _____    ______ ____
ROOT
ATOM      1  N   UNL     1      44.455   5.912  10.887  0.00  0.00    +0.000 N 
ATOM      2  C   UNL     1      45.360   6.597  11.704  0.00  0.00    +0.000 A 
ATOM      3  C   UNL     1      46.596   6.067  12.054  0.00  0.00    +0.000 A 
ATOM      4  C   UNL     1      47.468   6.800  12.859  0.00  0.00    +0.000 A 
ATOM      5  C   UNL     1      47.087   8.060  13.303  0.00  0.00    +0.000 A 
ATOM      6  C   UNL     1      45.841   8.524  12.901  0.00  0.00    +0.000 A 
ATOM      7  N   UNL     1      44.980   7.822  12.114  0.00  0.00    +0.000 NA
ATOM      8  H   UNL     1      43.597   6.459  10.850  0.00  0.00    +0.000 HD
ENDROOT
BRANCH   5   9
ATOM      9  C   UNL     1      47.926   8.917  14.174  0.00  0.00    +0.000 C 
ATOM     10  N   UNL     1      47.493   9.172  15.447  0.00  0.00    +0.000 N 
ATOM     11  O   UNL     1      48.977   9.394  13.771  0.00  0.00    +0.000 OA
ATOM     12  H   UNL     1      46.650   8.811  15.866  0.00  0.00    +0.000 HD
ATOM     13  H   UNL     1      48.081   9.762  16.021  0.00  0.00    +0.000 HD
ENDBRANCH   5   9
BRANCH   1  14
ATOM     14  C   UNL     1      44.395   4.446  10.799  0.00  0.00    +0.000 C 
ATOM     15  C   UNL     1      44.200   3.625  12.063  0.00  0.00    +0.000 C 
ATOM     16  C   UNL     1      43.057   3.790  11.116  0.00  0.00    +0.000 C 
BRANCH  14  20
ATOM     17  C   UNL     1      46.578   2.776   7.556  0.00  0.00    +0.000 A 
ATOM     18  N   UNL     1      46.473   4.116   7.593  0.00  0.00    +0.000 NA
ATOM     19  C   UNL     1      45.771   4.615   8.633  0.00  0.00    +0.000 A 
ATOM     20  C   UNL     1      45.171   3.862   9.631  0.00  0.00    +0.000 A 
ATOM     21  C   UNL     1      45.337   2.496   9.451  0.00  0.00    +0.000 A 
ATOM     22  N   UNL     1      46.033   1.925   8.443  0.00  0.00    +0.000 NA
BRANCH  17  24
ATOM     23  N   UNL     1      48.013   1.759   5.637  0.00  0.00    +0.000 NA
ATOM     24  C   UNL     1      47.368   2.209   6.496  0.00  0.00    +0.000 C 
ENDBRANCH  17  24
ENDBRANCH  14  20
ENDBRANCH   1  14
TORSDOF 4
ENDMDL
MODEL 3
REMARK VINA RESULT:    -7.085      1.739      2.284
REMARK INTER + INTRA:          -8.362
REMARK INTER:                  -8.044
REMARK INTRA:                  -0.318
REMARK UNBOUND:                 0.379
REMARK  Name = 
REMARK  4 active torsions:
REMARK  status: ('A' for Active; 'I' for Inactive)
REMARK    1  A    between atoms: C_2  and  C_3
REMARK    2  A    between atoms: C_6  and  C_7
REMARK    3  A    between atoms: C_7  and  N_8
REMARK    4  A    between atoms: C_12  and  C_13
REMARK                            x       y       z     vdW  Elec       q    Type
REMARK                         _______ _______ _______ _____ _____    ______ ____
ROOT
ATOM      1  N   UNL     1      44.585   3.930  11.475  0.00  0.00    +0.000 N 
ATOM      2  C   UNL     1      45.121   3.663  10.211  0.00  0.00    +0.000 A 
ATOM      3  C   UNL     1      45.645   4.660   9.398  0.00  0.00    +0.000 A 
ATOM      4  C   UNL     1      46.182   4.336   8.153  0.00  0.00    +0.000 A 
ATOM      5  C   UNL     1      46.187   3.009   7.738  0.00  0.00    +0.000 A 
ATOM      6  C   UNL     1      45.655   2.070   8.613  0.00  0.00    +0.000 A 
ATOM      7  N   UNL     1      45.130   2.370   9.832  0.00  0.00    +0.000 NA
ATOM      8  H   UNL     1      44.187   3.063  11.831  0.00  0.00    +0.000 HD
ENDROOT
BRANCH   5   9
ATOM      9  C   UNL     1      46.718   2.555   6.431  0.00  0.00    +0.000 C 
ATOM     10  N   UNL     1      46.860   3.478   5.431  0.00  0.00    +0.000 N 
ATOM     11  O   UNL     1      47.017   1.385   6.240  0.00  0.00    +0.000 OA
ATOM     12  H   UNL     1      46.653   4.462   5.503  0.00  0.00    +0.000 HD
ATOM     13  H   UNL     1      47.221   3.143   4.547  0.00  0.00    +0.000 HD
ENDBRANCH   5   9
BRANCH   1  14
ATOM     14  C   UNL     1      43.979   5.219  11.840  0.00  0.00    +0.000 C 
ATOM     15  C   UNL     1      42.632   5.609  11.254  0.00  0.00    +0.000 C 
ATOM     16  C   UNL     1      42.710   5.173  12.680  0.00  0.00    +0.000 C 
BRANCH  14  20
ATOM     17  C   UNL     1      46.805   8.215  12.891  0.00  0.00    +0.000 A 
ATOM     18  N   UNL     1      45.803   8.584  12.073  0.00  0.00    +0.000 NA
ATOM     19  C   UNL     1      44.924   7.609  11.755  0.00  0.00    +0.000 A 
ATOM     20  C   UNL     1      44.986   6.297  12.201  0.00  0.00    +0.000 A 
ATOM     21  C   UNL     1      46.084   6.054  13.013  0.00  0.00    +0.000 A 
ATOM     22  N   UNL     1      46.999   6.979  13.382  0.00  0.00    +0.000 NA
BRANCH  17  24
ATOM     23  N   UNL     1      48.471  10.072  13.638  0.00  0.00    +0.000 NA
ATOM     24  C   UNL     1      47.729   9.239  13.299  0.00  0.00    +0.000 C 
ENDBRANCH  17  24
ENDBRANCH  14  20
ENDBRANCH   1  14
TORSDOF 4
ENDMDL
MODEL 4
REMARK VINA RESULT:    -6.635      2.917      6.820
REMARK INTER + INTRA:          -7.807
REMARK INTER:                  -7.623
REMARK INTRA:                  -0.183
REMARK UNBOUND:                 0.379
REMARK  Name = 
REMARK  4 active torsions:
REMARK  status: ('A' for Active; 'I' for Inactive)
REMARK    1  A    between atoms: C_2  and  C_3
REMARK    2  A    between atoms: C_6  and  C_7
REMARK    3  A    between atoms: C_7  and  N_8
REMARK    4  A    between atoms: C_12  and  C_13
REMARK                            x       y       z     vdW  Elec       q    Type
REMARK                         _______ _______ _______ _____ _____    ______ ____
ROOT
ATOM      1  N   UNL     1      45.657   5.558  11.853  0.00  0.00    +0.000 N 
ATOM      2  C   UNL     1      46.246   5.059  13.019  0.00  0.00    +0.000 A 
ATOM      3  C   UNL     1      46.443   3.700  13.231  0.00  0.00    +0.000 A 
ATOM      4  C   UNL     1      47.050   3.257  14.406  0.00  0.00    +0.000 A 
ATOM      5  C   UNL     1      47.454   4.188  15.356  0.00  0.00    +0.000 A 
ATOM      6  C   UNL     1      47.233   5.528  15.064  0.00  0.00    +0.000 A 
ATOM      7  N   UNL     1      46.644   5.976  13.922  0.00  0.00    +0.000 NA
ATOM      8  H   UNL     1      45.540   6.563  11.971  0.00  0.00    +0.000 HD
ENDROOT
BRANCH   5   9
ATOM      9  C   UNL     1      48.094   3.829  16.644  0.00  0.00    +0.000 C 
ATOM     10  N   UNL     1      47.290   3.588  17.724  0.00  0.00    +0.000 N 
ATOM     11  O   UNL     1      49.310   3.754  16.749  0.00  0.00    +0.000 OA
ATOM     12  H   UNL     1      46.282   3.613  17.726  0.00  0.00    +0.000 HD
ATOM     13  H   UNL     1      47.750   3.348  18.593  0.00  0.00    +0.000 HD
ENDBRANCH   5   9
BRANCH   1  14
ATOM     14  C   UNL     1      44.692   4.798  11.046  0.00  0.00    +0.000 C 
ATOM     15  C   UNL     1      43.551   4.065  11.732  0.00  0.00    +0.000 C 
ATOM     16  C   UNL     1      43.266   5.330  10.993  0.00  0.00    +0.000 C 
BRANCH  14  20
ATOM     17  C   UNL     1      46.273   3.337   7.380  0.00  0.00    +0.000 A 
ATOM     18  N   UNL     1      45.650   2.446   8.172  0.00  0.00    +0.000 NA
ATOM     19  C   UNL     1      45.162   2.941   9.330  0.00  0.00    +0.000 A 
ATOM     20  C   UNL     1      45.259   4.261   9.743  0.00  0.00    +0.000 A 
ATOM     21  C   UNL     1      45.948   5.059   8.841  0.00  0.00    +0.000 A 
ATOM     22  N   UNL     1      46.456   4.639   7.661  0.00  0.00    +0.000 NA
BRANCH  17  24
ATOM     23  N   UNL     1      47.156   2.475   5.088  0.00  0.00    +0.000 NA
ATOM     24  C   UNL     1      46.756   2.862   6.111  0.00  0.00    +0.000 C 
ENDBRANCH  17  24
ENDBRANCH  14  20
ENDBRANCH   1  14
TORSDOF 4
ENDMDL
MODEL 5
REMARK VINA RESULT:    -6.607      2.761      6.570
REMARK INTER + INTRA:          -7.773
REMARK INTER:                  -8.094
REMARK INTRA:                   0.321
REMARK UNBOUND:                 0.379
REMARK  Name = 
REMARK  4 active torsions:
REMARK  status: ('A' for Active; 'I' for Inactive)
REMARK    1  A    between atoms: C_2  and  C_3
REMARK    2  A    between atoms: C_6  and  C_7
REMARK    3  A    between atoms: C_7  and  N_8
REMARK    4  A    between atoms: C_12  and  C_13
REMARK                            x       y       z     vdW  Elec       q    Type
REMARK                         _______ _______ _______ _____ _____    ______ ____
ROOT
ATOM      1  N   UNL     1      44.390   4.608  12.815  0.00  0.00    +0.000 N 
ATOM      2  C   UNL     1      45.588   5.185  13.249  0.00  0.00    +0.000 A 
ATOM      3  C   UNL     1      45.985   6.459  12.860  0.00  0.00    +0.000 A 
ATOM      4  C   UNL     1      47.182   6.993  13.336  0.00  0.00    +0.000 A 
ATOM      5  C   UNL     1      47.968   6.239  14.199  0.00  0.00    +0.000 A 
ATOM      6  C   UNL     1      47.497   4.980  14.550  0.00  0.00    +0.000 A 
ATOM      7  N   UNL     1      46.330   4.446  14.096  0.00  0.00    +0.000 NA
ATOM      8  H   UNL     1      44.367   3.649  13.157  0.00  0.00    +0.000 HD
ENDROOT
BRANCH   5   9
ATOM      9  C   UNL     1      49.263   6.701  14.752  0.00  0.00    +0.000 C 
ATOM     10  N   UNL     1      50.093   7.429  13.943  0.00  0.00    +0.000 N 
ATOM     11  O   UNL     1      49.593   6.438  15.899  0.00  0.00    +0.000 OA
ATOM     12  H   UNL     1      49.897   7.704  12.993  0.00  0.00    +0.000 HD
ATOM     13  H   UNL     1      50.973   7.729  14.342  0.00  0.00    +0.000 HD
ENDBRANCH   5   9
BRANCH   1  14
ATOM     14  C   UNL     1      43.746   4.946  11.537  0.00  0.00    +0.000 C 
ATOM     15  C   UNL     1      42.248   5.190  11.492  0.00  0.00    +0.000 C 
ATOM     16  C   UNL     1      43.180   6.353  11.400  0.00  0.00    +0.000 C 
BRANCH  14  20
ATOM     17  C   UNL     1      45.737   3.335   8.144  0.00  0.00    +0.000 A 
ATOM     18  N   UNL     1      45.944   4.637   8.409  0.00  0.00    +0.000 NA
ATOM     19  C   UNL     1      45.295   5.119   9.491  0.00  0.00    +0.000 A 
ATOM     20  C   UNL     1      44.457   4.385  10.317  0.00  0.00    +0.000 A 
ATOM     21  C   UNL     1      44.317   3.067   9.909  0.00  0.00    +0.000 A 
ATOM     22  N   UNL     1      44.940   2.511   8.846  0.00  0.00    +0.000 NA
BRANCH  17  24
ATOM     23  N   UNL     1      47.047   2.309   6.142  0.00  0.00    +0.000 NA
ATOM     24  C   UNL     1      46.456   2.769   7.034  0.00  0.00    +0.000 C 
ENDBRANCH  17  24
ENDBRANCH  14  20
ENDBRANCH   1  14
TORSDOF 4
ENDMDL
MODEL 6
REMARK VINA RESULT:    -6.297      4.257      6.865
REMARK INTER + INTRA:          -7.390
REMARK INTER:                  -7.546
REMARK INTRA:                   0.155
REMARK UNBOUND:                 0.379
REMARK  Name = 
REMARK  4 active torsions:
REMARK  status: ('A' for Active; 'I' for Inactive)
REMARK    1  A    between atoms: C_2  and  C_3
REMARK    2  A    between atoms: C_6  and  C_7
REMARK    3  A    between atoms: C_7  and  N_8
REMARK    4  A    between atoms: C_12  and  C_13
REMARK                            x       y       z     vdW  Elec       q    Type
REMARK                         _______ _______ _______ _____ _____    ______ ____
ROOT
ATOM      1  N   UNL     1      47.160   3.721  15.748  0.00  0.00    +0.000 N 
ATOM      2  C   UNL     1      46.799   4.435  14.601  0.00  0.00    +0.000 A 
ATOM      3  C   UNL     1      47.608   5.423  14.053  0.00  0.00    +0.000 A 
ATOM      4  C   UNL     1      47.207   6.093  12.898  0.00  0.00    +0.000 A 
ATOM      5  C   UNL     1      45.994   5.762  12.305  0.00  0.00    +0.000 A 
ATOM      6  C   UNL     1      45.248   4.756  12.907  0.00  0.00    +0.000 A 
ATOM      7  N   UNL     1      45.628   4.091  14.032  0.00  0.00    +0.000 NA
ATOM      8  H   UNL     1      46.374   3.126  16.002  0.00  0.00    +0.000 HD
ENDROOT
BRANCH   5   9
ATOM      9  C   UNL     1      45.464   6.420  11.087  0.00  0.00    +0.000 C 
ATOM     10  N   UNL     1      45.568   5.759   9.894  0.00  0.00    +0.000 N 
ATOM     11  O   UNL     1      44.949   7.528  11.138  0.00  0.00    +0.000 OA
ATOM     12  H   UNL     1      45.962   4.841   9.761  0.00  0.00    +0.000 HD
ATOM     13  H   UNL     1      45.202   6.230   9.077  0.00  0.00    +0.000 HD
ENDBRANCH   5   9
BRANCH   1  14
ATOM     14  C   UNL     1      48.037   4.264  16.796  0.00  0.00    +0.000 C 
ATOM     15  C   UNL     1      48.035   5.757  17.078  0.00  0.00    +0.000 C 
ATOM     16  C   UNL     1      47.361   4.832  18.036  0.00  0.00    +0.000 C 
BRANCH  14  20
ATOM     17  C   UNL     1      51.546   1.957  17.455  0.00  0.00    +0.000 A 
ATOM     18  N   UNL     1      51.591   3.251  17.821  0.00  0.00    +0.000 NA
ATOM     19  C   UNL     1      50.462   3.957  17.596  0.00  0.00    +0.000 A 
ATOM     20  C   UNL     1      49.300   3.453  17.030  0.00  0.00    +0.000 A 
ATOM     21  C   UNL     1      49.407   2.116  16.677  0.00  0.00    +0.000 A 
ATOM     22  N   UNL     1      50.498   1.343  16.880  0.00  0.00    +0.000 NA
BRANCH  17  24
ATOM     23  N   UNL     1      53.655   0.512  17.947  0.00  0.00    +0.000 NA
ATOM     24  C   UNL     1      52.709   1.157  17.732  0.00  0.00    +0.000 C 
ENDBRANCH  17  24
ENDBRANCH  14  20
ENDBRANCH   1  14
TORSDOF 4
ENDMDL
MODEL 7
REMARK VINA RESULT:    -5.985      5.263      6.712
REMARK INTER + INTRA:          -7.006
REMARK INTER:                  -6.831
REMARK INTRA:                  -0.175
REMARK UNBOUND:                 0.379
REMARK  Name = 
REMARK  4 active torsions:
REMARK  status: ('A' for Active; 'I' for Inactive)
REMARK    1  A    between atoms: C_2  and  C_3
REMARK    2  A    between atoms: C_6  and  C_7
REMARK    3  A    between atoms: C_7  and  N_8
REMARK    4  A    between atoms: C_12  and  C_13
REMARK                            x       y       z     vdW  Elec       q    Type
REMARK                         _______ _______ _______ _____ _____    ______ ____
ROOT
ATOM      1  N   UNL     1      47.589   8.964  12.973  0.00  0.00    +0.000 N 
ATOM      2  C   UNL     1      46.358   9.130  12.333  0.00  0.00    +0.000 A 
ATOM      3  C   UNL     1      45.555   8.055  11.969  0.00  0.00    +0.000 A 
ATOM      4  C   UNL     1      44.328   8.278  11.346  0.00  0.00    +0.000 A 
ATOM      5  C   UNL     1      43.919   9.582  11.096  0.00  0.00    +0.000 A 
ATOM      6  C   UNL     1      44.771  10.602  11.500  0.00  0.00    +0.000 A 
ATOM      7  N   UNL     1      45.970  10.401  12.111  0.00  0.00    +0.000 NA
ATOM      8  H   UNL     1      48.023   9.882  13.051  0.00  0.00    +0.000 HD
ENDROOT
BRANCH   5   9
ATOM      9  C   UNL     1      42.643   9.934  10.428  0.00  0.00    +0.000 C 
ATOM     10  N   UNL     1      41.472   9.529  11.008  0.00  0.00    +0.000 N 
ATOM     11  O   UNL     1      42.629  10.564   9.380  0.00  0.00    +0.000 OA
ATOM     12  H   UNL     1      41.388   9.020  11.874  0.00  0.00    +0.000 HD
ATOM     13  H   UNL     1      40.615   9.778  10.531  0.00  0.00    +0.000 HD
ENDBRANCH   5   9
BRANCH   1  14
ATOM     14  C   UNL     1      48.429   7.767  12.814  0.00  0.00    +0.000 C 
ATOM     15  C   UNL     1      48.958   7.399  11.438  0.00  0.00    +0.000 C 
ATOM     16  C   UNL     1      49.888   7.992  12.443  0.00  0.00    +0.000 C 
BRANCH  14  20
ATOM     17  C   UNL     1      47.619   4.704  15.648  0.00  0.00    +0.000 A 
ATOM     18  N   UNL     1      48.363   5.743  16.070  0.00  0.00    +0.000 NA
ATOM     19  C   UNL     1      48.605   6.697  15.145  0.00  0.00    +0.000 A 
ATOM     20  C   UNL     1      48.153   6.676  13.834  0.00  0.00    +0.000 A 
ATOM     21  C   UNL     1      47.424   5.535  13.532  0.00  0.00    +0.000 A 
ATOM     22  N   UNL     1      47.133   4.545  14.405  0.00  0.00    +0.000 NA
BRANCH  17  24
ATOM     23  N   UNL     1      47.026   2.886  17.414  0.00  0.00    +0.000 NA
ATOM     24  C   UNL     1      47.290   3.696  16.619  0.00  0.00    +0.000 C 
ENDBRANCH  17  24
ENDBRANCH  14  20
ENDBRANCH   1  14
TORSDOF 4
ENDMDL
MODEL 8
REMARK VINA RESULT:    -5.927      3.379      5.329
REMARK INTER + INTRA:          -6.933
REMARK INTER:                  -6.629
REMARK INTRA:                  -0.305
REMARK UNBOUND:                 0.379
REMARK  Name = 
REMARK  4 active torsions:
REMARK  status: ('A' for Active; 'I' for Inactive)
REMARK    1  A    between atoms: C_2  and  C_3
REMARK    2  A    between atoms: C_6  and  C_7
REMARK    3  A    between atoms: C_7  and  N_8
REMARK    4  A    between atoms: C_12  and  C_13
REMARK                            x       y       z     vdW  Elec       q    Type
REMARK                         _______ _______ _______ _____ _____    ______ ____
ROOT
ATOM      1  N   UNL     1      46.974   7.989  12.245  0.00  0.00    +0.000 N 
ATOM      2  C   UNL     1      46.301   6.773  12.103  0.00  0.00    +0.000 A 
ATOM      3  C   UNL     1      46.645   5.640  12.832  0.00  0.00    +0.000 A 
ATOM      4  C   UNL     1      45.928   4.456  12.663  0.00  0.00    +0.000 A 
ATOM      5  C   UNL     1      44.871   4.423  11.762  0.00  0.00    +0.000 A 
ATOM      6  C   UNL     1      44.581   5.599  11.081  0.00  0.00    +0.000 A 
ATOM      7  N   UNL     1      45.269   6.762  11.236  0.00  0.00    +0.000 NA
ATOM      8  H   UNL     1      46.603   8.632  11.548  0.00  0.00    +0.000 HD
ENDROOT
BRANCH   5   9
ATOM      9  C   UNL     1      44.053   3.217  11.493  0.00  0.00    +0.000 C 
ATOM     10  N   UNL     1      43.720   2.409  12.546  0.00  0.00    +0.000 N 
ATOM     11  O   UNL     1      43.686   2.939  10.360  0.00  0.00    +0.000 OA
ATOM     12  H   UNL     1      43.965   2.567  13.511  0.00  0.00    +0.000 HD
ATOM     13  H   UNL     1      43.164   1.590  12.336  0.00  0.00    +0.000 HD
ENDBRANCH   5   9
BRANCH   1  14
ATOM     14  C   UNL     1      48.382   8.090  12.658  0.00  0.00    +0.000 C 
ATOM     15  C   UNL     1      49.474   7.575  11.736  0.00  0.00    +0.000 C 
ATOM     16  C   UNL     1      49.266   9.047  11.869  0.00  0.00    +0.000 C 
BRANCH  14  20
ATOM     17  C   UNL     1      48.968   7.981  16.867  0.00  0.00    +0.000 A 
ATOM     18  N   UNL     1      48.216   8.985  16.383  0.00  0.00    +0.000 NA
ATOM     19  C   UNL     1      48.051   8.994  15.043  0.00  0.00    +0.000 A 
ATOM     20  C   UNL     1      48.590   8.067  14.162  0.00  0.00    +0.000 A 
ATOM     21  C   UNL     1      49.363   7.106  14.797  0.00  0.00    +0.000 A 
ATOM     22  N   UNL     1      49.566   7.028  16.131  0.00  0.00    +0.000 NA
BRANCH  17  24
ATOM     23  N   UNL     1      49.236   7.851  19.453  0.00  0.00    +0.000 NA
ATOM     24  C   UNL     1      49.119   7.903  18.295  0.00  0.00    +0.000 C 
ENDBRANCH  17  24
ENDBRANCH  14  20
ENDBRANCH   1  14
TORSDOF 4
ENDMDL
MODEL 9
REMARK VINA RESULT:    -5.587      3.619      5.788
REMARK INTER + INTRA:          -6.515
REMARK INTER:                  -6.602
REMARK INTRA:                   0.088
REMARK UNBOUND:                 0.379
REMARK  Name = 
REMARK  4 active torsions:
REMARK  status: ('A' for Active; 'I' for Inactive)
REMARK    1  A    between atoms: C_2  and  C_3
REMARK    2  A    between atoms: C_6  and  C_7
REMARK    3  A    between atoms: C_7  and  N_8
REMARK    4  A    between atoms: C_12  and  C_13
REMARK                            x       y       z     vdW  Elec       q    Type
REMARK                         _______ _______ _______ _____ _____    ______ ____
ROOT
ATOM      1  N   UNL     1      47.965   6.372  13.701  0.00  0.00    +0.000 N 
ATOM      2  C   UNL     1      46.985   5.874  12.837  0.00  0.00    +0.000 A 
ATOM      3  C   UNL     1      46.742   6.429  11.586  0.00  0.00    +0.000 A 
ATOM      4  C   UNL     1      45.763   5.882  10.757  0.00  0.00    +0.000 A 
ATOM      5  C   UNL     1      45.037   4.781  11.195  0.00  0.00    +0.000 A 
ATOM      6  C   UNL     1      45.347   4.278  12.452  0.00  0.00    +0.000 A 
ATOM      7  N   UNL     1      46.301   4.798  13.271  0.00  0.00    +0.000 NA
ATOM      8  H   UNL     1      47.889   5.863  14.580  0.00  0.00    +0.000 HD
ENDROOT
BRANCH   5   9
ATOM      9  C   UNL     1      43.965   4.131  10.405  0.00  0.00    +0.000 C 
ATOM     10  N   UNL     1      43.904   4.384   9.061  0.00  0.00    +0.000 N 
ATOM     11  O   UNL     1      43.147   3.391  10.933  0.00  0.00    +0.000 OA
ATOM     12  H   UNL     1      44.542   4.966   8.541  0.00  0.00    +0.000 HD
ATOM     13  H   UNL     1      43.162   3.931   8.544  0.00  0.00    +0.000 HD
ENDBRANCH   5   9
BRANCH   1  14
ATOM     14  C   UNL     1      48.405   7.775  13.701  0.00  0.00    +0.000 C 
ATOM     15  C   UNL     1      47.370   8.887  13.720  0.00  0.00    +0.000 C 
ATOM     16  C   UNL     1      48.137   8.582  14.964  0.00  0.00    +0.000 C 
BRANCH  14  20
ATOM     17  C   UNL     1      52.150   8.386  11.785  0.00  0.00    +0.000 A 
ATOM     18  N   UNL     1      52.124   8.511  13.123  0.00  0.00    +0.000 NA
ATOM     19  C   UNL     1      50.919   8.314  13.702  0.00  0.00    +0.000 A 
ATOM     20  C   UNL     1      49.747   8.004  13.028  0.00  0.00    +0.000 A 
ATOM     21  C   UNL     1      49.917   7.934  11.653  0.00  0.00    +0.000 A 
ATOM     22  N   UNL     1      51.090   8.109  11.005  0.00  0.00    +0.000 NA
BRANCH  17  24
ATOM     23  N   UNL     1      54.460   8.638  10.610  0.00  0.00    +0.000 NA
ATOM     24  C   UNL     1      53.426   8.531  11.137  0.00  0.00    +0.000 C 
ENDBRANCH  17  24
ENDBRANCH  14  20
ENDBRANCH   1  14
TORSDOF 4
ENDMDL
