MODEL 1
REMARK VINA RESULT:    -8.629      0.000      0.000
REMARK INTER + INTRA:         -12.899
REMARK INTER:                 -12.160
REMARK INTRA:                  -0.739
REMARK UNBOUND:                -0.739
REMARK  Name = 
REMARK  8 active torsions:
REMARK  status: ('A' for Active; 'I' for Inactive)
REMARK    1  A    between atoms: C_1  and  C_2
REMARK    2  A    between atoms: C_2  and  N_3
REMARK    3  A    between atoms: C_2  and  C_25
REMARK    4  A    between atoms: N_3  and  C_4
REMARK    5  A    between atoms: C_4  and  C_5
REMARK    6  A    between atoms: C_8  and  C_9
REMARK    7  A    between atoms: C_9  and  N_10
REMARK    8  A    between atoms: C_11  and  C_13
REMARK                            x       y       z     vdW  Elec       q    Type
REMARK                         _______ _______ _______ _____ _____    ______ ____
ROOT
ATOM      1  C   UNL     1      45.477   6.292  12.192  0.00  0.00    +0.000 C 
ATOM      2  C   UNL     1      45.441   5.287  13.357  0.00  0.00    +0.000 C 
ATOM      3  C   UNL     1      46.786   4.600  13.589  0.00  0.00    +0.000 C 
ATOM      4  C   UNL     1      47.954   5.589  13.772  0.00  0.00    +0.000 C 
ATOM      5  C   UNL     1      47.994   6.562  12.587  0.00  0.00    +0.000 C 
ATOM      6  C   UNL     1      46.656   7.270  12.367  0.00  0.00    +0.000 C 
ENDROOT
BRANCH   1   7
ATOM      7  C   UNL     1      45.530   5.624  10.797  0.00  0.00    +0.000 C 
BRANCH   7   8
ATOM      8  N   UNL     1      44.192   5.477  10.224  0.00  0.00    +0.000 NA
ATOM      9  H   UNL     1      43.497   5.788  10.904  0.00  0.00    +0.000 HD
BRANCH   8  11
ATOM     10  C   UNL     1      43.683   3.194  11.139  0.00  0.00    +0.000 C 
ATOM     11  C   UNL     1      43.848   4.077   9.895  0.00  0.00    +0.000 C 
BRANCH  11  12
ATOM     12  C   UNL     1      44.907   3.474   8.972  0.00  0.00    +0.000 A 
ATOM     13  C   UNL     1      45.259   2.126   9.077  0.00  0.00    +0.000 A 
ATOM     14  C   UNL     1      46.203   1.601   8.201  0.00  0.00    +0.000 A 
ATOM     15  C   UNL     1      46.785   2.433   7.255  0.00  0.00    +0.000 A 
ATOM     16  C   UNL     1      46.403   3.764   7.231  0.00  0.00    +0.000 A 
ATOM     17  N   UNL     1      45.484   4.302   8.063  0.00  0.00    +0.000 NA
ENDBRANCH  11  12
ENDBRANCH   8  11
ENDBRANCH   7   8
ENDBRANCH   1   7
BRANCH   4  18
ATOM     18  C   UNL     1      47.933   6.358  15.111  0.00  0.00    +0.000 C 
BRANCH  18  19
ATOM     19  N   UNL     1      48.963   5.875  16.003  0.00  0.00    +0.000 N 
ATOM     20  C   UNL     1      48.763   4.910  16.957  0.00  0.00    +0.000 C 
ATOM     21  O   UNL     1      47.654   4.479  17.254  0.00  0.00    +0.000 OA
ATOM     22  H   UNL     1      49.905   5.973  15.650  0.00  0.00    +0.000 HD
BRANCH  20  23
ATOM     23  C   UNL     1      49.981   4.474  17.653  0.00  0.00    +0.000 A 
ATOM     24  C   UNL     1      50.634   5.328  18.531  0.00  0.00    +0.000 A 
ATOM     25  S   UNL     1      52.073   4.671  19.174  0.00  0.00    +0.000 S 
ATOM     26  C   UNL     1      51.847   3.204  18.343  0.00  0.00    +0.000 A 
ATOM     27  N   UNL     1      52.739   2.183  18.454  0.00  0.00    +0.000 NA
ATOM     28  C   UNL     1      52.424   1.122  17.786  0.00  0.00    +0.000 A 
ATOM     29  N   UNL     1      51.298   0.986  17.018  0.00  0.00    +0.000 N 
ATOM     30  C   UNL     1      50.377   1.992  16.861  0.00  0.00    +0.000 A 
ATOM     31  O   UNL     1      49.399   1.844  16.138  0.00  0.00    +0.000 OA
ATOM     32  C   UNL     1      50.689   3.214  17.584  0.00  0.00    +0.000 A 
ATOM     33  H   UNL     1      51.108   0.131  16.518  0.00  0.00    +0.000 HD
ENDBRANCH  20  23
ENDBRANCH  18  19
ENDBRANCH   4  18
TORSDOF 7
ENDMDL
MODEL 2
REMARK VINA RESULT:    -8.360      2.151      2.669
REMARK INTER + INTRA:         -12.520
REMARK INTER:                 -11.484
REMARK INTRA:                  -1.036
REMARK UNBOUND:                -0.739
REMARK  Name = 
REMARK  8 active torsions:
REMARK  status: ('A' for Active; 'I' for Inactive)
REMARK    1  A    between atoms: C_1  and  C_2
REMARK    2  A    between atoms: C_2  and  N_3
REMARK    3  A    between atoms: C_2  and  C_25
REMARK    4  A    between atoms: N_3  and  C_4
REMARK    5  A    between atoms: C_4  and  C_5
REMARK    6  A    between atoms: C_8  and  C_9
REMARK    7  A    between atoms: C_9  and  N_10
REMARK    8  A    between atoms: C_11  and  C_13
REMARK                            x       y       z     vdW  Elec       q    Type
REMARK                         _______ _______ _______ _____ _____    ______ ____
ROOT
ATOM      1  C   UNL     1      43.721   6.259  11.685  0.00  0.00    +0.000 C 
ATOM      2  C   UNL     1      44.169   5.826  13.093  0.00  0.00    +0.000 C 
ATOM      3  C   UNL     1      45.460   5.008  13.079  0.00  0.00    +0.000 C 
ATOM      4  C   UNL     1      46.618   5.708  12.342  0.00  0.00    +0.000 C 
ATOM      5  C   UNL     1      46.165   6.104  10.930  0.00  0.00    +0.000 C 
ATOM      6  C   UNL     1      44.886   6.943  10.942  0.00  0.00    +0.000 C 
ENDROOT
BRANCH   1   7
ATOM      7  C   UNL     1      43.141   5.103  10.834  0.00  0.00    +0.000 C 
BRANCH   7   8
ATOM      8  N   UNL     1      44.059   4.717   9.762  0.00  0.00    +0.000 NA
ATOM      9  H   UNL     1      43.732   5.111   8.878  0.00  0.00    +0.000 HD
BRANCH   8  11
ATOM     10  C   UNL     1      44.297   2.476  10.869  0.00  0.00    +0.000 C 
ATOM     11  C   UNL     1      44.137   3.255   9.557  0.00  0.00    +0.000 C 
BRANCH  11  12
ATOM     12  C   UNL     1      45.289   2.913   8.612  0.00  0.00    +0.000 A 
ATOM     13  C   UNL     1      45.881   3.903   7.824  0.00  0.00    +0.000 A 
ATOM     14  C   UNL     1      46.948   3.565   6.998  0.00  0.00    +0.000 A 
ATOM     15  C   UNL     1      47.387   2.249   6.964  0.00  0.00    +0.000 A 
ATOM     16  C   UNL     1      46.731   1.320   7.754  0.00  0.00    +0.000 A 
ATOM     17  N   UNL     1      45.697   1.618   8.572  0.00  0.00    +0.000 NA
ENDBRANCH  11  12
ENDBRANCH   8  11
ENDBRANCH   7   8
ENDBRANCH   1   7
BRANCH   4  18
ATOM     18  C   UNL     1      47.207   6.924  13.090  0.00  0.00    +0.000 C 
BRANCH  18  19
ATOM     19  N   UNL     1      47.588   6.570  14.437  0.00  0.00    +0.000 N 
ATOM     20  C   UNL     1      48.854   6.721  14.942  0.00  0.00    +0.000 C 
ATOM     21  O   UNL     1      49.822   7.019  14.251  0.00  0.00    +0.000 OA
ATOM     22  H   UNL     1      46.831   6.584  15.107  0.00  0.00    +0.000 HD
BRANCH  20  23
ATOM     23  C   UNL     1      48.981   6.429  16.377  0.00  0.00    +0.000 A 
ATOM     24  C   UNL     1      49.458   7.395  17.252  0.00  0.00    +0.000 A 
ATOM     25  S   UNL     1      49.612   6.838  18.859  0.00  0.00    +0.000 S 
ATOM     26  C   UNL     1      48.999   5.304  18.452  0.00  0.00    +0.000 A 
ATOM     27  N   UNL     1      48.867   4.324  19.386  0.00  0.00    +0.000 NA
ATOM     28  C   UNL     1      48.365   3.221  18.937  0.00  0.00    +0.000 A 
ATOM     29  N   UNL     1      47.982   3.007  17.640  0.00  0.00    +0.000 N 
ATOM     30  C   UNL     1      48.111   3.958  16.657  0.00  0.00    +0.000 A 
ATOM     31  O   UNL     1      47.788   3.716  15.500  0.00  0.00    +0.000 OA
ATOM     32  C   UNL     1      48.681   5.217  17.107  0.00  0.00    +0.000 A 
ATOM     33  H   UNL     1      47.597   2.121  17.348  0.00  0.00    +0.000 HD
ENDBRANCH  20  23
ENDBRANCH  18  19
ENDBRANCH   4  18
TORSDOF 7
ENDMDL
MODEL 3
REMARK VINA RESULT:    -7.906      2.637      3.474
REMARK INTER + INTRA:         -11.881
REMARK INTER:                 -11.406
REMARK INTRA:                  -0.475
REMARK UNBOUND:                -0.739
REMARK  Name = 
REMARK  8 active torsions:
REMARK  status: ('A' for Active; 'I' for Inactive)
REMARK    1  A    between atoms: C_1  and  C_2
REMARK    2  A    between atoms: C_2  and  N_3
REMARK    3  A    between atoms: C_2  and  C_25
REMARK    4  A    between atoms: N_3  and  C_4
REMARK    5  A    between atoms: C_4  and  C_5
REMARK    6  A    between atoms: C_8  and  C_9
REMARK    7  A    between atoms: C_9  and  N_10
REMARK    8  A    between atoms: C_11  and  C_13
REMARK                            x       y       z     vdW  Elec       q    Type
REMARK                         _______ _______ _______ _____ _____    ______ ____
ROOT
ATOM      1  C   UNL     1      43.862   6.220  11.946  0.00  0.00    +0.000 C 
ATOM      2  C   UNL     1      44.287   5.481  13.228  0.00  0.00    +0.000 C 
ATOM      3  C   UNL     1      45.567   4.666  13.046  0.00  0.00    +0.000 C 
ATOM      4  C   UNL     1      46.743   5.493  12.491  0.00  0.00    +0.000 C 
ATOM      5  C   UNL     1      46.312   6.196  11.198  0.00  0.00    +0.000 C 
ATOM      6  C   UNL     1      45.045   7.032  11.382  0.00  0.00    +0.000 C 
ENDROOT
BRANCH   1   7
ATOM      7  C   UNL     1      43.277   5.288  10.857  0.00  0.00    +0.000 C 
BRANCH   7   8
ATOM      8  N   UNL     1      44.298   4.898   9.883  0.00  0.00    +0.000 NA
ATOM      9  H   UNL     1      44.196   5.466   9.041  0.00  0.00    +0.000 HD
BRANCH   8  11
ATOM     10  C   UNL     1      44.144   2.503  10.622  0.00  0.00    +0.000 C 
ATOM     11  C   UNL     1      44.182   3.490   9.448  0.00  0.00    +0.000 C 
BRANCH  11  12
ATOM     12  C   UNL     1      45.334   3.130   8.509  0.00  0.00    +0.000 A 
ATOM     13  C   UNL     1      45.833   1.826   8.463  0.00  0.00    +0.000 A 
ATOM     14  C   UNL     1      46.860   1.524   7.575  0.00  0.00    +0.000 A 
ATOM     15  C   UNL     1      47.375   2.530   6.768  0.00  0.00    +0.000 A 
ATOM     16  C   UNL     1      46.845   3.803   6.891  0.00  0.00    +0.000 A 
ATOM     17  N   UNL     1      45.843   4.126   7.738  0.00  0.00    +0.000 NA
ENDBRANCH  11  12
ENDBRANCH   8  11
ENDBRANCH   7   8
ENDBRANCH   1   7
BRANCH   4  18
ATOM     18  C   UNL     1      47.339   6.506  13.493  0.00  0.00    +0.000 C 
BRANCH  18  19
ATOM     19  N   UNL     1      47.509   5.907  14.797  0.00  0.00    +0.000 N 
ATOM     20  C   UNL     1      48.634   6.055  15.569  0.00  0.00    +0.000 C 
ATOM     21  O   UNL     1      49.666   6.575  15.160  0.00  0.00    +0.000 OA
ATOM     22  H   UNL     1      46.648   5.713  15.288  0.00  0.00    +0.000 HD
BRANCH  20  23
ATOM     23  C   UNL     1      48.533   5.476  16.916  0.00  0.00    +0.000 A 
ATOM     24  C   UNL     1      48.686   4.110  17.108  0.00  0.00    +0.000 A 
ATOM     25  S   UNL     1      48.452   3.622  18.727  0.00  0.00    +0.000 S 
ATOM     26  C   UNL     1      48.190   5.224  19.237  0.00  0.00    +0.000 A 
ATOM     27  N   UNL     1      47.925   5.517  20.539  0.00  0.00    +0.000 NA
ATOM     28  C   UNL     1      47.774   6.778  20.783  0.00  0.00    +0.000 A 
ATOM     29  N   UNL     1      47.863   7.773  19.845  0.00  0.00    +0.000 N 
ATOM     30  C   UNL     1      48.110   7.525  18.517  0.00  0.00    +0.000 A 
ATOM     31  O   UNL     1      48.149   8.440  17.702  0.00  0.00    +0.000 OA
ATOM     32  C   UNL     1      48.280   6.120  18.186  0.00  0.00    +0.000 A 
ATOM     33  H   UNL     1      47.733   8.741  20.097  0.00  0.00    +0.000 HD
ENDBRANCH  20  23
ENDBRANCH  18  19
ENDBRANCH   4  18
TORSDOF 7
ENDMDL
MODEL 4
REMARK VINA RESULT:    -7.698      2.287      2.881
REMARK INTER + INTRA:         -11.587
REMARK INTER:                 -10.372
REMARK INTRA:                  -1.215
REMARK UNBOUND:                -0.739
REMARK  Name = 
REMARK  8 active torsions:
REMARK  status: ('A' for Active; 'I' for Inactive)
REMARK    1  A    between atoms: C_1  and  C_2
REMARK    2  A    between atoms: C_2  and  N_3
REMARK    3  A    between atoms: C_2  and  C_25
REMARK    4  A    between atoms: N_3  and  C_4
REMARK    5  A    between atoms: C_4  and  C_5
REMARK    6  A    between atoms: C_8  and  C_9
REMARK    7  A    between atoms: C_9  and  N_10
REMARK    8  A    between atoms: C_11  and  C_13
REMARK                            x       y       z     vdW  Elec       q    Type
REMARK                         _______ _______ _______ _____ _____    ______ ____
ROOT
ATOM      1  C   UNL     1      45.657   6.286  12.149  0.00  0.00    +0.000 C 
ATOM      2  C   UNL     1      46.122   5.832  13.544  0.00  0.00    +0.000 C 
ATOM      3  C   UNL     1      47.641   5.708  13.651  0.00  0.00    +0.000 C 
ATOM      4  C   UNL     1      48.390   6.987  13.229  0.00  0.00    +0.000 C 
ATOM      5  C   UNL     1      47.937   7.407  11.824  0.00  0.00    +0.000 C 
ATOM      6  C   UNL     1      46.418   7.556  11.721  0.00  0.00    +0.000 C 
ENDROOT
BRANCH   1   7
ATOM      7  C   UNL     1      45.780   5.189  11.065  0.00  0.00    +0.000 C 
BRANCH   7   8
ATOM      8  N   UNL     1      44.766   5.353  10.022  0.00  0.00    +0.000 NA
ATOM      9  H   UNL     1      43.984   5.893  10.393  0.00  0.00    +0.000 HD
BRANCH   8  11
ATOM     10  C   UNL     1      43.775   3.149  10.705  0.00  0.00    +0.000 C 
ATOM     11  C   UNL     1      44.197   4.071   9.554  0.00  0.00    +0.000 C 
BRANCH  11  12
ATOM     12  C   UNL     1      45.196   3.346   8.652  0.00  0.00    +0.000 A 
ATOM     13  C   UNL     1      45.508   2.002   8.872  0.00  0.00    +0.000 A 
ATOM     14  C   UNL     1      46.397   1.362   8.014  0.00  0.00    +0.000 A 
ATOM     15  C   UNL     1      46.964   2.080   6.970  0.00  0.00    +0.000 A 
ATOM     16  C   UNL     1      46.625   3.415   6.834  0.00  0.00    +0.000 A 
ATOM     17  N   UNL     1      45.760   4.062   7.646  0.00  0.00    +0.000 NA
ENDBRANCH  11  12
ENDBRANCH   8  11
ENDBRANCH   7   8
ENDBRANCH   1   7
BRANCH   4  18
ATOM     18  C   UNL     1      48.254   8.161  14.222  0.00  0.00    +0.000 C 
BRANCH  18  19
ATOM     19  N   UNL     1      48.165   7.683  15.582  0.00  0.00    +0.000 N 
ATOM     20  C   UNL     1      48.897   8.190  16.625  0.00  0.00    +0.000 C 
ATOM     21  O   UNL     1      49.816   8.988  16.475  0.00  0.00    +0.000 OA
ATOM     22  H   UNL     1      47.283   7.250  15.819  0.00  0.00    +0.000 HD
BRANCH  20  23
ATOM     23  C   UNL     1      48.543   7.649  17.945  0.00  0.00    +0.000 A 
ATOM     24  C   UNL     1      48.033   8.481  18.932  0.00  0.00    +0.000 A 
ATOM     25  S   UNL     1      47.763   7.684  20.418  0.00  0.00    +0.000 S 
ATOM     26  C   UNL     1      48.269   6.190  19.779  0.00  0.00    +0.000 A 
ATOM     27  N   UNL     1      48.285   5.064  20.542  0.00  0.00    +0.000 NA
ATOM     28  C   UNL     1      48.669   4.000  19.916  0.00  0.00    +0.000 A 
ATOM     29  N   UNL     1      49.036   3.957  18.598  0.00  0.00    +0.000 N 
ATOM     30  C   UNL     1      49.053   5.069  17.792  0.00  0.00    +0.000 A 
ATOM     31  O   UNL     1      49.421   4.996  16.625  0.00  0.00    +0.000 OA
ATOM     32  C   UNL     1      48.639   6.297  18.450  0.00  0.00    +0.000 A 
ATOM     33  H   UNL     1      49.329   3.094  18.165  0.00  0.00    +0.000 HD
ENDBRANCH  20  23
ENDBRANCH  18  19
ENDBRANCH   4  18
TORSDOF 7
ENDMDL
MODEL 5
REMARK VINA RESULT:    -7.535      1.523      2.018
REMARK INTER + INTRA:         -11.358
REMARK INTER:                 -10.223
REMARK INTRA:                  -1.136
REMARK UNBOUND:                -0.739
REMARK  Name = 
REMARK  8 active torsions:
REMARK  status: ('A' for Active; 'I' for Inactive)
REMARK    1  A    between atoms: C_1  and  C_2
REMARK    2  A    between atoms: C_2  and  N_3
REMARK    3  A    between atoms: C_2  and  C_25
REMARK    4  A    between atoms: N_3  and  C_4
REMARK    5  A    between atoms: C_4  and  C_5
REMARK    6  A    between atoms: C_8  and  C_9
REMARK    7  A    between atoms: C_9  and  N_10
REMARK    8  A    between atoms: C_11  and  C_13
REMARK                            x       y       z     vdW  Elec       q    Type
REMARK                         _______ _______ _______ _____ _____    ______ ____
ROOT
ATOM      1  C   UNL     1      45.204   6.745  12.507  0.00  0.00    +0.000 C 
ATOM      2  C   UNL     1      46.398   5.990  13.119  0.00  0.00    +0.000 C 
ATOM      3  C   UNL     1      47.746   6.587  12.716  0.00  0.00    +0.000 C 
ATOM      4  C   UNL     1      47.859   8.095  13.013  0.00  0.00    +0.000 C 
ATOM      5  C   UNL     1      46.678   8.836  12.370  0.00  0.00    +0.000 C 
ATOM      6  C   UNL     1      45.327   8.255  12.790  0.00  0.00    +0.000 C 
ENDROOT
BRANCH   1   7
ATOM      7  C   UNL     1      45.018   6.491  10.992  0.00  0.00    +0.000 C 
BRANCH   7   8
ATOM      8  N   UNL     1      45.602   5.211  10.590  0.00  0.00    +0.000 NA
ATOM      9  H   UNL     1      46.414   5.382   9.996  0.00  0.00    +0.000 HD
BRANCH   8  11
ATOM     10  C   UNL     1      43.831   3.432  10.662  0.00  0.00    +0.000 C 
ATOM     11  C   UNL     1      44.680   4.372   9.796  0.00  0.00    +0.000 C 
BRANCH  11  12
ATOM     12  C   UNL     1      45.461   3.557   8.764  0.00  0.00    +0.000 A 
ATOM     13  C   UNL     1      45.624   2.178   8.922  0.00  0.00    +0.000 A 
ATOM     14  C   UNL     1      46.312   1.461   7.949  0.00  0.00    +0.000 A 
ATOM     15  C   UNL     1      46.835   2.135   6.854  0.00  0.00    +0.000 A 
ATOM     16  C   UNL     1      46.655   3.506   6.783  0.00  0.00    +0.000 A 
ATOM     17  N   UNL     1      45.985   4.230   7.707  0.00  0.00    +0.000 NA
ENDBRANCH  11  12
ENDBRANCH   8  11
ENDBRANCH   7   8
ENDBRANCH   1   7
BRANCH   4  18
ATOM     18  C   UNL     1      47.971   8.442  14.513  0.00  0.00    +0.000 C 
BRANCH  18  19
ATOM     19  N   UNL     1      48.855   7.525  15.194  0.00  0.00    +0.000 N 
ATOM     20  C   UNL     1      49.001   7.466  16.556  0.00  0.00    +0.000 C 
ATOM     21  O   UNL     1      48.517   8.294  17.320  0.00  0.00    +0.000 OA
ATOM     22  H   UNL     1      49.060   6.678  14.681  0.00  0.00    +0.000 HD
BRANCH  20  23
ATOM     23  C   UNL     1      49.847   6.364  17.036  0.00  0.00    +0.000 A 
ATOM     24  C   UNL     1      51.102   6.622  17.569  0.00  0.00    +0.000 A 
ATOM     25  S   UNL     1      51.964   5.209  17.990  0.00  0.00    +0.000 S 
ATOM     26  C   UNL     1      50.670   4.207  17.524  0.00  0.00    +0.000 A 
ATOM     27  N   UNL     1      50.751   2.853  17.626  0.00  0.00    +0.000 NA
ATOM     28  C   UNL     1      49.684   2.223  17.259  0.00  0.00    +0.000 A 
ATOM     29  N   UNL     1      48.541   2.822  16.799  0.00  0.00    +0.000 N 
ATOM     30  C   UNL     1      48.417   4.183  16.662  0.00  0.00    +0.000 A 
ATOM     31  O   UNL     1      47.390   4.680  16.214  0.00  0.00    +0.000 OA
ATOM     32  C   UNL     1      49.595   4.940  17.053  0.00  0.00    +0.000 A 
ATOM     33  H   UNL     1      47.739   2.276  16.525  0.00  0.00    +0.000 HD
ENDBRANCH  20  23
ENDBRANCH  18  19
ENDBRANCH   4  18
TORSDOF 7
ENDMDL
MODEL 6
REMARK VINA RESULT:    -7.484      3.450      8.630
REMARK INTER + INTRA:         -11.286
REMARK INTER:                  -9.344
REMARK INTRA:                  -1.942
REMARK UNBOUND:                -0.739
REMARK  Name = 
REMARK  8 active torsions:
REMARK  status: ('A' for Active; 'I' for Inactive)
REMARK    1  A    between atoms: C_1  and  C_2
REMARK    2  A    between atoms: C_2  and  N_3
REMARK    3  A    between atoms: C_2  and  C_25
REMARK    4  A    between atoms: N_3  and  C_4
REMARK    5  A    between atoms: C_4  and  C_5
REMARK    6  A    between atoms: C_8  and  C_9
REMARK    7  A    between atoms: C_9  and  N_10
REMARK    8  A    between atoms: C_11  and  C_13
REMARK                            x       y       z     vdW  Elec       q    Type
REMARK                         _______ _______ _______ _____ _____    ______ ____
ROOT
ATOM      1  C   UNL     1      49.111   9.084  15.055  0.00  0.00    +0.000 C 
ATOM      2  C   UNL     1      49.622   9.663  13.724  0.00  0.00    +0.000 C 
ATOM      3  C   UNL     1      50.274   8.608  12.830  0.00  0.00    +0.000 C 
ATOM      4  C   UNL     1      49.372   7.386  12.570  0.00  0.00    +0.000 C 
ATOM      5  C   UNL     1      48.898   6.803  13.908  0.00  0.00    +0.000 C 
ATOM      6  C   UNL     1      48.223   7.851  14.794  0.00  0.00    +0.000 C 
ENDROOT
BRANCH   1   7
ATOM      7  C   UNL     1      50.240   8.737  16.056  0.00  0.00    +0.000 C 
BRANCH   7   8
ATOM      8  N   UNL     1      49.717   8.028  17.224  0.00  0.00    +0.000 NA
ATOM      9  H   UNL     1      49.848   8.605  18.057  0.00  0.00    +0.000 HD
BRANCH   8  11
ATOM     10  C   UNL     1      51.537   6.461  16.489  0.00  0.00    +0.000 C 
ATOM     11  C   UNL     1      50.414   6.752  17.494  0.00  0.00    +0.000 C 
BRANCH  11  12
ATOM     12  C   UNL     1      49.416   5.594  17.500  0.00  0.00    +0.000 A 
ATOM     13  C   UNL     1      48.094   5.796  17.905  0.00  0.00    +0.000 A 
ATOM     14  C   UNL     1      47.203   4.729  17.869  0.00  0.00    +0.000 A 
ATOM     15  C   UNL     1      47.653   3.485  17.448  0.00  0.00    +0.000 A 
ATOM     16  C   UNL     1      48.984   3.359  17.088  0.00  0.00    +0.000 A 
ATOM     17  N   UNL     1      49.872   4.377  17.105  0.00  0.00    +0.000 NA
ENDBRANCH  11  12
ENDBRANCH   8  11
ENDBRANCH   7   8
ENDBRANCH   1   7
BRANCH   4  18
ATOM     18  C   UNL     1      48.173   7.666  11.639  0.00  0.00    +0.000 C 
BRANCH  18  19
ATOM     19  N   UNL     1      47.225   6.576  11.671  0.00  0.00    +0.000 N 
ATOM     20  C   UNL     1      45.865   6.741  11.728  0.00  0.00    +0.000 C 
ATOM     21  O   UNL     1      45.328   7.827  11.922  0.00  0.00    +0.000 OA
ATOM     22  H   UNL     1      47.558   5.716  11.256  0.00  0.00    +0.000 HD
BRANCH  20  23
ATOM     23  C   UNL     1      45.090   5.498  11.609  0.00  0.00    +0.000 A 
ATOM     24  C   UNL     1      44.304   5.056  12.664  0.00  0.00    +0.000 A 
ATOM     25  S   UNL     1      43.550   3.554  12.364  0.00  0.00    +0.000 S 
ATOM     26  C   UNL     1      44.205   3.468  10.796  0.00  0.00    +0.000 A 
ATOM     27  N   UNL     1      43.949   2.410   9.980  0.00  0.00    +0.000 NA
ATOM     28  C   UNL     1      44.493   2.494   8.810  0.00  0.00    +0.000 A 
ATOM     29  N   UNL     1      45.268   3.538   8.380  0.00  0.00    +0.000 N 
ATOM     30  C   UNL     1      45.569   4.618   9.172  0.00  0.00    +0.000 A 
ATOM     31  O   UNL     1      46.294   5.518   8.763  0.00  0.00    +0.000 OA
ATOM     32  C   UNL     1      44.989   4.570  10.505  0.00  0.00    +0.000 A 
ATOM     33  H   UNL     1      45.667   3.545   7.454  0.00  0.00    +0.000 HD
ENDBRANCH  20  23
ENDBRANCH  18  19
ENDBRANCH   4  18
TORSDOF 7
ENDMDL
MODEL 7
REMARK VINA RESULT:    -7.368      3.451      8.466
REMARK INTER + INTRA:         -11.123
REMARK INTER:                  -9.302
REMARK INTRA:                  -1.820
REMARK UNBOUND:                -0.739
REMARK  Name = 
REMARK  8 active torsions:
REMARK  status: ('A' for Active; 'I' for Inactive)
REMARK    1  A    between atoms: C_1  and  C_2
REMARK    2  A    between atoms: C_2  and  N_3
REMARK    3  A    between atoms: C_2  and  C_25
REMARK    4  A    between atoms: N_3  and  C_4
REMARK    5  A    between atoms: C_4  and  C_5
REMARK    6  A    between atoms: C_8  and  C_9
REMARK    7  A    between atoms: C_9  and  N_10
REMARK    8  A    between atoms: C_11  and  C_13
REMARK                            x       y       z     vdW  Elec       q    Type
REMARK                         _______ _______ _______ _____ _____    ______ ____
ROOT
ATOM      1  C   UNL     1      49.265   8.967  15.430  0.00  0.00    +0.000 C 
ATOM      2  C   UNL     1      49.859   9.688  14.207  0.00  0.00    +0.000 C 
ATOM      3  C   UNL     1      50.505   8.727  13.209  0.00  0.00    +0.000 C 
ATOM      4  C   UNL     1      49.566   7.593  12.756  0.00  0.00    +0.000 C 
ATOM      5  C   UNL     1      49.007   6.866  13.986  0.00  0.00    +0.000 C 
ATOM      6  C   UNL     1      48.338   7.822  14.975  0.00  0.00    +0.000 C 
ENDROOT
BRANCH   1   7
ATOM      7  C   UNL     1      50.331   8.440  16.420  0.00  0.00    +0.000 C 
BRANCH   7   8
ATOM      8  N   UNL     1      49.738   7.553  17.421  0.00  0.00    +0.000 NA
ATOM      9  H   UNL     1      49.753   8.013  18.332  0.00  0.00    +0.000 HD
BRANCH   8  11
ATOM     10  C   UNL     1      51.648   6.140  16.607  0.00  0.00    +0.000 C 
ATOM     11  C   UNL     1      50.478   6.284  17.588  0.00  0.00    +0.000 C 
BRANCH  11  12
ATOM     12  C   UNL     1      49.529   5.094  17.436  0.00  0.00    +0.000 A 
ATOM     13  C   UNL     1      48.145   5.284  17.421  0.00  0.00    +0.000 A 
ATOM     14  C   UNL     1      47.311   4.185  17.249  0.00  0.00    +0.000 A 
ATOM     15  C   UNL     1      47.874   2.923  17.113  0.00  0.00    +0.000 A 
ATOM     16  C   UNL     1      49.253   2.813  17.165  0.00  0.00    +0.000 A 
ATOM     17  N   UNL     1      50.090   3.862  17.324  0.00  0.00    +0.000 NA
ENDBRANCH  11  12
ENDBRANCH   8  11
ENDBRANCH   7   8
ENDBRANCH   1   7
BRANCH   4  18
ATOM     18  C   UNL     1      48.422   8.048  11.823  0.00  0.00    +0.000 C 
BRANCH  18  19
ATOM     19  N   UNL     1      47.627   6.922  11.389  0.00  0.00    +0.000 N 
ATOM     20  C   UNL     1      46.256   6.902  11.396  0.00  0.00    +0.000 C 
ATOM     21  O   UNL     1      45.573   7.774  11.921  0.00  0.00    +0.000 OA
ATOM     22  H   UNL     1      48.084   6.316  10.722  0.00  0.00    +0.000 HD
BRANCH  20  23
ATOM     23  C   UNL     1      45.657   5.709  10.780  0.00  0.00    +0.000 A 
ATOM     24  C   UNL     1      45.796   5.475   9.420  0.00  0.00    +0.000 A 
ATOM     25  S   UNL     1      44.961   4.087   8.881  0.00  0.00    +0.000 S 
ATOM     26  C   UNL     1      44.427   3.722  10.455  0.00  0.00    +0.000 A 
ATOM     27  N   UNL     1      43.647   2.635  10.704  0.00  0.00    +0.000 NA
ATOM     28  C   UNL     1      43.339   2.471  11.948  0.00  0.00    +0.000 A 
ATOM     29  N   UNL     1      43.741   3.291  12.969  0.00  0.00    +0.000 N 
ATOM     30  C   UNL     1      44.513   4.409  12.766  0.00  0.00    +0.000 A 
ATOM     31  O   UNL     1      44.824   5.138  13.701  0.00  0.00    +0.000 OA
ATOM     32  C   UNL     1      44.880   4.647  11.380  0.00  0.00    +0.000 A 
ATOM     33  H   UNL     1      43.466   3.111  13.922  0.00  0.00    +0.000 HD
ENDBRANCH  20  23
ENDBRANCH  18  19
ENDBRANCH   4  18
TORSDOF 7
ENDMDL
MODEL 8
REMARK VINA RESULT:    -6.855      2.905      3.631
REMARK INTER + INTRA:         -10.399
REMARK INTER:                  -9.829
REMARK INTRA:                  -0.570
REMARK UNBOUND:                -0.739
REMARK  Name = 
REMARK  8 active torsions:
REMARK  status: ('A' for Active; 'I' for Inactive)
REMARK    1  A    between atoms: C_1  and  C_2
REMARK    2  A    between atoms: C_2  and  N_3
REMARK    3  A    between atoms: C_2  and  C_25
REMARK    4  A    between atoms: N_3  and  C_4
REMARK    5  A    between atoms: C_4  and  C_5
REMARK    6  A    between atoms: C_8  and  C_9
REMARK    7  A    between atoms: C_9  and  N_10
REMARK    8  A    between atoms: C_11  and  C_13
REMARK                            x       y       z     vdW  Elec       q    Type
REMARK                         _______ _______ _______ _____ _____    ______ ____
ROOT
ATOM      1  C   UNL     1      43.620   6.183  11.511  0.00  0.00    +0.000 C 
ATOM      2  C   UNL     1      43.866   5.796  12.980  0.00  0.00    +0.000 C 
ATOM      3  C   UNL     1      45.145   4.982  13.173  0.00  0.00    +0.000 C 
ATOM      4  C   UNL     1      46.396   5.663  12.583  0.00  0.00    +0.000 C 
ATOM      5  C   UNL     1      46.145   6.013  11.111  0.00  0.00    +0.000 C 
ATOM      6  C   UNL     1      44.878   6.848  10.918  0.00  0.00    +0.000 C 
ENDROOT
BRANCH   1   7
ATOM      7  C   UNL     1      43.164   5.000  10.624  0.00  0.00    +0.000 C 
BRANCH   7   8
ATOM      8  N   UNL     1      44.225   4.577   9.710  0.00  0.00    +0.000 NA
ATOM      9  H   UNL     1      44.095   5.034   8.806  0.00  0.00    +0.000 HD
BRANCH   8  11
ATOM     10  C   UNL     1      44.273   2.279  10.723  0.00  0.00    +0.000 C 
ATOM     11  C   UNL     1      44.220   3.123   9.442  0.00  0.00    +0.000 C 
BRANCH  11  12
ATOM     12  C   UNL     1      45.390   2.749   8.530  0.00  0.00    +0.000 A 
ATOM     13  C   UNL     1      46.001   3.713   7.725  0.00  0.00    +0.000 A 
ATOM     14  C   UNL     1      47.082   3.347   6.931  0.00  0.00    +0.000 A 
ATOM     15  C   UNL     1      47.517   2.029   6.945  0.00  0.00    +0.000 A 
ATOM     16  C   UNL     1      46.843   1.126   7.750  0.00  0.00    +0.000 A 
ATOM     17  N   UNL     1      45.794   1.452   8.538  0.00  0.00    +0.000 NA
ENDBRANCH  11  12
ENDBRANCH   8  11
ENDBRANCH   7   8
ENDBRANCH   1   7
BRANCH   4  18
ATOM     18  C   UNL     1      46.876   6.904  13.368  0.00  0.00    +0.000 C 
BRANCH  18  19
ATOM     19  N   UNL     1      48.087   6.618  14.101  0.00  0.00    +0.000 N 
ATOM     20  C   UNL     1      48.743   7.531  14.887  0.00  0.00    +0.000 C 
ATOM     21  O   UNL     1      48.454   8.723  14.916  0.00  0.00    +0.000 OA
ATOM     22  H   UNL     1      48.218   5.644  14.336  0.00  0.00    +0.000 HD
BRANCH  20  23
ATOM     23  C   UNL     1      49.873   6.984  15.650  0.00  0.00    +0.000 A 
ATOM     24  C   UNL     1      49.656   6.072  16.673  0.00  0.00    +0.000 A 
ATOM     25  S   UNL     1      51.084   5.619  17.493  0.00  0.00    +0.000 S 
ATOM     26  C   UNL     1      52.047   6.586  16.478  0.00  0.00    +0.000 A 
ATOM     27  N   UNL     1      53.396   6.658  16.641  0.00  0.00    +0.000 NA
ATOM     28  C   UNL     1      53.999   7.412  15.781  0.00  0.00    +0.000 A 
ATOM     29  N   UNL     1      53.379   8.100  14.772  0.00  0.00    +0.000 N 
ATOM     30  C   UNL     1      52.020   8.073  14.578  0.00  0.00    +0.000 A 
ATOM     31  O   UNL     1      51.498   8.729  13.684  0.00  0.00    +0.000 OA
ATOM     32  C   UNL     1      51.290   7.246  15.525  0.00  0.00    +0.000 A 
ATOM     33  H   UNL     1      53.905   8.675  14.132  0.00  0.00    +0.000 HD
ENDBRANCH  20  23
ENDBRANCH  18  19
ENDBRANCH   4  18
TORSDOF 7
ENDMDL
MODEL 9
REMARK VINA RESULT:    -6.589      3.837      4.065
REMARK INTER + INTRA:         -10.024
REMARK INTER:                  -9.121
REMARK INTRA:                  -0.903
REMARK UNBOUND:                -0.739
REMARK  Name = 
REMARK  8 active torsions:
REMARK  status: ('A' for Active; 'I' for Inactive)
REMARK    1  A    between atoms: C_1  and  C_2
REMARK    2  A    between atoms: C_2  and  N_3
REMARK    3  A    between atoms: C_2  and  C_25
REMARK    4  A    between atoms: N_3  and  C_4
REMARK    5  A    between atoms: C_4  and  C_5
REMARK    6  A    between atoms: C_8  and  C_9
REMARK    7  A    between atoms: C_9  and  N_10
REMARK    8  A    between atoms: C_11  and  C_13
REMARK                            x       y       z     vdW  Elec       q    Type
REMARK                         _______ _______ _______ _____ _____    ______ ____
ROOT
ATOM      1  C   UNL     1      44.802   5.635  11.616  0.00  0.00    +0.000 C 
ATOM      2  C   UNL     1      45.037   5.503  13.132  0.00  0.00    +0.000 C 
ATOM      3  C   UNL     1      46.519   5.407  13.495  0.00  0.00    +0.000 C 
ATOM      4  C   UNL     1      47.364   6.560  12.921  0.00  0.00    +0.000 C 
ATOM      5  C   UNL     1      47.142   6.657  11.406  0.00  0.00    +0.000 C 
ATOM      6  C   UNL     1      45.661   6.778  11.041  0.00  0.00    +0.000 C 
ENDROOT
BRANCH   1   7
ATOM      7  C   UNL     1      45.049   4.324  10.832  0.00  0.00    +0.000 C 
BRANCH   7   8
ATOM      8  N   UNL     1      44.994   4.547   9.387  0.00  0.00    +0.000 NA
ATOM      9  H   UNL     1      44.279   5.246   9.180  0.00  0.00    +0.000 HD
BRANCH   8  11
ATOM     10  C   UNL     1      44.197   2.170   9.522  0.00  0.00    +0.000 C 
ATOM     11  C   UNL     1      44.621   3.338   8.623  0.00  0.00    +0.000 C 
BRANCH  11  12
ATOM     12  C   UNL     1      45.779   2.902   7.724  0.00  0.00    +0.000 A 
ATOM     13  C   UNL     1      46.451   1.701   7.962  0.00  0.00    +0.000 A 
ATOM     14  C   UNL     1      47.479   1.318   7.106  0.00  0.00    +0.000 A 
ATOM     15  C   UNL     1      47.823   2.146   6.047  0.00  0.00    +0.000 A 
ATOM     16  C   UNL     1      47.127   3.334   5.893  0.00  0.00    +0.000 A 
ATOM     17  N   UNL     1      46.120   3.730   6.702  0.00  0.00    +0.000 NA
ENDBRANCH  11  12
ENDBRANCH   8  11
ENDBRANCH   7   8
ENDBRANCH   1   7
BRANCH   4  18
ATOM     18  C   UNL     1      47.121   7.927  13.599  0.00  0.00    +0.000 C 
BRANCH  18  19
ATOM     19  N   UNL     1      47.842   8.022  14.847  0.00  0.00    +0.000 N 
ATOM     20  C   UNL     1      48.554   9.126  15.241  0.00  0.00    +0.000 C 
ATOM     21  O   UNL     1      48.783  10.077  14.501  0.00  0.00    +0.000 OA
ATOM     22  H   UNL     1      47.489   7.427  15.584  0.00  0.00    +0.000 HD
BRANCH  20  23
ATOM     23  C   UNL     1      49.090   9.057  16.608  0.00  0.00    +0.000 A 
ATOM     24  C   UNL     1      48.260   9.267  17.699  0.00  0.00    +0.000 A 
ATOM     25  S   UNL     1      49.082   9.228  19.195  0.00  0.00    +0.000 S 
ATOM     26  C   UNL     1      50.566   8.877  18.440  0.00  0.00    +0.000 A 
ATOM     27  N   UNL     1      51.708   8.716  19.162  0.00  0.00    +0.000 NA
ATOM     28  C   UNL     1      52.752   8.429  18.456  0.00  0.00    +0.000 A 
ATOM     29  N   UNL     1      52.761   8.287  17.094  0.00  0.00    +0.000 N 
ATOM     30  C   UNL     1      51.639   8.457  16.320  0.00  0.00    +0.000 A 
ATOM     31  O   UNL     1      51.694   8.355  15.100  0.00  0.00    +0.000 OA
ATOM     32  C   UNL     1      50.436   8.791  17.064  0.00  0.00    +0.000 A 
ATOM     33  H   UNL     1      53.610   8.064  16.598  0.00  0.00    +0.000 HD
ENDBRANCH  20  23
ENDBRANCH  18  19
ENDBRANCH   4  18
TORSDOF 7
ENDMDL
