MODEL 1
REMARK VINA RESULT:    -7.182      0.000      0.000
REMARK INTER + INTRA:          -8.919
REMARK INTER:                  -8.652
REMARK INTRA:                  -0.267
REMARK UNBOUND:                -0.267
REMARK  Name = 
REMARK  4 active torsions:
REMARK  status: ('A' for Active; 'I' for Inactive)
REMARK    1  A    between atoms: N_1  and  C_2
REMARK    2  A    between atoms: C_2  and  C_3
REMARK    3  A    between atoms: C_7  and  C_8
REMARK    4  A    between atoms: C_8  and  N_9
REMARK                            x       y       z     vdW  Elec       q    Type
REMARK                         _______ _______ _______ _____ _____    ______ ____
ROOT
ATOM      1  C   UNL     1      46.191   2.116   8.018  0.00  0.00    +0.000 A 
ATOM      2  C   UNL     1      46.355   3.398   7.493  0.00  0.00    +0.000 A 
ATOM      3  C   UNL     1      45.659   4.444   8.077  0.00  0.00    +0.000 A 
ATOM      4  N   UNL     1      44.841   4.305   9.140  0.00  0.00    +0.000 NA
ATOM      5  C   UNL     1      44.685   3.057   9.654  0.00  0.00    +0.000 A 
ATOM      6  C   UNL     1      45.338   1.949   9.118  0.00  0.00    +0.000 A 
ENDROOT
BRANCH   1   7
ATOM      7  C   UNL     1      46.920   0.937   7.432  0.00  0.00    +0.000 C 
BRANCH   7   8
ATOM      8  N   UNL     1      48.011   1.374   6.569  0.00  0.00    +0.000 NA
ATOM      9  H   UNL     1      48.138   0.697   5.820  0.00  0.00    +0.000 HD
ATOM     10  H   UNL     1      48.875   1.375   7.108  0.00  0.00    +0.000 HD
ENDBRANCH   7   8
ENDBRANCH   1   7
BRANCH   5  11
ATOM     11  C   UNL     1      43.776   2.903  10.860  0.00  0.00    +0.000 C 
BRANCH  11  12
ATOM     12  N   UNL     1      44.529   2.610  12.065  0.00  0.00    +0.000 N 
ATOM     13  C   UNL     1      45.311   3.579  12.660  0.00  0.00    +0.000 A 
ATOM     14  C   UNL     1      45.066   4.952  12.605  0.00  0.00    +0.000 A 
ATOM     15  N   UNL     1      45.830   5.890  13.227  0.00  0.00    +0.000 NA
ATOM     16  C   UNL     1      46.852   5.393  13.951  0.00  0.00    +0.000 A 
ATOM     17  C   UNL     1      47.100   4.037  14.035  0.00  0.00    +0.000 A 
ATOM     18  N   UNL     1      46.351   3.112  13.385  0.00  0.00    +0.000 NA
ATOM     19  H   UNL     1      45.000   1.714  12.107  0.00  0.00    +0.000 HD
ENDBRANCH  11  12
ENDBRANCH   5  11
TORSDOF 4
ENDMDL
MODEL 2
REMARK VINA RESULT:    -7.177      1.509      5.570
REMARK INTER + INTRA:          -8.912
REMARK INTER:                  -8.555
REMARK INTRA:                  -0.357
REMARK UNBOUND:                -0.267
REMARK  Name = 
REMARK  4 active torsions:
REMARK  status: ('A' for Active; 'I' for Inactive)
REMARK    1  A    between atoms: N_1  and  C_2
REMARK    2  A    between atoms: C_2  and  C_3
REMARK    3  A    between atoms: C_7  and  C_8
REMARK    4  A    between atoms: C_8  and  N_9
REMARK                            x       y       z     vdW  Elec       q    Type
REMARK                         _______ _______ _______ _____ _____    ______ ____
ROOT
ATOM      1  C   UNL     1      46.081   5.266  13.159  0.00  0.00    +0.000 A 
ATOM      2  C   UNL     1      46.110   6.645  12.952  0.00  0.00    +0.000 A 
ATOM      3  C   UNL     1      45.391   7.167  11.887  0.00  0.00    +0.000 A 
ATOM      4  N   UNL     1      44.646   6.425  11.045  0.00  0.00    +0.000 NA
ATOM      5  C   UNL     1      44.614   5.082  11.250  0.00  0.00    +0.000 A 
ATOM      6  C   UNL     1      45.318   4.476  12.289  0.00  0.00    +0.000 A 
ENDROOT
BRANCH   1   7
ATOM      7  C   UNL     1      46.836   4.636  14.298  0.00  0.00    +0.000 C 
BRANCH   7   8
ATOM      8  N   UNL     1      47.209   3.263  13.982  0.00  0.00    +0.000 NA
ATOM      9  H   UNL     1      47.788   3.257  13.144  0.00  0.00    +0.000 HD
ATOM     10  H   UNL     1      46.367   2.738  13.753  0.00  0.00    +0.000 HD
ENDBRANCH   7   8
ENDBRANCH   1   7
BRANCH   5  11
ATOM     11  C   UNL     1      43.763   4.248  10.310  0.00  0.00    +0.000 C 
BRANCH  11  12
ATOM     12  N   UNL     1      44.225   4.347   8.937  0.00  0.00    +0.000 N 
ATOM     13  C   UNL     1      45.151   3.453   8.440  0.00  0.00    +0.000 A 
ATOM     14  C   UNL     1      45.307   2.135   8.873  0.00  0.00    +0.000 A 
ATOM     15  N   UNL     1      46.203   1.259   8.347  0.00  0.00    +0.000 NA
ATOM     16  C   UNL     1      46.933   1.747   7.324  0.00  0.00    +0.000 A 
ATOM     17  C   UNL     1      46.781   3.041   6.867  0.00  0.00    +0.000 A 
ATOM     18  N   UNL     1      45.905   3.917   7.420  0.00  0.00    +0.000 NA
ATOM     19  H   UNL     1      44.417   5.276   8.583  0.00  0.00    +0.000 HD
ENDBRANCH  11  12
ENDBRANCH   5  11
TORSDOF 4
ENDMDL
MODEL 3
REMARK VINA RESULT:    -6.812      1.703      5.942
REMARK INTER + INTRA:          -8.474
REMARK INTER:                  -8.142
REMARK INTRA:                  -0.332
REMARK UNBOUND:                -0.267
REMARK  Name = 
REMARK  4 active torsions:
REMARK  status: ('A' for Active; 'I' for Inactive)
REMARK    1  A    between atoms: N_1  and  C_2
REMARK    2  A    between atoms: C_2  and  C_3
REMARK    3  A    between atoms: C_7  and  C_8
REMARK    4  A    between atoms: C_8  and  N_9
REMARK                            x       y       z     vdW  Elec       q    Type
REMARK                         _______ _______ _______ _____ _____    ______ ____
ROOT
ATOM      1  C   UNL     1      46.182   6.589  12.411  0.00  0.00    +0.000 A 
ATOM      2  C   UNL     1      46.624   5.652  13.345  0.00  0.00    +0.000 A 
ATOM      3  C   UNL     1      46.110   4.366  13.284  0.00  0.00    +0.000 A 
ATOM      4  N   UNL     1      45.218   3.954  12.362  0.00  0.00    +0.000 NA
ATOM      5  C   UNL     1      44.790   4.866  11.449  0.00  0.00    +0.000 A 
ATOM      6  C   UNL     1      45.248   6.183  11.449  0.00  0.00    +0.000 A 
ENDROOT
BRANCH   1   7
ATOM      7  C   UNL     1      46.704   8.001  12.421  0.00  0.00    +0.000 C 
BRANCH   7   8
ATOM      8  N   UNL     1      46.350   8.679  13.661  0.00  0.00    +0.000 NA
ATOM      9  H   UNL     1      45.338   8.673  13.771  0.00  0.00    +0.000 HD
ATOM     10  H   UNL     1      46.626   9.657  13.591  0.00  0.00    +0.000 HD
ENDBRANCH   7   8
ENDBRANCH   1   7
BRANCH   5  11
ATOM     11  C   UNL     1      43.797   4.399  10.401  0.00  0.00    +0.000 C 
BRANCH  11  12
ATOM     12  N   UNL     1      44.329   4.537   9.057  0.00  0.00    +0.000 N 
ATOM     13  C   UNL     1      45.211   3.604   8.550  0.00  0.00    +0.000 A 
ATOM     14  C   UNL     1      45.249   2.257   8.913  0.00  0.00    +0.000 A 
ATOM     15  N   UNL     1      46.103   1.345   8.376  0.00  0.00    +0.000 NA
ATOM     16  C   UNL     1      46.914   1.830   7.416  0.00  0.00    +0.000 A 
ATOM     17  C   UNL     1      46.879   3.156   7.028  0.00  0.00    +0.000 A 
ATOM     18  N   UNL     1      46.045   4.064   7.592  0.00  0.00    +0.000 NA
ATOM     19  H   UNL     1      44.606   5.467   8.766  0.00  0.00    +0.000 HD
ENDBRANCH  11  12
ENDBRANCH   5  11
TORSDOF 4
ENDMDL
MODEL 4
REMARK VINA RESULT:    -6.778      1.470      2.012
REMARK INTER + INTRA:          -8.432
REMARK INTER:                  -8.113
REMARK INTRA:                  -0.319
REMARK UNBOUND:                -0.267
REMARK  Name = 
REMARK  4 active torsions:
REMARK  status: ('A' for Active; 'I' for Inactive)
REMARK    1  A    between atoms: N_1  and  C_2
REMARK    2  A    between atoms: C_2  and  C_3
REMARK    3  A    between atoms: C_7  and  C_8
REMARK    4  A    between atoms: C_8  and  N_9
REMARK                            x       y       z     vdW  Elec       q    Type
REMARK                         _______ _______ _______ _____ _____    ______ ____
ROOT
ATOM      1  C   UNL     1      46.665   2.537   6.792  0.00  0.00    +0.000 A 
ATOM      2  C   UNL     1      46.647   1.268   7.370  0.00  0.00    +0.000 A 
ATOM      3  C   UNL     1      45.869   1.069   8.500  0.00  0.00    +0.000 A 
ATOM      4  N   UNL     1      45.108   2.024   9.069  0.00  0.00    +0.000 NA
ATOM      5  C   UNL     1      45.121   3.260   8.503  0.00  0.00    +0.000 A 
ATOM      6  C   UNL     1      45.886   3.547   7.373  0.00  0.00    +0.000 A 
ENDROOT
BRANCH   1   7
ATOM      7  C   UNL     1      47.486   2.819   5.562  0.00  0.00    +0.000 C 
BRANCH   7   8
ATOM      8  N   UNL     1      48.518   1.806   5.380  0.00  0.00    +0.000 NA
ATOM      9  H   UNL     1      48.125   0.887   5.574  0.00  0.00    +0.000 HD
ATOM     10  H   UNL     1      49.251   1.956   6.071  0.00  0.00    +0.000 HD
ENDBRANCH   7   8
ENDBRANCH   1   7
BRANCH   5  11
ATOM     11  C   UNL     1      44.253   4.332   9.134  0.00  0.00    +0.000 C 
BRANCH  11  12
ATOM     12  N   UNL     1      44.163   4.171  10.574  0.00  0.00    +0.000 N 
ATOM     13  C   UNL     1      45.107   4.738  11.406  0.00  0.00    +0.000 A 
ATOM     14  C   UNL     1      45.825   5.902  11.128  0.00  0.00    +0.000 A 
ATOM     15  N   UNL     1      46.726   6.465  11.976  0.00  0.00    +0.000 NA
ATOM     16  C   UNL     1      46.863   5.828  13.156  0.00  0.00    +0.000 A 
ATOM     17  C   UNL     1      46.148   4.686  13.459  0.00  0.00    +0.000 A 
ATOM     18  N   UNL     1      45.274   4.115  12.593  0.00  0.00    +0.000 NA
ATOM     19  H   UNL     1      43.907   3.253  10.919  0.00  0.00    +0.000 HD
ENDBRANCH  11  12
ENDBRANCH   5  11
TORSDOF 4
ENDMDL
MODEL 5
REMARK VINA RESULT:    -6.295      1.339      1.875
REMARK INTER + INTRA:          -7.850
REMARK INTER:                  -7.508
REMARK INTRA:                  -0.342
REMARK UNBOUND:                -0.267
REMARK  Name = 
REMARK  4 active torsions:
REMARK  status: ('A' for Active; 'I' for Inactive)
REMARK    1  A    between atoms: N_1  and  C_2
REMARK    2  A    between atoms: C_2  and  C_3
REMARK    3  A    between atoms: C_7  and  C_8
REMARK    4  A    between atoms: C_8  and  N_9
REMARK                            x       y       z     vdW  Elec       q    Type
REMARK                         _______ _______ _______ _____ _____    ______ ____
ROOT
ATOM      1  C   UNL     1      45.776   3.374   7.939  0.00  0.00    +0.000 A 
ATOM      2  C   UNL     1      45.520   2.026   8.189  0.00  0.00    +0.000 A 
ATOM      3  C   UNL     1      44.675   1.698   9.237  0.00  0.00    +0.000 A 
ATOM      4  N   UNL     1      44.065   2.605  10.025  0.00  0.00    +0.000 NA
ATOM      5  C   UNL     1      44.310   3.919   9.779  0.00  0.00    +0.000 A 
ATOM      6  C   UNL     1      45.158   4.333   8.753  0.00  0.00    +0.000 A 
ENDROOT
BRANCH   1   7
ATOM      7  C   UNL     1      46.682   3.797   6.814  0.00  0.00    +0.000 C 
BRANCH   7   8
ATOM      8  N   UNL     1      47.910   3.012   6.809  0.00  0.00    +0.000 NA
ATOM      9  H   UNL     1      48.084   2.655   7.747  0.00  0.00    +0.000 HD
ATOM     10  H   UNL     1      48.691   3.625   6.585  0.00  0.00    +0.000 HD
ENDBRANCH   7   8
ENDBRANCH   1   7
BRANCH   5  11
ATOM     11  C   UNL     1      43.612   4.941  10.657  0.00  0.00    +0.000 C 
BRANCH  11  12
ATOM     12  N   UNL     1      43.882   4.713  12.065  0.00  0.00    +0.000 N 
ATOM     13  C   UNL     1      45.107   5.042  12.609  0.00  0.00    +0.000 A 
ATOM     14  C   UNL     1      45.939   6.065  12.152  0.00  0.00    +0.000 A 
ATOM     15  N   UNL     1      47.127   6.396  12.724  0.00  0.00    +0.000 NA
ATOM     16  C   UNL     1      47.447   5.675  13.816  0.00  0.00    +0.000 A 
ATOM     17  C   UNL     1      46.628   4.671  14.297  0.00  0.00    +0.000 A 
ATOM     18  N   UNL     1      45.460   4.328  13.701  0.00  0.00    +0.000 NA
ATOM     19  H   UNL     1      43.552   3.841  12.461  0.00  0.00    +0.000 HD
ENDBRANCH  11  12
ENDBRANCH   5  11
TORSDOF 4
ENDMDL
MODEL 6
REMARK VINA RESULT:    -5.917      2.331      4.039
REMARK INTER + INTRA:          -7.395
REMARK INTER:                  -7.162
REMARK INTRA:                  -0.233
REMARK UNBOUND:                -0.267
REMARK  Name = 
REMARK  4 active torsions:
REMARK  status: ('A' for Active; 'I' for Inactive)
REMARK    1  A    between atoms: N_1  and  C_2
REMARK    2  A    between atoms: C_2  and  C_3
REMARK    3  A    between atoms: C_7  and  C_8
REMARK    4  A    between atoms: C_8  and  N_9
REMARK                            x       y       z     vdW  Elec       q    Type
REMARK                         _______ _______ _______ _____ _____    ______ ____
ROOT
ATOM      1  C   UNL     1      44.716   3.977  10.250  0.00  0.00    +0.000 A 
ATOM      2  C   UNL     1      43.789   3.037  10.702  0.00  0.00    +0.000 A 
ATOM      3  C   UNL     1      43.698   2.804  12.065  0.00  0.00    +0.000 A 
ATOM      4  N   UNL     1      44.440   3.444  12.991  0.00  0.00    +0.000 NA
ATOM      5  C   UNL     1      45.340   4.363  12.550  0.00  0.00    +0.000 A 
ATOM      6  C   UNL     1      45.503   4.648  11.196  0.00  0.00    +0.000 A 
ENDROOT
BRANCH   1   7
ATOM      7  C   UNL     1      44.862   4.280   8.783  0.00  0.00    +0.000 C 
BRANCH   7   8
ATOM      8  N   UNL     1      45.882   5.296   8.558  0.00  0.00    +0.000 NA
ATOM      9  H   UNL     1      46.091   5.763   9.439  0.00  0.00    +0.000 HD
ATOM     10  H   UNL     1      45.503   6.009   7.937  0.00  0.00    +0.000 HD
ENDBRANCH   7   8
ENDBRANCH   1   7
BRANCH   5  11
ATOM     11  C   UNL     1      46.165   5.095  13.593  0.00  0.00    +0.000 C 
BRANCH  11  12
ATOM     12  N   UNL     1      46.160   4.398  14.867  0.00  0.00    +0.000 N 
ATOM     13  C   UNL     1      47.281   4.395  15.672  0.00  0.00    +0.000 A 
ATOM     14  C   UNL     1      48.238   5.410  15.718  0.00  0.00    +0.000 A 
ATOM     15  N   UNL     1      49.318   5.404  16.543  0.00  0.00    +0.000 NA
ATOM     16  C   UNL     1      49.392   4.339  17.366  0.00  0.00    +0.000 A 
ATOM     17  C   UNL     1      48.445   3.334  17.350  0.00  0.00    +0.000 A 
ATOM     18  N   UNL     1      47.388   3.334  16.501  0.00  0.00    +0.000 NA
ATOM     19  H   UNL     1      45.715   3.489  14.891  0.00  0.00    +0.000 HD
ENDBRANCH  11  12
ENDBRANCH   5  11
TORSDOF 4
ENDMDL
MODEL 7
REMARK VINA RESULT:    -5.905      2.743      4.389
REMARK INTER + INTRA:          -7.380
REMARK INTER:                  -7.167
REMARK INTRA:                  -0.213
REMARK UNBOUND:                -0.267
REMARK  Name = 
REMARK  4 active torsions:
REMARK  status: ('A' for Active; 'I' for Inactive)
REMARK    1  A    between atoms: N_1  and  C_2
REMARK    2  A    between atoms: C_2  and  C_3
REMARK    3  A    between atoms: C_7  and  C_8
REMARK    4  A    between atoms: C_8  and  N_9
REMARK                            x       y       z     vdW  Elec       q    Type
REMARK                         _______ _______ _______ _____ _____    ______ ____
ROOT
ATOM      1  C   UNL     1      44.829   3.885  10.940  0.00  0.00    +0.000 A 
ATOM      2  C   UNL     1      45.215   4.967  10.148  0.00  0.00    +0.000 A 
ATOM      3  C   UNL     1      45.947   5.986  10.736  0.00  0.00    +0.000 A 
ATOM      4  N   UNL     1      46.329   5.991  12.029  0.00  0.00    +0.000 NA
ATOM      5  C   UNL     1      45.956   4.935  12.799  0.00  0.00    +0.000 A 
ATOM      6  C   UNL     1      45.208   3.875  12.289  0.00  0.00    +0.000 A 
ENDROOT
BRANCH   1   7
ATOM      7  C   UNL     1      44.035   2.744  10.362  0.00  0.00    +0.000 C 
BRANCH   7   8
ATOM      8  N   UNL     1      43.175   2.142  11.372  0.00  0.00    +0.000 NA
ATOM      9  H   UNL     1      43.752   1.673  12.068  0.00  0.00    +0.000 HD
ATOM     10  H   UNL     1      42.609   1.418  10.932  0.00  0.00    +0.000 HD
ENDBRANCH   7   8
ENDBRANCH   1   7
BRANCH   5  11
ATOM     11  C   UNL     1      46.399   4.933  14.251  0.00  0.00    +0.000 C 
BRANCH  11  12
ATOM     12  N   UNL     1      47.009   3.669  14.624  0.00  0.00    +0.000 N 
ATOM     13  C   UNL     1      47.659   3.531  15.833  0.00  0.00    +0.000 A 
ATOM     14  C   UNL     1      47.352   4.243  16.994  0.00  0.00    +0.000 A 
ATOM     15  N   UNL     1      47.983   4.068  18.186  0.00  0.00    +0.000 NA
ATOM     16  C   UNL     1      48.930   3.109  18.187  0.00  0.00    +0.000 A 
ATOM     17  C   UNL     1      49.235   2.380  17.054  0.00  0.00    +0.000 A 
ATOM     18  N   UNL     1      48.622   2.584  15.862  0.00  0.00    +0.000 NA
ATOM     19  H   UNL     1      47.516   3.172  13.901  0.00  0.00    +0.000 HD
ENDBRANCH  11  12
ENDBRANCH   5  11
TORSDOF 4
ENDMDL
MODEL 8
REMARK VINA RESULT:    -5.866      3.561      7.582
REMARK INTER + INTRA:          -7.334
REMARK INTER:                  -7.124
REMARK INTRA:                  -0.210
REMARK UNBOUND:                -0.267
REMARK  Name = 
REMARK  4 active torsions:
REMARK  status: ('A' for Active; 'I' for Inactive)
REMARK    1  A    between atoms: N_1  and  C_2
REMARK    2  A    between atoms: C_2  and  C_3
REMARK    3  A    between atoms: C_7  and  C_8
REMARK    4  A    between atoms: C_8  and  N_9
REMARK                            x       y       z     vdW  Elec       q    Type
REMARK                         _______ _______ _______ _____ _____    ______ ____
ROOT
ATOM      1  C   UNL     1      48.247   4.060  17.996  0.00  0.00    +0.000 A 
ATOM      2  C   UNL     1      48.802   2.806  17.744  0.00  0.00    +0.000 A 
ATOM      3  C   UNL     1      48.654   2.261  16.478  0.00  0.00    +0.000 A 
ATOM      4  N   UNL     1      48.018   2.877  15.462  0.00  0.00    +0.000 NA
ATOM      5  C   UNL     1      47.480   4.101  15.706  0.00  0.00    +0.000 A 
ATOM      6  C   UNL     1      47.574   4.714  16.955  0.00  0.00    +0.000 A 
ENDROOT
BRANCH   1   7
ATOM      7  C   UNL     1      48.376   4.709  19.348  0.00  0.00    +0.000 C 
BRANCH   7   8
ATOM      8  N   UNL     1      48.387   3.708  20.408  0.00  0.00    +0.000 NA
ATOM      9  H   UNL     1      49.249   3.795  20.942  0.00  0.00    +0.000 HD
ATOM     10  H   UNL     1      48.401   2.782  19.985  0.00  0.00    +0.000 HD
ENDBRANCH   7   8
ENDBRANCH   1   7
BRANCH   5  11
ATOM     11  C   UNL     1      46.778   4.802  14.559  0.00  0.00    +0.000 C 
BRANCH  11  12
ATOM     12  N   UNL     1      46.179   3.854  13.637  0.00  0.00    +0.000 N 
ATOM     13  C   UNL     1      45.063   4.197  12.901  0.00  0.00    +0.000 A 
ATOM     14  C   UNL     1      44.742   5.491  12.487  0.00  0.00    +0.000 A 
ATOM     15  N   UNL     1      43.655   5.803  11.732  0.00  0.00    +0.000 NA
ATOM     16  C   UNL     1      42.900   4.748  11.367  0.00  0.00    +0.000 A 
ATOM     17  C   UNL     1      43.212   3.457  11.749  0.00  0.00    +0.000 A 
ATOM     18  N   UNL     1      44.281   3.160  12.528  0.00  0.00    +0.000 NA
ATOM     19  H   UNL     1      46.103   2.894  13.950  0.00  0.00    +0.000 HD
ENDBRANCH  11  12
ENDBRANCH   5  11
TORSDOF 4
ENDMDL
MODEL 9
REMARK VINA RESULT:    -5.583      2.513      3.811
REMARK INTER + INTRA:          -6.993
REMARK INTER:                  -6.790
REMARK INTRA:                  -0.203
REMARK UNBOUND:                -0.267
REMARK  Name = 
REMARK  4 active torsions:
REMARK  status: ('A' for Active; 'I' for Inactive)
REMARK    1  A    between atoms: N_1  and  C_2
REMARK    2  A    between atoms: C_2  and  C_3
REMARK    3  A    between atoms: C_7  and  C_8
REMARK    4  A    between atoms: C_8  and  N_9
REMARK                            x       y       z     vdW  Elec       q    Type
REMARK                         _______ _______ _______ _____ _____    ______ ____
ROOT
ATOM      1  C   UNL     1      44.616   3.474   9.169  0.00  0.00    +0.000 A 
ATOM      2  C   UNL     1      44.341   2.270   9.817  0.00  0.00    +0.000 A 
ATOM      3  C   UNL     1      43.579   2.304  10.975  0.00  0.00    +0.000 A 
ATOM      4  N   UNL     1      43.069   3.431  11.509  0.00  0.00    +0.000 NA
ATOM      5  C   UNL     1      43.333   4.603  10.875  0.00  0.00    +0.000 A 
ATOM      6  C   UNL     1      44.101   4.658   9.712  0.00  0.00    +0.000 A 
ENDROOT
BRANCH   1   7
ATOM      7  C   UNL     1      45.433   3.506   7.905  0.00  0.00    +0.000 C 
BRANCH   7   8
ATOM      8  N   UNL     1      46.283   4.689   7.863  0.00  0.00    +0.000 NA
ATOM      9  H   UNL     1      46.325   5.039   6.908  0.00  0.00    +0.000 HD
ATOM     10  H   UNL     1      47.233   4.420   8.113  0.00  0.00    +0.000 HD
ENDBRANCH   7   8
ENDBRANCH   1   7
BRANCH   5  11
ATOM     11  C   UNL     1      42.746   5.871  11.467  0.00  0.00    +0.000 C 
BRANCH  11  12
ATOM     12  N   UNL     1      43.404   7.059  10.951  0.00  0.00    +0.000 N 
ATOM     13  C   UNL     1      44.438   7.649  11.648  0.00  0.00    +0.000 A 
ATOM     14  C   UNL     1      45.323   6.977  12.492  0.00  0.00    +0.000 A 
ATOM     15  N   UNL     1      46.359   7.571  13.143  0.00  0.00    +0.000 NA
ATOM     16  C   UNL     1      46.504   8.886  12.887  0.00  0.00    +0.000 A 
ATOM     17  C   UNL     1      45.652   9.566  12.039  0.00  0.00    +0.000 A 
ATOM     18  N   UNL     1      44.603   8.970  11.419  0.00  0.00    +0.000 NA
ATOM     19  H   UNL     1      42.810   7.772  10.545  0.00  0.00    +0.000 HD
ENDBRANCH  11  12
ENDBRANCH   5  11
TORSDOF 4
ENDMDL
