MODEL 1
REMARK VINA RESULT:    -7.941      0.000      0.000
REMARK INTER + INTRA:         -13.047
REMARK INTER:                 -11.655
REMARK INTRA:                  -1.392
REMARK UNBOUND:                -1.392
REMARK  Name = 
REMARK  9 active torsions:
REMARK  status: ('A' for Active; 'I' for Inactive)
REMARK    1  A    between atoms: C_1  and  C_2
REMARK    2  A    between atoms: C_2  and  N_3
REMARK    3  A    between atoms: C_2  and  C_21
REMARK    4  A    between atoms: N_3  and  C_4
REMARK    5  A    between atoms: C_4  and  C_5
REMARK    6  A    between atoms: C_8  and  C_9
REMARK    7  A    between atoms: C_9  and  O_10
REMARK    8  A    between atoms: O_10  and  C_11
REMARK    9  A    between atoms: C_11  and  C_12
REMARK                            x       y       z     vdW  Elec       q    Type
REMARK                         _______ _______ _______ _____ _____    ______ ____
ROOT
ATOM      1  C   UNL     1      46.137   7.393  12.901  0.00  0.00    +0.000 C 
ENDROOT
BRANCH   1   2
ATOM      2  C   UNL     1      46.076   5.875  12.607  0.00  0.00    +0.000 C 
ATOM      3  C   UNL     1      44.988   5.167  13.438  0.00  0.00    +0.000 C 
ATOM      4  C   UNL     1      43.580   5.471  12.935  0.00  0.00    +0.000 C 
ATOM      5  C   UNL     1      43.418   5.144  11.443  0.00  0.00    +0.000 C 
ATOM      6  C   UNL     1      44.494   5.802  10.582  0.00  0.00    +0.000 C 
ATOM      7  C   UNL     1      45.904   5.575  11.108  0.00  0.00    +0.000 C 
BRANCH   5   8
ATOM      8  C   UNL     1      43.354   3.623  11.208  0.00  0.00    +0.000 C 
BRANCH   8   9
ATOM      9  O   UNL     1      43.709   3.287   9.869  0.00  0.00    +0.000 OA
BRANCH   9  10
ATOM     10  C   UNL     1      44.536   2.126   9.803  0.00  0.00    +0.000 C 
BRANCH  10  11
ATOM     11  C   UNL     1      45.435   2.220   8.604  0.00  0.00    +0.000 A 
ATOM     12  C   UNL     1      45.487   3.404   7.865  0.00  0.00    +0.000 A 
ATOM     13  C   UNL     1      46.334   3.471   6.767  0.00  0.00    +0.000 A 
ATOM     14  C   UNL     1      47.105   2.361   6.445  0.00  0.00    +0.000 A 
ATOM     15 CL   UNL     1      48.148   2.387   5.085  0.00  0.00    +0.000 Cl
ATOM     16  C   UNL     1      47.011   1.233   7.246  0.00  0.00    +0.000 A 
ATOM     17  N   UNL     1      46.202   1.137   8.321  0.00  0.00    +0.000 NA
ENDBRANCH  10  11
ENDBRANCH   9  10
ENDBRANCH   8   9
ENDBRANCH   5   8
ENDBRANCH   1   2
BRANCH   1  18
ATOM     18  N   UNL     1      47.073   7.602  14.003  0.00  0.00    +0.000 NA
ATOM     19  H   UNL     1      46.564   7.545  14.886  0.00  0.00    +0.000 HD
BRANCH  18  21
ATOM     20  C   UNL     1      49.394   7.165  13.212  0.00  0.00    +0.000 C 
ATOM     21  C   UNL     1      48.220   6.689  14.070  0.00  0.00    +0.000 C 
BRANCH  21  22
ATOM     22  C   UNL     1      48.624   6.610  15.539  0.00  0.00    +0.000 A 
ATOM     23  C   UNL     1      49.236   7.632  16.253  0.00  0.00    +0.000 A 
ATOM     24  S   UNL     1      49.475   7.264  17.902  0.00  0.00    +0.000 S 
ATOM     25  C   UNL     1      48.845   5.697  17.702  0.00  0.00    +0.000 A 
ATOM     26  N   UNL     1      48.775   4.828  18.747  0.00  0.00    +0.000 NA
ATOM     27  C   UNL     1      48.311   3.663  18.436  0.00  0.00    +0.000 A 
ATOM     28  N   UNL     1      47.910   3.288  17.179  0.00  0.00    +0.000 N 
ATOM     29  C   UNL     1      47.949   4.137  16.094  0.00  0.00    +0.000 A 
ATOM     30  O   UNL     1      47.590   3.774  14.974  0.00  0.00    +0.000 OA
ATOM     31  C   UNL     1      48.455   5.462  16.397  0.00  0.00    +0.000 A 
ATOM     32  H   UNL     1      47.574   2.354  17.002  0.00  0.00    +0.000 HD
ENDBRANCH  21  22
ENDBRANCH  18  21
ENDBRANCH   1  18
TORSDOF 8
ENDMDL
MODEL 2
REMARK VINA RESULT:    -7.593      2.152      3.021
REMARK INTER + INTRA:         -12.536
REMARK INTER:                 -12.047
REMARK INTRA:                  -0.489
REMARK UNBOUND:                -1.392
REMARK  Name = 
REMARK  9 active torsions:
REMARK  status: ('A' for Active; 'I' for Inactive)
REMARK    1  A    between atoms: C_1  and  C_2
REMARK    2  A    between atoms: C_2  and  N_3
REMARK    3  A    between atoms: C_2  and  C_21
REMARK    4  A    between atoms: N_3  and  C_4
REMARK    5  A    between atoms: C_4  and  C_5
REMARK    6  A    between atoms: C_8  and  C_9
REMARK    7  A    between atoms: C_9  and  O_10
REMARK    8  A    between atoms: O_10  and  C_11
REMARK    9  A    between atoms: C_11  and  C_12
REMARK                            x       y       z     vdW  Elec       q    Type
REMARK                         _______ _______ _______ _____ _____    ______ ____
ROOT
ATOM      1  C   UNL     1      48.233   6.391  15.023  0.00  0.00    +0.000 C 
ENDROOT
BRANCH   1   2
ATOM      2  C   UNL     1      48.024   6.037  13.530  0.00  0.00    +0.000 C 
ATOM      3  C   UNL     1      47.084   4.829  13.348  0.00  0.00    +0.000 C 
ATOM      4  C   UNL     1      45.624   5.180  13.622  0.00  0.00    +0.000 C 
ATOM      5  C   UNL     1      45.148   6.368  12.774  0.00  0.00    +0.000 C 
ATOM      6  C   UNL     1      46.067   7.580  12.901  0.00  0.00    +0.000 C 
ATOM      7  C   UNL     1      47.538   7.241  12.705  0.00  0.00    +0.000 C 
BRANCH   5   8
ATOM      8  C   UNL     1      44.948   5.959  11.302  0.00  0.00    +0.000 C 
BRANCH   8   9
ATOM      9  O   UNL     1      44.548   4.596  11.190  0.00  0.00    +0.000 OA
BRANCH   9  10
ATOM     10  C   UNL     1      43.938   4.311   9.931  0.00  0.00    +0.000 C 
BRANCH  10  11
ATOM     11  C   UNL     1      44.941   3.655   9.027  0.00  0.00    +0.000 A 
ATOM     12  C   UNL     1      45.147   2.275   9.103  0.00  0.00    +0.000 A 
ATOM     13  C   UNL     1      46.073   1.689   8.250  0.00  0.00    +0.000 A 
ATOM     14  C   UNL     1      46.755   2.493   7.346  0.00  0.00    +0.000 A 
ATOM     15 CL   UNL     1      47.924   1.819   6.288  0.00  0.00    +0.000 Cl
ATOM     16  C   UNL     1      46.474   3.850   7.319  0.00  0.00    +0.000 A 
ATOM     17  N   UNL     1      45.579   4.450   8.132  0.00  0.00    +0.000 NA
ENDBRANCH  10  11
ENDBRANCH   9  10
ENDBRANCH   8   9
ENDBRANCH   5   8
ENDBRANCH   1   2
BRANCH   1  18
ATOM     18  N   UNL     1      48.381   5.142  15.766  0.00  0.00    +0.000 NA
ATOM     19  H   UNL     1      49.247   4.686  15.478  0.00  0.00    +0.000 HD
BRANCH  18  21
ATOM     20  C   UNL     1      47.326   4.344  17.877  0.00  0.00    +0.000 C 
ATOM     21  C   UNL     1      48.377   5.248  17.230  0.00  0.00    +0.000 C 
BRANCH  21  22
ATOM     22  C   UNL     1      49.778   4.861  17.695  0.00  0.00    +0.000 A 
ATOM     23  C   UNL     1      50.668   5.713  18.337  0.00  0.00    +0.000 A 
ATOM     24  S   UNL     1      52.120   4.952  18.812  0.00  0.00    +0.000 S 
ATOM     25  C   UNL     1      51.645   3.479  18.106  0.00  0.00    +0.000 A 
ATOM     26  N   UNL     1      52.456   2.387  18.142  0.00  0.00    +0.000 NA
ATOM     27  C   UNL     1      51.980   1.354  17.531  0.00  0.00    +0.000 A 
ATOM     28  N   UNL     1      50.768   1.311  16.888  0.00  0.00    +0.000 N 
ATOM     29  C   UNL     1      49.907   2.385  16.838  0.00  0.00    +0.000 A 
ATOM     30  O   UNL     1      48.828   2.323  16.250  0.00  0.00    +0.000 OA
ATOM     31  C   UNL     1      50.396   3.569  17.520  0.00  0.00    +0.000 A 
ATOM     32  H   UNL     1      50.465   0.474  16.415  0.00  0.00    +0.000 HD
ENDBRANCH  21  22
ENDBRANCH  18  21
ENDBRANCH   1  18
TORSDOF 8
ENDMDL
MODEL 3
REMARK VINA RESULT:    -7.112      1.790      2.333
REMARK INTER + INTRA:         -11.831
REMARK INTER:                 -10.702
REMARK INTRA:                  -1.129
REMARK UNBOUND:                -1.392
REMARK  Name = 
REMARK  9 active torsions:
REMARK  status: ('A' for Active; 'I' for Inactive)
REMARK    1  A    between atoms: C_1  and  C_2
REMARK    2  A    between atoms: C_2  and  N_3
REMARK    3  A    between atoms: C_2  and  C_21
REMARK    4  A    between atoms: N_3  and  C_4
REMARK    5  A    between atoms: C_4  and  C_5
REMARK    6  A    between atoms: C_8  and  C_9
REMARK    7  A    between atoms: C_9  and  O_10
REMARK    8  A    between atoms: O_10  and  C_11
REMARK    9  A    between atoms: C_11  and  C_12
REMARK                            x       y       z     vdW  Elec       q    Type
REMARK                         _______ _______ _______ _____ _____    ______ ____
ROOT
ATOM      1  C   UNL     1      48.417   7.278  14.039  0.00  0.00    +0.000 C 
ENDROOT
BRANCH   1   2
ATOM      2  C   UNL     1      48.070   6.273  12.913  0.00  0.00    +0.000 C 
ATOM      3  C   UNL     1      47.544   4.937  13.474  0.00  0.00    +0.000 C 
ATOM      4  C   UNL     1      46.122   5.050  14.014  0.00  0.00    +0.000 C 
ATOM      5  C   UNL     1      45.151   5.617  12.967  0.00  0.00    +0.000 C 
ATOM      6  C   UNL     1      45.646   6.928  12.363  0.00  0.00    +0.000 C 
ATOM      7  C   UNL     1      47.090   6.861  11.884  0.00  0.00    +0.000 C 
BRANCH   5   8
ATOM      8  C   UNL     1      44.833   4.574  11.878  0.00  0.00    +0.000 C 
BRANCH   8   9
ATOM      9  O   UNL     1      44.452   5.198  10.655  0.00  0.00    +0.000 OA
BRANCH   9  10
ATOM     10  C   UNL     1      43.841   4.282   9.746  0.00  0.00    +0.000 C 
BRANCH  10  11
ATOM     11  C   UNL     1      44.902   3.615   8.920  0.00  0.00    +0.000 A 
ATOM     12  C   UNL     1      45.107   2.238   9.031  0.00  0.00    +0.000 A 
ATOM     13  C   UNL     1      46.087   1.642   8.249  0.00  0.00    +0.000 A 
ATOM     14  C   UNL     1      46.824   2.434   7.378  0.00  0.00    +0.000 A 
ATOM     15 CL   UNL     1      48.061   1.748   6.408  0.00  0.00    +0.000 Cl
ATOM     16  C   UNL     1      46.541   3.789   7.311  0.00  0.00    +0.000 A 
ATOM     17  N   UNL     1      45.593   4.398   8.054  0.00  0.00    +0.000 NA
ENDBRANCH  10  11
ENDBRANCH   9  10
ENDBRANCH   8   9
ENDBRANCH   5   8
ENDBRANCH   1   2
BRANCH   1  18
ATOM     18  N   UNL     1      49.393   6.646  14.923  0.00  0.00    +0.000 NA
ATOM     19  H   UNL     1      50.109   6.192  14.356  0.00  0.00    +0.000 HD
BRANCH  18  21
ATOM     20  C   UNL     1      50.105   8.979  15.432  0.00  0.00    +0.000 C 
ATOM     21  C   UNL     1      50.058   7.521  15.896  0.00  0.00    +0.000 C 
BRANCH  21  22
ATOM     22  C   UNL     1      49.272   7.397  17.197  0.00  0.00    +0.000 A 
ATOM     23  C   UNL     1      48.494   8.403  17.758  0.00  0.00    +0.000 A 
ATOM     24  S   UNL     1      47.667   7.919  19.170  0.00  0.00    +0.000 S 
ATOM     25  C   UNL     1      48.381   6.376  19.128  0.00  0.00    +0.000 A 
ATOM     26  N   UNL     1      48.106   5.447  20.083  0.00  0.00    +0.000 NA
ATOM     27  C   UNL     1      48.751   4.337  19.943  0.00  0.00    +0.000 A 
ATOM     28  N   UNL     1      49.644   4.070  18.936  0.00  0.00    +0.000 N 
ATOM     29  C   UNL     1      49.943   4.972  17.939  0.00  0.00    +0.000 A 
ATOM     30  O   UNL     1      50.753   4.711  17.050  0.00  0.00    +0.000 OA
ATOM     31  C   UNL     1      49.234   6.233  18.050  0.00  0.00    +0.000 A 
ATOM     32  H   UNL     1      50.127   3.185  18.897  0.00  0.00    +0.000 HD
ENDBRANCH  21  22
ENDBRANCH  18  21
ENDBRANCH   1  18
TORSDOF 8
ENDMDL
MODEL 4
REMARK VINA RESULT:    -6.781      1.733      2.188
REMARK INTER + INTRA:         -11.344
REMARK INTER:                 -10.635
REMARK INTRA:                  -0.709
REMARK UNBOUND:                -1.392
REMARK  Name = 
REMARK  9 active torsions:
REMARK  status: ('A' for Active; 'I' for Inactive)
REMARK    1  A    between atoms: C_1  and  C_2
REMARK    2  A    between atoms: C_2  and  N_3
REMARK    3  A    between atoms: C_2  and  C_21
REMARK    4  A    between atoms: N_3  and  C_4
REMARK    5  A    between atoms: C_4  and  C_5
REMARK    6  A    between atoms: C_8  and  C_9
REMARK    7  A    between atoms: C_9  and  O_10
REMARK    8  A    between atoms: O_10  and  C_11
REMARK    9  A    between atoms: C_11  and  C_12
REMARK                            x       y       z     vdW  Elec       q    Type
REMARK                         _______ _______ _______ _____ _____    ______ ____
ROOT
ATOM      1  C   UNL     1      47.537   6.831  13.034  0.00  0.00    +0.000 C 
ENDROOT
BRANCH   1   2
ATOM      2  C   UNL     1      46.917   5.731  12.138  0.00  0.00    +0.000 C 
ATOM      3  C   UNL     1      46.300   4.588  12.968  0.00  0.00    +0.000 C 
ATOM      4  C   UNL     1      44.988   4.992  13.634  0.00  0.00    +0.000 C 
ATOM      5  C   UNL     1      43.971   5.534  12.619  0.00  0.00    +0.000 C 
ATOM      6  C   UNL     1      44.548   6.652  11.754  0.00  0.00    +0.000 C 
ATOM      7  C   UNL     1      45.895   6.298  11.138  0.00  0.00    +0.000 C 
BRANCH   5   8
ATOM      8  C   UNL     1      43.379   4.400  11.761  0.00  0.00    +0.000 C 
BRANCH   8   9
ATOM      9  O   UNL     1      44.098   4.240  10.541  0.00  0.00    +0.000 OA
BRANCH   9  10
ATOM     10  C   UNL     1      44.162   2.876  10.124  0.00  0.00    +0.000 C 
BRANCH  10  11
ATOM     11  C   UNL     1      45.140   2.745   8.993  0.00  0.00    +0.000 A 
ATOM     12  C   UNL     1      45.445   3.857   8.205  0.00  0.00    +0.000 A 
ATOM     13  C   UNL     1      46.361   3.713   7.171  0.00  0.00    +0.000 A 
ATOM     14  C   UNL     1      46.946   2.472   6.961  0.00  0.00    +0.000 A 
ATOM     15 CL   UNL     1      48.065   2.238   5.682  0.00  0.00    +0.000 Cl
ATOM     16  C   UNL     1      46.605   1.424   7.803  0.00  0.00    +0.000 A 
ATOM     17  N   UNL     1      45.723   1.532   8.819  0.00  0.00    +0.000 NA
ENDBRANCH  10  11
ENDBRANCH   9  10
ENDBRANCH   8   9
ENDBRANCH   5   8
ENDBRANCH   1   2
BRANCH   1  18
ATOM     18  N   UNL     1      48.612   6.223  13.816  0.00  0.00    +0.000 NA
ATOM     19  H   UNL     1      49.432   6.108  13.219  0.00  0.00    +0.000 HD
BRANCH  18  21
ATOM     20  C   UNL     1      48.271   8.257  15.212  0.00  0.00    +0.000 C 
ATOM     21  C   UNL     1      49.021   6.936  15.031  0.00  0.00    +0.000 C 
BRANCH  21  22
ATOM     22  C   UNL     1      48.741   5.994  16.199  0.00  0.00    +0.000 A 
ATOM     23  C   UNL     1      47.758   5.012  16.213  0.00  0.00    +0.000 A 
ATOM     24  S   UNL     1      47.761   4.064  17.631  0.00  0.00    +0.000 S 
ATOM     25  C   UNL     1      49.019   4.984  18.312  0.00  0.00    +0.000 A 
ATOM     26  N   UNL     1      49.503   4.705  19.553  0.00  0.00    +0.000 NA
ATOM     27  C   UNL     1      50.429   5.512  19.953  0.00  0.00    +0.000 A 
ATOM     28  N   UNL     1      50.916   6.570  19.228  0.00  0.00    +0.000 N 
ATOM     29  C   UNL     1      50.468   6.882  17.962  0.00  0.00    +0.000 A 
ATOM     30  O   UNL     1      50.916   7.841  17.334  0.00  0.00    +0.000 OA
ATOM     31  C   UNL     1      49.431   5.996  17.466  0.00  0.00    +0.000 A 
ATOM     32  H   UNL     1      51.629   7.172  19.609  0.00  0.00    +0.000 HD
ENDBRANCH  21  22
ENDBRANCH  18  21
ENDBRANCH   1  18
TORSDOF 8
ENDMDL
MODEL 5
REMARK VINA RESULT:    -6.716      3.019      3.586
REMARK INTER + INTRA:         -11.249
REMARK INTER:                 -10.218
REMARK INTRA:                  -1.031
REMARK UNBOUND:                -1.392
REMARK  Name = 
REMARK  9 active torsions:
REMARK  status: ('A' for Active; 'I' for Inactive)
REMARK    1  A    between atoms: C_1  and  C_2
REMARK    2  A    between atoms: C_2  and  N_3
REMARK    3  A    between atoms: C_2  and  C_21
REMARK    4  A    between atoms: N_3  and  C_4
REMARK    5  A    between atoms: C_4  and  C_5
REMARK    6  A    between atoms: C_8  and  C_9
REMARK    7  A    between atoms: C_9  and  O_10
REMARK    8  A    between atoms: O_10  and  C_11
REMARK    9  A    between atoms: C_11  and  C_12
REMARK                            x       y       z     vdW  Elec       q    Type
REMARK                         _______ _______ _______ _____ _____    ______ ____
ROOT
ATOM      1  C   UNL     1      47.180   6.730  12.804  0.00  0.00    +0.000 C 
ENDROOT
BRANCH   1   2
ATOM      2  C   UNL     1      46.563   5.589  11.958  0.00  0.00    +0.000 C 
ATOM      3  C   UNL     1      45.846   4.542  12.834  0.00  0.00    +0.000 C 
ATOM      4  C   UNL     1      44.518   5.053  13.385  0.00  0.00    +0.000 C 
ATOM      5  C   UNL     1      43.587   5.553  12.271  0.00  0.00    +0.000 C 
ATOM      6  C   UNL     1      44.265   6.573  11.359  0.00  0.00    +0.000 C 
ATOM      7  C   UNL     1      45.627   6.116  10.857  0.00  0.00    +0.000 C 
BRANCH   5   8
ATOM      8  C   UNL     1      42.994   4.380  11.468  0.00  0.00    +0.000 C 
BRANCH   8   9
ATOM      9  O   UNL     1      43.718   4.155  10.261  0.00  0.00    +0.000 OA
BRANCH   9  10
ATOM     10  C   UNL     1      44.150   2.801  10.132  0.00  0.00    +0.000 C 
BRANCH  10  11
ATOM     11  C   UNL     1      45.106   2.689   8.980  0.00  0.00    +0.000 A 
ATOM     12  C   UNL     1      45.354   3.801   8.171  0.00  0.00    +0.000 A 
ATOM     13  C   UNL     1      46.250   3.676   7.118  0.00  0.00    +0.000 A 
ATOM     14  C   UNL     1      46.873   2.452   6.909  0.00  0.00    +0.000 A 
ATOM     15 CL   UNL     1      47.969   2.242   5.607  0.00  0.00    +0.000 Cl
ATOM     16  C   UNL     1      46.588   1.405   7.772  0.00  0.00    +0.000 A 
ATOM     17  N   UNL     1      45.726   1.495   8.807  0.00  0.00    +0.000 NA
ENDBRANCH  10  11
ENDBRANCH   9  10
ENDBRANCH   8   9
ENDBRANCH   5   8
ENDBRANCH   1   2
BRANCH   1  18
ATOM     18  N   UNL     1      48.132   7.451  11.962  0.00  0.00    +0.000 NA
ATOM     19  H   UNL     1      47.925   7.252  10.983  0.00  0.00    +0.000 HD
BRANCH  18  21
ATOM     20  C   UNL     1      46.809   9.518  12.386  0.00  0.00    +0.000 C 
ATOM     21  C   UNL     1      48.189   8.906  12.138  0.00  0.00    +0.000 C 
BRANCH  21  22
ATOM     22  C   UNL     1      49.112   9.162  13.326  0.00  0.00    +0.000 A 
ATOM     23  C   UNL     1      48.723   9.742  14.527  0.00  0.00    +0.000 A 
ATOM     24  S   UNL     1      49.969   9.804  15.691  0.00  0.00    +0.000 S 
ATOM     25  C   UNL     1      51.093   9.133  14.605  0.00  0.00    +0.000 A 
ATOM     26  N   UNL     1      52.387   8.925  14.970  0.00  0.00    +0.000 NA
ATOM     27  C   UNL     1      53.133   8.447  14.030  0.00  0.00    +0.000 A 
ATOM     28  N   UNL     1      52.704   8.156  12.760  0.00  0.00    +0.000 N 
ATOM     29  C   UNL     1      51.401   8.335  12.348  0.00  0.00    +0.000 A 
ATOM     30  O   UNL     1      51.042   8.072  11.201  0.00  0.00    +0.000 OA
ATOM     31  C   UNL     1      50.523   8.863  13.375  0.00  0.00    +0.000 A 
ATOM     32  H   UNL     1      53.345   7.800  12.068  0.00  0.00    +0.000 HD
ENDBRANCH  21  22
ENDBRANCH  18  21
ENDBRANCH   1  18
TORSDOF 8
ENDMDL
MODEL 6
REMARK VINA RESULT:    -6.375      1.950      2.895
REMARK INTER + INTRA:         -10.748
REMARK INTER:                 -10.597
REMARK INTRA:                  -0.151
REMARK UNBOUND:                -1.392
REMARK  Name = 
REMARK  9 active torsions:
REMARK  status: ('A' for Active; 'I' for Inactive)
REMARK    1  A    between atoms: C_1  and  C_2
REMARK    2  A    between atoms: C_2  and  N_3
REMARK    3  A    between atoms: C_2  and  C_21
REMARK    4  A    between atoms: N_3  and  C_4
REMARK    5  A    between atoms: C_4  and  C_5
REMARK    6  A    between atoms: C_8  and  C_9
REMARK    7  A    between atoms: C_9  and  O_10
REMARK    8  A    between atoms: O_10  and  C_11
REMARK    9  A    between atoms: C_11  and  C_12
REMARK                            x       y       z     vdW  Elec       q    Type
REMARK                         _______ _______ _______ _____ _____    ______ ____
ROOT
ATOM      1  C   UNL     1      46.794   4.756  15.039  0.00  0.00    +0.000 C 
ENDROOT
BRANCH   1   2
ATOM      2  C   UNL     1      46.700   4.725  13.494  0.00  0.00    +0.000 C 
ATOM      3  C   UNL     1      45.555   3.818  13.002  0.00  0.00    +0.000 C 
ATOM      4  C   UNL     1      44.180   4.442  13.220  0.00  0.00    +0.000 C 
ATOM      5  C   UNL     1      44.074   5.838  12.587  0.00  0.00    +0.000 C 
ATOM      6  C   UNL     1      45.206   6.764  13.025  0.00  0.00    +0.000 C 
ATOM      7  C   UNL     1      46.585   6.133  12.885  0.00  0.00    +0.000 C 
BRANCH   5   8
ATOM      8  C   UNL     1      43.975   5.748  11.053  0.00  0.00    +0.000 C 
BRANCH   8   9
ATOM      9  O   UNL     1      44.864   4.764  10.529  0.00  0.00    +0.000 OA
BRANCH   9  10
ATOM     10  C   UNL     1      44.212   3.869   9.629  0.00  0.00    +0.000 C 
BRANCH  10  11
ATOM     11  C   UNL     1      45.212   3.330   8.648  0.00  0.00    +0.000 A 
ATOM     12  C   UNL     1      45.586   1.985   8.705  0.00  0.00    +0.000 A 
ATOM     13  C   UNL     1      46.505   1.507   7.780  0.00  0.00    +0.000 A 
ATOM     14  C   UNL     1      47.015   2.379   6.828  0.00  0.00    +0.000 A 
ATOM     15 CL   UNL     1      48.171   1.842   5.680  0.00  0.00    +0.000 Cl
ATOM     16  C   UNL     1      46.574   3.694   6.827  0.00  0.00    +0.000 A 
ATOM     17  N   UNL     1      45.679   4.189   7.708  0.00  0.00    +0.000 NA
ENDBRANCH  10  11
ENDBRANCH   9  10
ENDBRANCH   8   9
ENDBRANCH   5   8
ENDBRANCH   1   2
BRANCH   1  18
ATOM     18  N   UNL     1      48.086   4.194  15.424  0.00  0.00    +0.000 NA
ATOM     19  H   UNL     1      48.820   4.867  15.202  0.00  0.00    +0.000 HD
BRANCH  18  21
ATOM     20  C   UNL     1      48.834   2.395  16.976  0.00  0.00    +0.000 C 
ATOM     21  C   UNL     1      48.233   3.794  16.828  0.00  0.00    +0.000 C 
BRANCH  21  22
ATOM     22  C   UNL     1      49.133   4.838  17.483  0.00  0.00    +0.000 A 
ATOM     23  C   UNL     1      50.507   4.934  17.298  0.00  0.00    +0.000 A 
ATOM     24  S   UNL     1      51.211   6.267  18.096  0.00  0.00    +0.000 S 
ATOM     25  C   UNL     1      49.722   6.715  18.784  0.00  0.00    +0.000 A 
ATOM     26  N   UNL     1      49.622   7.792  19.609  0.00  0.00    +0.000 NA
ATOM     27  C   UNL     1      48.438   7.986  20.086  0.00  0.00    +0.000 A 
ATOM     28  N   UNL     1      47.344   7.205  19.813  0.00  0.00    +0.000 N 
ATOM     29  C   UNL     1      47.392   6.114  18.973  0.00  0.00    +0.000 A 
ATOM     30  O   UNL     1      46.397   5.424  18.749  0.00  0.00    +0.000 OA
ATOM     31  C   UNL     1      48.703   5.861  18.405  0.00  0.00    +0.000 A 
ATOM     32  H   UNL     1      46.450   7.403  20.235  0.00  0.00    +0.000 HD
ENDBRANCH  21  22
ENDBRANCH  18  21
ENDBRANCH   1  18
TORSDOF 8
ENDMDL
MODEL 7
REMARK VINA RESULT:    -6.053      4.087      6.046
REMARK INTER + INTRA:         -10.276
REMARK INTER:                  -8.306
REMARK INTRA:                  -1.970
REMARK UNBOUND:                -1.392
REMARK  Name = 
REMARK  9 active torsions:
REMARK  status: ('A' for Active; 'I' for Inactive)
REMARK    1  A    between atoms: C_1  and  C_2
REMARK    2  A    between atoms: C_2  and  N_3
REMARK    3  A    between atoms: C_2  and  C_21
REMARK    4  A    between atoms: N_3  and  C_4
REMARK    5  A    between atoms: C_4  and  C_5
REMARK    6  A    between atoms: C_8  and  C_9
REMARK    7  A    between atoms: C_9  and  O_10
REMARK    8  A    between atoms: O_10  and  C_11
REMARK    9  A    between atoms: C_11  and  C_12
REMARK                            x       y       z     vdW  Elec       q    Type
REMARK                         _______ _______ _______ _____ _____    ______ ____
ROOT
ATOM      1  C   UNL     1      50.159   8.364  18.148  0.00  0.00    +0.000 C 
ENDROOT
BRANCH   1   2
ATOM      2  C   UNL     1      50.692   8.560  16.708  0.00  0.00    +0.000 C 
ATOM      3  C   UNL     1      50.477   7.307  15.836  0.00  0.00    +0.000 C 
ATOM      4  C   UNL     1      49.019   7.123  15.429  0.00  0.00    +0.000 C 
ATOM      5  C   UNL     1      48.453   8.369  14.732  0.00  0.00    +0.000 C 
ATOM      6  C   UNL     1      48.669   9.641  15.549  0.00  0.00    +0.000 C 
ATOM      7  C   UNL     1      50.103   9.808  16.030  0.00  0.00    +0.000 C 
BRANCH   5   8
ATOM      8  C   UNL     1      49.008   8.511  13.303  0.00  0.00    +0.000 C 
BRANCH   8   9
ATOM      9  O   UNL     1      48.937   7.277  12.592  0.00  0.00    +0.000 OA
BRANCH   9  10
ATOM     10  C   UNL     1      47.960   7.307  11.551  0.00  0.00    +0.000 C 
BRANCH  10  11
ATOM     11  C   UNL     1      46.723   6.590  12.007  0.00  0.00    +0.000 A 
ATOM     12  C   UNL     1      46.821   5.561  12.947  0.00  0.00    +0.000 A 
ATOM     13  C   UNL     1      45.661   4.920  13.361  0.00  0.00    +0.000 A 
ATOM     14  C   UNL     1      44.444   5.328  12.833  0.00  0.00    +0.000 A 
ATOM     15 CL   UNL     1      42.986   4.552  13.295  0.00  0.00    +0.000 Cl
ATOM     16  C   UNL     1      44.431   6.374  11.922  0.00  0.00    +0.000 A 
ATOM     17  N   UNL     1      45.539   7.020  11.502  0.00  0.00    +0.000 NA
ENDBRANCH  10  11
ENDBRANCH   9  10
ENDBRANCH   8   9
ENDBRANCH   5   8
ENDBRANCH   1   2
BRANCH   1  18
ATOM     18  N   UNL     1      50.320   6.956  18.501  0.00  0.00    +0.000 NA
ATOM     19  H   UNL     1      51.152   6.853  19.084  0.00  0.00    +0.000 HD
BRANCH  18  21
ATOM     20  C   UNL     1      47.991   7.259  19.331  0.00  0.00    +0.000 C 
ATOM     21  C   UNL     1      49.191   6.320  19.190  0.00  0.00    +0.000 C 
BRANCH  21  22
ATOM     22  C   UNL     1      48.819   5.091  18.366  0.00  0.00    +0.000 A 
ATOM     23  C   UNL     1      47.560   4.840  17.834  0.00  0.00    +0.000 A 
ATOM     24  S   UNL     1      47.491   3.425  16.882  0.00  0.00    +0.000 S 
ATOM     25  C   UNL     1      49.117   3.055  17.214  0.00  0.00    +0.000 A 
ATOM     26  N   UNL     1      49.703   1.936  16.706  0.00  0.00    +0.000 NA
ATOM     27  C   UNL     1      50.928   1.766  17.075  0.00  0.00    +0.000 A 
ATOM     28  N   UNL     1      51.623   2.610  17.904  0.00  0.00    +0.000 N 
ATOM     29  C   UNL     1      51.078   3.761  18.431  0.00  0.00    +0.000 A 
ATOM     30  O   UNL     1      51.720   4.499  19.178  0.00  0.00    +0.000 OA
ATOM     31  C   UNL     1      49.703   4.000  18.036  0.00  0.00    +0.000 A 
ATOM     32  H   UNL     1      52.575   2.406  18.167  0.00  0.00    +0.000 HD
ENDBRANCH  21  22
ENDBRANCH  18  21
ENDBRANCH   1  18
TORSDOF 8
ENDMDL
MODEL 8
REMARK VINA RESULT:    -4.956     10.297     12.081
REMARK INTER + INTRA:          -8.666
REMARK INTER:                  -7.203
REMARK INTRA:                  -1.463
REMARK UNBOUND:                -1.392
REMARK  Name = 
REMARK  9 active torsions:
REMARK  status: ('A' for Active; 'I' for Inactive)
REMARK    1  A    between atoms: C_1  and  C_2
REMARK    2  A    between atoms: C_2  and  N_3
REMARK    3  A    between atoms: C_2  and  C_21
REMARK    4  A    between atoms: N_3  and  C_4
REMARK    5  A    between atoms: C_4  and  C_5
REMARK    6  A    between atoms: C_8  and  C_9
REMARK    7  A    between atoms: C_9  and  O_10
REMARK    8  A    between atoms: O_10  and  C_11
REMARK    9  A    between atoms: C_11  and  C_12
REMARK                            x       y       z     vdW  Elec       q    Type
REMARK                         _______ _______ _______ _____ _____    ______ ____
ROOT
ATOM      1  C   UNL     1      38.854  -2.098  14.968  0.00  0.00    +0.000 C 
ENDROOT
BRANCH   1   2
ATOM      2  C   UNL     1      40.390  -2.194  15.134  0.00  0.00    +0.000 C 
ATOM      3  C   UNL     1      40.834  -1.923  16.585  0.00  0.00    +0.000 C 
ATOM      4  C   UNL     1      40.511  -3.084  17.521  0.00  0.00    +0.000 C 
ATOM      5  C   UNL     1      41.097  -4.411  17.015  0.00  0.00    +0.000 C 
ATOM      6  C   UNL     1      40.706  -4.708  15.570  0.00  0.00    +0.000 C 
ATOM      7  C   UNL     1      40.950  -3.535  14.630  0.00  0.00    +0.000 C 
BRANCH   5   8
ATOM      8  C   UNL     1      42.624  -4.458  17.212  0.00  0.00    +0.000 C 
BRANCH   8   9
ATOM      9  O   UNL     1      43.205  -5.562  16.522  0.00  0.00    +0.000 OA
BRANCH   9  10
ATOM     10  C   UNL     1      43.633  -6.593  17.412  0.00  0.00    +0.000 C 
BRANCH  10  11
ATOM     11  C   UNL     1      45.127  -6.721  17.346  0.00  0.00    +0.000 A 
ATOM     12  C   UNL     1      45.931  -5.922  18.163  0.00  0.00    +0.000 A 
ATOM     13  C   UNL     1      47.310  -6.066  18.092  0.00  0.00    +0.000 A 
ATOM     14  C   UNL     1      47.842  -7.004  17.217  0.00  0.00    +0.000 A 
ATOM     15 CL   UNL     1      49.540  -7.202  17.076  0.00  0.00    +0.000 Cl
ATOM     16  C   UNL     1      46.973  -7.773  16.458  0.00  0.00    +0.000 A 
ATOM     17  N   UNL     1      45.629  -7.661  16.506  0.00  0.00    +0.000 NA
ENDBRANCH  10  11
ENDBRANCH   9  10
ENDBRANCH   8   9
ENDBRANCH   5   8
ENDBRANCH   1   2
BRANCH   1  18
ATOM     18  N   UNL     1      38.441  -0.753  15.363  0.00  0.00    +0.000 NA
ATOM     19  H   UNL     1      38.225  -0.213  14.525  0.00  0.00    +0.000 HD
BRANCH  18  21
ATOM     20  C   UNL     1      36.782  -2.037  16.706  0.00  0.00    +0.000 C 
ATOM     21  C   UNL     1      37.299  -0.662  16.281  0.00  0.00    +0.000 C 
BRANCH  21  22
ATOM     22  C   UNL     1      37.781   0.129  17.493  0.00  0.00    +0.000 A 
ATOM     23  C   UNL     1      38.100  -0.421  18.729  0.00  0.00    +0.000 A 
ATOM     24  S   UNL     1      38.698   0.718  19.850  0.00  0.00    +0.000 S 
ATOM     25  C   UNL     1      38.474   1.998  18.753  0.00  0.00    +0.000 A 
ATOM     26  N   UNL     1      38.782   3.279  19.095  0.00  0.00    +0.000 NA
ATOM     27  C   UNL     1      38.523   4.149  18.176  0.00  0.00    +0.000 A 
ATOM     28  N   UNL     1      37.986   3.857  16.948  0.00  0.00    +0.000 N 
ATOM     29  C   UNL     1      37.672   2.575  16.551  0.00  0.00    +0.000 A 
ATOM     30  O   UNL     1      37.186   2.339  15.446  0.00  0.00    +0.000 OA
ATOM     31  C   UNL     1      37.955   1.560  17.549  0.00  0.00    +0.000 A 
ATOM     32  H   UNL     1      37.792   4.589  16.282  0.00  0.00    +0.000 HD
ENDBRANCH  21  22
ENDBRANCH  18  21
ENDBRANCH   1  18
TORSDOF 8
ENDMDL
