MODEL 1
REMARK VINA RESULT:    -8.970      0.000      0.000
REMARK INTER + INTRA:         -11.777
REMARK INTER:                 -11.592
REMARK INTRA:                  -0.186
REMARK UNBOUND:                -0.186
REMARK  Name = 
REMARK  6 active torsions:
REMARK  status: ('A' for Active; 'I' for Inactive)
REMARK    1  A    between atoms: C_1  and  C_2
REMARK    2  A    between atoms: C_2  and  N_3
REMARK    3  A    between atoms: C_2  and  C_16
REMARK    4  A    between atoms: C_4  and  C_6
REMARK    5  A    between atoms: C_19  and  O_20
REMARK    6  A    between atoms: O_20  and  C_21
REMARK                            x       y       z     vdW  Elec       q    Type
REMARK                         _______ _______ _______ _____ _____    ______ ____
ROOT
ATOM      1  C   UNL     1      43.381   4.276  13.525  0.00  0.00    +0.000 C 
ATOM      2  C   UNL     1      44.112   5.478  12.912  0.00  0.00    +0.000 C 
ENDROOT
BRANCH   2   3
ATOM      3  C   UNL     1      44.484   5.180  11.467  0.00  0.00    +0.000 A 
ATOM      4  C   UNL     1      43.765   4.222  10.739  0.00  0.00    +0.000 A 
ATOM      5  C   UNL     1      44.115   3.915   9.421  0.00  0.00    +0.000 A 
ATOM      6  C   UNL     1      45.153   4.606   8.791  0.00  0.00    +0.000 A 
ATOM      7  C   UNL     1      45.890   5.545   9.512  0.00  0.00    +0.000 A 
ATOM      8  C   UNL     1      45.558   5.833  10.838  0.00  0.00    +0.000 A 
BRANCH   6   9
ATOM      9  O   UNL     1      45.566   4.380   7.497  0.00  0.00    +0.000 OA
BRANCH   9  10
ATOM     10  C   UNL     1      46.329   3.277   7.192  0.00  0.00    +0.000 A 
ATOM     11  C   UNL     1      46.350   2.096   7.932  0.00  0.00    +0.000 A 
ATOM     12  C   UNL     1      47.182   1.077   7.505  0.00  0.00    +0.000 A 
ATOM     13  N   UNL     1      47.934   1.138   6.384  0.00  0.00    +0.000 NA
ATOM     14  C   UNL     1      47.845   2.271   5.656  0.00  0.00    +0.000 A 
ATOM     15  C   UNL     1      47.063   3.355   6.012  0.00  0.00    +0.000 A 
ENDBRANCH   9  10
ENDBRANCH   6   9
ENDBRANCH   2   3
BRANCH   2  16
ATOM     16  N   UNL     1      45.300   5.857  13.662  0.00  0.00    +0.000 N 
ATOM     17  C   UNL     1      46.264   4.946  14.012  0.00  0.00    +0.000 C 
ATOM     18  O   UNL     1      46.223   3.769  13.666  0.00  0.00    +0.000 OA
ATOM     19  H   UNL     1      45.232   6.710  14.208  0.00  0.00    +0.000 HD
BRANCH  17  20
ATOM     20  C   UNL     1      47.404   5.460  14.780  0.00  0.00    +0.000 A 
ATOM     21  C   UNL     1      48.187   6.474  14.245  0.00  0.00    +0.000 A 
ATOM     22  S   UNL     1      49.468   6.956  15.259  0.00  0.00    +0.000 S 
ATOM     23  C   UNL     1      49.050   5.791  16.430  0.00  0.00    +0.000 A 
ATOM     24  N   UNL     1      49.791   5.639  17.557  0.00  0.00    +0.000 NA
ATOM     25  C   UNL     1      49.383   4.693  18.338  0.00  0.00    +0.000 A 
ATOM     26  N   UNL     1      48.290   3.900  18.099  0.00  0.00    +0.000 N 
ATOM     27  C   UNL     1      47.483   4.052  16.995  0.00  0.00    +0.000 A 
ATOM     28  O   UNL     1      46.466   3.382  16.845  0.00  0.00    +0.000 OA
ATOM     29  C   UNL     1      47.924   5.073  16.066  0.00  0.00    +0.000 A 
ATOM     30  H   UNL     1      48.012   3.192  18.764  0.00  0.00    +0.000 HD
ENDBRANCH  17  20
ENDBRANCH   2  16
TORSDOF 5
ENDMDL
MODEL 2
REMARK VINA RESULT:    -8.653      2.780      3.576
REMARK INTER + INTRA:         -11.368
REMARK INTER:                 -10.294
REMARK INTRA:                  -1.074
REMARK UNBOUND:                -0.186
REMARK  Name = 
REMARK  6 active torsions:
REMARK  status: ('A' for Active; 'I' for Inactive)
REMARK    1  A    between atoms: C_1  and  C_2
REMARK    2  A    between atoms: C_2  and  N_3
REMARK    3  A    between atoms: C_2  and  C_16
REMARK    4  A    between atoms: C_4  and  C_6
REMARK    5  A    between atoms: C_19  and  O_20
REMARK    6  A    between atoms: O_20  and  C_21
REMARK                            x       y       z     vdW  Elec       q    Type
REMARK                         _______ _______ _______ _____ _____    ______ ____
ROOT
ATOM      1  C   UNL     1      46.023   4.780  14.116  0.00  0.00    +0.000 C 
ATOM      2  C   UNL     1      45.820   5.864  13.050  0.00  0.00    +0.000 C 
ENDROOT
BRANCH   2   3
ATOM      3  C   UNL     1      45.550   5.222  11.698  0.00  0.00    +0.000 A 
ATOM      4  C   UNL     1      44.896   3.984  11.626  0.00  0.00    +0.000 A 
ATOM      5  C   UNL     1      44.670   3.366  10.391  0.00  0.00    +0.000 A 
ATOM      6  C   UNL     1      45.041   4.007   9.207  0.00  0.00    +0.000 A 
ATOM      7  C   UNL     1      45.713   5.228   9.267  0.00  0.00    +0.000 A 
ATOM      8  C   UNL     1      45.964   5.833  10.502  0.00  0.00    +0.000 A 
BRANCH   6   9
ATOM      9  O   UNL     1      44.855   3.484   7.948  0.00  0.00    +0.000 OA
BRANCH   9  10
ATOM     10  C   UNL     1      45.892   2.863   7.291  0.00  0.00    +0.000 A 
ATOM     11  C   UNL     1      46.506   3.348   6.138  0.00  0.00    +0.000 A 
ATOM     12  C   UNL     1      47.530   2.601   5.584  0.00  0.00    +0.000 A 
ATOM     13  N   UNL     1      48.005   1.457   6.124  0.00  0.00    +0.000 NA
ATOM     14  C   UNL     1      47.431   1.045   7.274  0.00  0.00    +0.000 A 
ATOM     15  C   UNL     1      46.385   1.708   7.891  0.00  0.00    +0.000 A 
ENDBRANCH   9  10
ENDBRANCH   6   9
ENDBRANCH   2   3
BRANCH   2  16
ATOM     16  N   UNL     1      46.950   6.775  12.951  0.00  0.00    +0.000 N 
ATOM     17  C   UNL     1      46.805   8.134  13.077  0.00  0.00    +0.000 C 
ATOM     18  O   UNL     1      45.731   8.666  13.343  0.00  0.00    +0.000 OA
ATOM     19  H   UNL     1      47.763   6.429  12.451  0.00  0.00    +0.000 HD
BRANCH  17  20
ATOM     20  C   UNL     1      48.024   8.939  12.941  0.00  0.00    +0.000 A 
ATOM     21  C   UNL     1      47.979  10.134  12.237  0.00  0.00    +0.000 A 
ATOM     22  S   UNL     1      49.475  10.946  12.170  0.00  0.00    +0.000 S 
ATOM     23  C   UNL     1      50.249   9.702  13.040  0.00  0.00    +0.000 A 
ATOM     24  N   UNL     1      51.582   9.754  13.294  0.00  0.00    +0.000 NA
ATOM     25  C   UNL     1      52.042   8.726  13.928  0.00  0.00    +0.000 A 
ATOM     26  N   UNL     1      51.285   7.662  14.346  0.00  0.00    +0.000 N 
ATOM     27  C   UNL     1      49.924   7.592  14.155  0.00  0.00    +0.000 A 
ATOM     28  O   UNL     1      49.258   6.667  14.608  0.00  0.00    +0.000 OA
ATOM     29  C   UNL     1      49.365   8.702  13.409  0.00  0.00    +0.000 A 
ATOM     30  H   UNL     1      51.705   6.900  14.859  0.00  0.00    +0.000 HD
ENDBRANCH  17  20
ENDBRANCH   2  16
TORSDOF 5
ENDMDL
MODEL 3
REMARK VINA RESULT:    -7.818      1.753      2.288
REMARK INTER + INTRA:         -10.289
REMARK INTER:                  -9.077
REMARK INTRA:                  -1.212
REMARK UNBOUND:                -0.186
REMARK  Name = 
REMARK  6 active torsions:
REMARK  status: ('A' for Active; 'I' for Inactive)
REMARK    1  A    between atoms: C_1  and  C_2
REMARK    2  A    between atoms: C_2  and  N_3
REMARK    3  A    between atoms: C_2  and  C_16
REMARK    4  A    between atoms: C_4  and  C_6
REMARK    5  A    between atoms: C_19  and  O_20
REMARK    6  A    between atoms: O_20  and  C_21
REMARK                            x       y       z     vdW  Elec       q    Type
REMARK                         _______ _______ _______ _____ _____    ______ ____
ROOT
ATOM      1  C   UNL     1      44.427   4.885  13.733  0.00  0.00    +0.000 C 
ATOM      2  C   UNL     1      45.025   5.921  12.773  0.00  0.00    +0.000 C 
ENDROOT
BRANCH   2   3
ATOM      3  C   UNL     1      45.066   5.360  11.359  0.00  0.00    +0.000 A 
ATOM      4  C   UNL     1      46.004   5.845  10.437  0.00  0.00    +0.000 A 
ATOM      5  C   UNL     1      46.032   5.362   9.125  0.00  0.00    +0.000 A 
ATOM      6  C   UNL     1      45.160   4.343   8.733  0.00  0.00    +0.000 A 
ATOM      7  C   UNL     1      44.207   3.870   9.635  0.00  0.00    +0.000 A 
ATOM      8  C   UNL     1      44.161   4.371  10.938  0.00  0.00    +0.000 A 
BRANCH   6   9
ATOM      9  O   UNL     1      45.116   3.800   7.469  0.00  0.00    +0.000 OA
BRANCH   9  10
ATOM     10  C   UNL     1      46.151   3.019   7.010  0.00  0.00    +0.000 A 
ATOM     11  C   UNL     1      46.631   1.879   7.652  0.00  0.00    +0.000 A 
ATOM     12  C   UNL     1      47.692   1.205   7.072  0.00  0.00    +0.000 A 
ATOM     13  N   UNL     1      48.253   1.556   5.894  0.00  0.00    +0.000 NA
ATOM     14  C   UNL     1      47.726   2.629   5.266  0.00  0.00    +0.000 A 
ATOM     15  C   UNL     1      46.685   3.383   5.777  0.00  0.00    +0.000 A 
ENDBRANCH   9  10
ENDBRANCH   6   9
ENDBRANCH   2   3
BRANCH   2  16
ATOM     16  N   UNL     1      46.354   6.359  13.172  0.00  0.00    +0.000 N 
ATOM     17  C   UNL     1      46.651   7.680  13.397  0.00  0.00    +0.000 C 
ATOM     18  O   UNL     1      45.806   8.569  13.337  0.00  0.00    +0.000 OA
ATOM     19  H   UNL     1      47.120   5.733  12.945  0.00  0.00    +0.000 HD
BRANCH  17  20
ATOM     20  C   UNL     1      48.033   7.985  13.780  0.00  0.00    +0.000 A 
ATOM     21  C   UNL     1      48.715   9.002  13.126  0.00  0.00    +0.000 A 
ATOM     22  S   UNL     1      50.308   9.229  13.687  0.00  0.00    +0.000 S 
ATOM     23  C   UNL     1      50.158   7.941  14.793  0.00  0.00    +0.000 A 
ATOM     24  N   UNL     1      51.204   7.569  15.574  0.00  0.00    +0.000 NA
ATOM     25  C   UNL     1      50.962   6.554  16.337  0.00  0.00    +0.000 A 
ATOM     26  N   UNL     1      49.763   5.892  16.399  0.00  0.00    +0.000 N 
ATOM     27  C   UNL     1      48.662   6.267  15.663  0.00  0.00    +0.000 A 
ATOM     28  O   UNL     1      47.579   5.707  15.797  0.00  0.00    +0.000 OA
ATOM     29  C   UNL     1      48.895   7.375  14.758  0.00  0.00    +0.000 A 
ATOM     30  H   UNL     1      49.634   5.119  17.037  0.00  0.00    +0.000 HD
ENDBRANCH  17  20
ENDBRANCH   2  16
TORSDOF 5
ENDMDL
MODEL 4
REMARK VINA RESULT:    -7.750      3.426      8.348
REMARK INTER + INTRA:         -10.201
REMARK INTER:                  -9.009
REMARK INTRA:                  -1.191
REMARK UNBOUND:                -0.186
REMARK  Name = 
REMARK  6 active torsions:
REMARK  status: ('A' for Active; 'I' for Inactive)
REMARK    1  A    between atoms: C_1  and  C_2
REMARK    2  A    between atoms: C_2  and  N_3
REMARK    3  A    between atoms: C_2  and  C_16
REMARK    4  A    between atoms: C_4  and  C_6
REMARK    5  A    between atoms: C_19  and  O_20
REMARK    6  A    between atoms: O_20  and  C_21
REMARK                            x       y       z     vdW  Elec       q    Type
REMARK                         _______ _______ _______ _____ _____    ______ ____
ROOT
ATOM      1  C   UNL     1      49.228   8.085  12.746  0.00  0.00    +0.000 C 
ATOM      2  C   UNL     1      48.103   7.361  13.497  0.00  0.00    +0.000 C 
ENDROOT
BRANCH   2   3
ATOM      3  C   UNL     1      48.660   6.676  14.737  0.00  0.00    +0.000 A 
ATOM      4  C   UNL     1      47.912   5.684  15.387  0.00  0.00    +0.000 A 
ATOM      5  C   UNL     1      48.397   5.069  16.545  0.00  0.00    +0.000 A 
ATOM      6  C   UNL     1      49.664   5.394  17.036  0.00  0.00    +0.000 A 
ATOM      7  C   UNL     1      50.407   6.395  16.411  0.00  0.00    +0.000 A 
ATOM      8  C   UNL     1      49.911   7.030  15.269  0.00  0.00    +0.000 A 
BRANCH   6   9
ATOM      9  O   UNL     1      50.228   4.839  18.162  0.00  0.00    +0.000 OA
BRANCH   9  10
ATOM     10  C   UNL     1      51.017   3.716  18.066  0.00  0.00    +0.000 A 
ATOM     11  C   UNL     1      50.651   2.541  17.413  0.00  0.00    +0.000 A 
ATOM     12  C   UNL     1      51.550   1.490  17.414  0.00  0.00    +0.000 A 
ATOM     13  N   UNL     1      52.783   1.554  17.963  0.00  0.00    +0.000 NA
ATOM     14  C   UNL     1      53.132   2.726  18.534  0.00  0.00    +0.000 A 
ATOM     15  C   UNL     1      52.295   3.825  18.607  0.00  0.00    +0.000 A 
ENDBRANCH   9  10
ENDBRANCH   6   9
ENDBRANCH   2   3
BRANCH   2  16
ATOM     16  N   UNL     1      47.402   6.394  12.668  0.00  0.00    +0.000 N 
ATOM     17  C   UNL     1      46.341   6.747  11.872  0.00  0.00    +0.000 C 
ATOM     18  O   UNL     1      45.953   7.906  11.760  0.00  0.00    +0.000 OA
ATOM     19  H   UNL     1      47.483   5.421  12.946  0.00  0.00    +0.000 HD
BRANCH  17  20
ATOM     20  C   UNL     1      45.716   5.670  11.096  0.00  0.00    +0.000 A 
ATOM     21  C   UNL     1      45.810   5.683   9.711  0.00  0.00    +0.000 A 
ATOM     22  S   UNL     1      45.031   4.366   8.961  0.00  0.00    +0.000 S 
ATOM     23  C   UNL     1      44.498   3.758  10.462  0.00  0.00    +0.000 A 
ATOM     24  N   UNL     1      43.723   2.646  10.527  0.00  0.00    +0.000 NA
ATOM     25  C   UNL     1      43.360   2.321  11.724  0.00  0.00    +0.000 A 
ATOM     26  N   UNL     1      43.721   2.998  12.860  0.00  0.00    +0.000 N 
ATOM     27  C   UNL     1      44.546   4.099  12.845  0.00  0.00    +0.000 A 
ATOM     28  O   UNL     1      44.916   4.639  13.882  0.00  0.00    +0.000 OA
ATOM     29  C   UNL     1      44.945   4.531  11.520  0.00  0.00    +0.000 A 
ATOM     30  H   UNL     1      43.421   2.675  13.770  0.00  0.00    +0.000 HD
ENDBRANCH  17  20
ENDBRANCH   2  16
TORSDOF 5
ENDMDL
MODEL 5
REMARK VINA RESULT:    -7.711      2.787      3.900
REMARK INTER + INTRA:         -10.150
REMARK INTER:                  -8.943
REMARK INTRA:                  -1.207
REMARK UNBOUND:                -0.186
REMARK  Name = 
REMARK  6 active torsions:
REMARK  status: ('A' for Active; 'I' for Inactive)
REMARK    1  A    between atoms: C_1  and  C_2
REMARK    2  A    between atoms: C_2  and  N_3
REMARK    3  A    between atoms: C_2  and  C_16
REMARK    4  A    between atoms: C_4  and  C_6
REMARK    5  A    between atoms: C_19  and  O_20
REMARK    6  A    between atoms: O_20  and  C_21
REMARK                            x       y       z     vdW  Elec       q    Type
REMARK                         _______ _______ _______ _____ _____    ______ ____
ROOT
ATOM      1  C   UNL     1      47.818   9.118  13.969  0.00  0.00    +0.000 C 
ATOM      2  C   UNL     1      48.083   7.610  14.063  0.00  0.00    +0.000 C 
ENDROOT
BRANCH   2   3
ATOM      3  C   UNL     1      47.116   6.853  13.165  0.00  0.00    +0.000 A 
ATOM      4  C   UNL     1      46.866   5.492  13.391  0.00  0.00    +0.000 A 
ATOM      5  C   UNL     1      46.004   4.776  12.554  0.00  0.00    +0.000 A 
ATOM      6  C   UNL     1      45.332   5.426  11.516  0.00  0.00    +0.000 A 
ATOM      7  C   UNL     1      45.590   6.773  11.268  0.00  0.00    +0.000 A 
ATOM      8  C   UNL     1      46.472   7.483  12.087  0.00  0.00    +0.000 A 
BRANCH   6   9
ATOM      9  O   UNL     1      44.461   4.809  10.646  0.00  0.00    +0.000 OA
BRANCH   9  10
ATOM     10  C   UNL     1      44.924   3.897   9.727  0.00  0.00    +0.000 A 
ATOM     11  C   UNL     1      44.722   2.521   9.801  0.00  0.00    +0.000 A 
ATOM     12  C   UNL     1      45.264   1.730   8.803  0.00  0.00    +0.000 A 
ATOM     13  N   UNL     1      45.931   2.217   7.735  0.00  0.00    +0.000 NA
ATOM     14  C   UNL     1      46.057   3.559   7.659  0.00  0.00    +0.000 A 
ATOM     15  C   UNL     1      45.575   4.431   8.618  0.00  0.00    +0.000 A 
ENDBRANCH   9  10
ENDBRANCH   6   9
ENDBRANCH   2   3
BRANCH   2  16
ATOM     16  N   UNL     1      47.995   7.106  15.425  0.00  0.00    +0.000 N 
ATOM     17  C   UNL     1      49.076   6.563  16.074  0.00  0.00    +0.000 C 
ATOM     18  O   UNL     1      50.198   6.523  15.576  0.00  0.00    +0.000 OA
ATOM     19  H   UNL     1      47.069   6.847  15.749  0.00  0.00    +0.000 HD
BRANCH  17  20
ATOM     20  C   UNL     1      48.846   6.080  17.440  0.00  0.00    +0.000 A 
ATOM     21  C   UNL     1      49.085   4.746  17.742  0.00  0.00    +0.000 A 
ATOM     22  S   UNL     1      48.768   4.346  19.367  0.00  0.00    +0.000 S 
ATOM     23  C   UNL     1      48.252   5.933  19.713  0.00  0.00    +0.000 A 
ATOM     24  N   UNL     1      47.794   6.263  20.947  0.00  0.00    +0.000 NA
ATOM     25  C   UNL     1      47.401   7.489  21.057  0.00  0.00    +0.000 A 
ATOM     26  N   UNL     1      47.442   8.416  20.048  0.00  0.00    +0.000 N 
ATOM     27  C   UNL     1      47.945   8.139  18.797  0.00  0.00    +0.000 A 
ATOM     28  O   UNL     1      48.044   9.007  17.937  0.00  0.00    +0.000 OA
ATOM     29  C   UNL     1      48.360   6.763  18.610  0.00  0.00    +0.000 A 
ATOM     30  H   UNL     1      47.140   9.367  20.209  0.00  0.00    +0.000 HD
ENDBRANCH  17  20
ENDBRANCH   2  16
TORSDOF 5
ENDMDL
MODEL 6
REMARK VINA RESULT:    -7.335      2.342      3.602
REMARK INTER + INTRA:          -9.665
REMARK INTER:                  -8.426
REMARK INTRA:                  -1.239
REMARK UNBOUND:                -0.186
REMARK  Name = 
REMARK  6 active torsions:
REMARK  status: ('A' for Active; 'I' for Inactive)
REMARK    1  A    between atoms: C_1  and  C_2
REMARK    2  A    between atoms: C_2  and  N_3
REMARK    3  A    between atoms: C_2  and  C_16
REMARK    4  A    between atoms: C_4  and  C_6
REMARK    5  A    between atoms: C_19  and  O_20
REMARK    6  A    between atoms: O_20  and  C_21
REMARK                            x       y       z     vdW  Elec       q    Type
REMARK                         _______ _______ _______ _____ _____    ______ ____
ROOT
ATOM      1  C   UNL     1      47.890   9.438  13.717  0.00  0.00    +0.000 C 
ATOM      2  C   UNL     1      48.188   7.936  13.810  0.00  0.00    +0.000 C 
ENDROOT
BRANCH   2   3
ATOM      3  C   UNL     1      47.148   7.149  13.026  0.00  0.00    +0.000 A 
ATOM      4  C   UNL     1      47.052   5.759  13.185  0.00  0.00    +0.000 A 
ATOM      5  C   UNL     1      46.123   5.018  12.447  0.00  0.00    +0.000 A 
ATOM      6  C   UNL     1      45.236   5.665  11.584  0.00  0.00    +0.000 A 
ATOM      7  C   UNL     1      45.338   7.044  11.400  0.00  0.00    +0.000 A 
ATOM      8  C   UNL     1      46.284   7.781  12.117  0.00  0.00    +0.000 A 
BRANCH   6   9
ATOM      9  O   UNL     1      44.285   5.024  10.823  0.00  0.00    +0.000 OA
BRANCH   9  10
ATOM     10  C   UNL     1      44.651   4.041   9.934  0.00  0.00    +0.000 A 
ATOM     11  C   UNL     1      44.349   2.688  10.076  0.00  0.00    +0.000 A 
ATOM     12  C   UNL     1      44.801   1.815   9.102  0.00  0.00    +0.000 A 
ATOM     13  N   UNL     1      45.469   2.204   7.994  0.00  0.00    +0.000 NA
ATOM     14  C   UNL     1      45.692   3.528   7.854  0.00  0.00    +0.000 A 
ATOM     15  C   UNL     1      45.305   4.475   8.784  0.00  0.00    +0.000 A 
ENDBRANCH   9  10
ENDBRANCH   6   9
ENDBRANCH   2   3
BRANCH   2  16
ATOM     16  N   UNL     1      48.244   7.456  15.182  0.00  0.00    +0.000 N 
ATOM     17  C   UNL     1      49.432   7.286  15.848  0.00  0.00    +0.000 C 
ATOM     18  O   UNL     1      50.517   7.583  15.356  0.00  0.00    +0.000 OA
ATOM     19  H   UNL     1      47.439   6.932  15.507  0.00  0.00    +0.000 HD
BRANCH  17  20
ATOM     20  C   UNL     1      49.346   6.782  17.223  0.00  0.00    +0.000 A 
ATOM     21  C   UNL     1      49.727   7.603  18.276  0.00  0.00    +0.000 A 
ATOM     22  S   UNL     1      49.569   6.869  19.806  0.00  0.00    +0.000 S 
ATOM     23  C   UNL     1      49.032   5.409  19.110  0.00  0.00    +0.000 A 
ATOM     24  N   UNL     1      48.758   4.328  19.883  0.00  0.00    +0.000 NA
ATOM     25  C   UNL     1      48.397   3.279  19.220  0.00  0.00    +0.000 A 
ATOM     26  N   UNL     1      48.270   3.222  17.856  0.00  0.00    +0.000 N 
ATOM     27  C   UNL     1      48.489   4.307  17.039  0.00  0.00    +0.000 A 
ATOM     28  O   UNL     1      48.291   4.251  15.830  0.00  0.00    +0.000 OA
ATOM     29  C   UNL     1      48.938   5.499  17.731  0.00  0.00    +0.000 A 
ATOM     30  H   UNL     1      47.960   2.374  17.403  0.00  0.00    +0.000 HD
ENDBRANCH  17  20
ENDBRANCH   2  16
TORSDOF 5
ENDMDL
MODEL 7
REMARK VINA RESULT:    -7.159      3.099      8.844
REMARK INTER + INTRA:          -9.437
REMARK INTER:                  -8.492
REMARK INTRA:                  -0.945
REMARK UNBOUND:                -0.186
REMARK  Name = 
REMARK  6 active torsions:
REMARK  status: ('A' for Active; 'I' for Inactive)
REMARK    1  A    between atoms: C_1  and  C_2
REMARK    2  A    between atoms: C_2  and  N_3
REMARK    3  A    between atoms: C_2  and  C_16
REMARK    4  A    between atoms: C_4  and  C_6
REMARK    5  A    between atoms: C_19  and  O_20
REMARK    6  A    between atoms: O_20  and  C_21
REMARK                            x       y       z     vdW  Elec       q    Type
REMARK                         _______ _______ _______ _____ _____    ______ ____
ROOT
ATOM      1  C   UNL     1      48.860   7.694  11.887  0.00  0.00    +0.000 C 
ATOM      2  C   UNL     1      47.901   7.254  13.000  0.00  0.00    +0.000 C 
ENDROOT
BRANCH   2   3
ATOM      3  C   UNL     1      48.682   6.931  14.265  0.00  0.00    +0.000 A 
ATOM      4  C   UNL     1      48.106   6.133  15.263  0.00  0.00    +0.000 A 
ATOM      5  C   UNL     1      48.800   5.855  16.445  0.00  0.00    +0.000 A 
ATOM      6  C   UNL     1      50.105   6.322  16.620  0.00  0.00    +0.000 A 
ATOM      7  C   UNL     1      50.679   7.137  15.644  0.00  0.00    +0.000 A 
ATOM      8  C   UNL     1      49.976   7.437  14.474  0.00  0.00    +0.000 A 
BRANCH   6   9
ATOM      9  O   UNL     1      50.868   6.096  17.742  0.00  0.00    +0.000 OA
BRANCH   9  10
ATOM     10  C   UNL     1      51.801   5.085  17.759  0.00  0.00    +0.000 A 
ATOM     11  C   UNL     1      53.181   5.277  17.770  0.00  0.00    +0.000 A 
ATOM     12  C   UNL     1      53.992   4.157  17.771  0.00  0.00    +0.000 A 
ATOM     13  N   UNL     1      53.527   2.889  17.817  0.00  0.00    +0.000 NA
ATOM     14  C   UNL     1      52.186   2.737  17.867  0.00  0.00    +0.000 A 
ATOM     15  C   UNL     1      51.292   3.792  17.843  0.00  0.00    +0.000 A 
ENDBRANCH   9  10
ENDBRANCH   6   9
ENDBRANCH   2   3
BRANCH   2  16
ATOM     16  N   UNL     1      47.080   6.115  12.619  0.00  0.00    +0.000 N 
ATOM     17  C   UNL     1      45.899   6.262  11.935  0.00  0.00    +0.000 C 
ATOM     18  O   UNL     1      45.489   7.351  11.546  0.00  0.00    +0.000 OA
ATOM     19  H   UNL     1      47.213   5.266  13.158  0.00  0.00    +0.000 HD
BRANCH  17  20
ATOM     20  C   UNL     1      45.163   5.031  11.626  0.00  0.00    +0.000 A 
ATOM     21  C   UNL     1      44.451   4.391  12.631  0.00  0.00    +0.000 A 
ATOM     22  S   UNL     1      43.654   2.978  12.110  0.00  0.00    +0.000 S 
ATOM     23  C   UNL     1      44.274   3.146  10.532  0.00  0.00    +0.000 A 
ATOM     24  N   UNL     1      44.005   2.221   9.576  0.00  0.00    +0.000 NA
ATOM     25  C   UNL     1      44.571   2.454   8.437  0.00  0.00    +0.000 A 
ATOM     26  N   UNL     1      45.365   3.538   8.167  0.00  0.00    +0.000 N 
ATOM     27  C   UNL     1      45.623   4.525   9.091  0.00  0.00    +0.000 A 
ATOM     28  O   UNL     1      46.272   5.524   8.800  0.00  0.00    +0.000 OA
ATOM     29  C   UNL     1      45.045   4.288  10.399  0.00  0.00    +0.000 A 
ATOM     30  H   UNL     1      45.758   3.672   7.246  0.00  0.00    +0.000 HD
ENDBRANCH  17  20
ENDBRANCH   2  16
TORSDOF 5
ENDMDL
MODEL 8
REMARK VINA RESULT:    -7.064      3.625      9.601
REMARK INTER + INTRA:          -9.314
REMARK INTER:                  -8.245
REMARK INTRA:                  -1.070
REMARK UNBOUND:                -0.186
REMARK  Name = 
REMARK  6 active torsions:
REMARK  status: ('A' for Active; 'I' for Inactive)
REMARK    1  A    between atoms: C_1  and  C_2
REMARK    2  A    between atoms: C_2  and  N_3
REMARK    3  A    between atoms: C_2  and  C_16
REMARK    4  A    between atoms: C_4  and  C_6
REMARK    5  A    between atoms: C_19  and  O_20
REMARK    6  A    between atoms: O_20  and  C_21
REMARK                            x       y       z     vdW  Elec       q    Type
REMARK                         _______ _______ _______ _____ _____    ______ ____
ROOT
ATOM      1  C   UNL     1      48.948   7.786  11.378  0.00  0.00    +0.000 C 
ATOM      2  C   UNL     1      47.680   7.658  12.232  0.00  0.00    +0.000 C 
ENDROOT
BRANCH   2   3
ATOM      3  C   UNL     1      48.039   7.707  13.710  0.00  0.00    +0.000 A 
ATOM      4  C   UNL     1      48.056   8.934  14.389  0.00  0.00    +0.000 A 
ATOM      5  C   UNL     1      48.415   8.998  15.739  0.00  0.00    +0.000 A 
ATOM      6  C   UNL     1      48.704   7.828  16.445  0.00  0.00    +0.000 A 
ATOM      7  C   UNL     1      48.713   6.605  15.775  0.00  0.00    +0.000 A 
ATOM      8  C   UNL     1      48.380   6.543  14.419  0.00  0.00    +0.000 A 
BRANCH   6   9
ATOM      9  O   UNL     1      49.060   7.789  17.774  0.00  0.00    +0.000 OA
BRANCH   9  10
ATOM     10  C   UNL     1      48.660   8.787  18.632  0.00  0.00    +0.000 A 
ATOM     11  C   UNL     1      49.431   9.894  18.979  0.00  0.00    +0.000 A 
ATOM     12  C   UNL     1      48.893  10.807  19.869  0.00  0.00    +0.000 A 
ATOM     13  N   UNL     1      47.645  10.717  20.379  0.00  0.00    +0.000 NA
ATOM     14  C   UNL     1      46.900   9.666  19.975  0.00  0.00    +0.000 A 
ATOM     15  C   UNL     1      47.356   8.687  19.111  0.00  0.00    +0.000 A 
ENDBRANCH   9  10
ENDBRANCH   6   9
ENDBRANCH   2   3
BRANCH   2  16
ATOM     16  N   UNL     1      46.926   6.448  11.944  0.00  0.00    +0.000 N 
ATOM     17  C   UNL     1      45.559   6.450  11.825  0.00  0.00    +0.000 C 
ATOM     18  O   UNL     1      44.888   7.476  11.891  0.00  0.00    +0.000 OA
ATOM     19  H   UNL     1      47.380   5.570  12.175  0.00  0.00    +0.000 HD
BRANCH  17  20
ATOM     20  C   UNL     1      44.923   5.158  11.547  0.00  0.00    +0.000 A 
ATOM     21  C   UNL     1      44.185   4.531  12.542  0.00  0.00    +0.000 A 
ATOM     22  S   UNL     1      43.514   3.041  12.060  0.00  0.00    +0.000 S 
ATOM     23  C   UNL     1      44.228   3.157  10.517  0.00  0.00    +0.000 A 
ATOM     24  N   UNL     1      44.083   2.163   9.605  0.00  0.00    +0.000 NA
ATOM     25  C   UNL     1      44.709   2.366   8.493  0.00  0.00    +0.000 A 
ATOM     26  N   UNL     1      45.452   3.483   8.208  0.00  0.00    +0.000 N 
ATOM     27  C   UNL     1      45.585   4.536   9.083  0.00  0.00    +0.000 A 
ATOM     28  O   UNL     1      46.189   5.557   8.772  0.00  0.00    +0.000 OA
ATOM     29  C   UNL     1      44.935   4.338  10.363  0.00  0.00    +0.000 A 
ATOM     30  H   UNL     1      45.898   3.589   7.307  0.00  0.00    +0.000 HD
ENDBRANCH  17  20
ENDBRANCH   2  16
TORSDOF 5
ENDMDL
MODEL 9
REMARK VINA RESULT:    -6.747      3.361      4.931
REMARK INTER + INTRA:          -8.904
REMARK INTER:                  -7.797
REMARK INTRA:                  -1.107
REMARK UNBOUND:                -0.186
REMARK  Name = 
REMARK  6 active torsions:
REMARK  status: ('A' for Active; 'I' for Inactive)
REMARK    1  A    between atoms: C_1  and  C_2
REMARK    2  A    between atoms: C_2  and  N_3
REMARK    3  A    between atoms: C_2  and  C_16
REMARK    4  A    between atoms: C_4  and  C_6
REMARK    5  A    between atoms: C_19  and  O_20
REMARK    6  A    between atoms: O_20  and  C_21
REMARK                            x       y       z     vdW  Elec       q    Type
REMARK                         _______ _______ _______ _____ _____    ______ ____
ROOT
ATOM      1  C   UNL     1      49.762   9.941  13.144  0.00  0.00    +0.000 C 
ATOM      2  C   UNL     1      49.349   8.582  13.723  0.00  0.00    +0.000 C 
ENDROOT
BRANCH   2   3
ATOM      3  C   UNL     1      48.044   8.121  13.090  0.00  0.00    +0.000 A 
ATOM      4  C   UNL     1      46.842   8.771  13.403  0.00  0.00    +0.000 A 
ATOM      5  C   UNL     1      45.632   8.337  12.853  0.00  0.00    +0.000 A 
ATOM      6  C   UNL     1      45.614   7.285  11.935  0.00  0.00    +0.000 A 
ATOM      7  C   UNL     1      46.800   6.616  11.634  0.00  0.00    +0.000 A 
ATOM      8  C   UNL     1      48.007   7.031  12.203  0.00  0.00    +0.000 A 
BRANCH   6   9
ATOM      9  O   UNL     1      44.476   6.792  11.338  0.00  0.00    +0.000 OA
BRANCH   9  10
ATOM     10  C   UNL     1      44.149   5.461  11.451  0.00  0.00    +0.000 A 
ATOM     11  C   UNL     1      43.748   4.839  12.631  0.00  0.00    +0.000 A 
ATOM     12  C   UNL     1      43.467   3.485  12.588  0.00  0.00    +0.000 A 
ATOM     13  N   UNL     1      43.505   2.743  11.459  0.00  0.00    +0.000 NA
ATOM     14  C   UNL     1      43.837   3.388  10.321  0.00  0.00    +0.000 A 
ATOM     15  C   UNL     1      44.161   4.731  10.265  0.00  0.00    +0.000 A 
ENDBRANCH   9  10
ENDBRANCH   6   9
ENDBRANCH   2   3
BRANCH   2  16
ATOM     16  N   UNL     1      49.217   8.602  15.171  0.00  0.00    +0.000 N 
ATOM     17  C   UNL     1      49.673   7.575  15.960  0.00  0.00    +0.000 C 
ATOM     18  O   UNL     1      50.273   6.605  15.506  0.00  0.00    +0.000 OA
ATOM     19  H   UNL     1      48.492   9.203  15.548  0.00  0.00    +0.000 HD
BRANCH  17  20
ATOM     20  C   UNL     1      49.464   7.717  17.406  0.00  0.00    +0.000 A 
ATOM     21  C   UNL     1      50.042   8.785  18.078  0.00  0.00    +0.000 A 
ATOM     22  S   UNL     1      49.706   8.805  19.748  0.00  0.00    +0.000 S 
ATOM     23  C   UNL     1      48.815   7.355  19.640  0.00  0.00    +0.000 A 
ATOM     24  N   UNL     1      48.278   6.784  20.747  0.00  0.00    +0.000 NA
ATOM     25  C   UNL     1      47.662   5.669  20.524  0.00  0.00    +0.000 A 
ATOM     26  N   UNL     1      47.523   5.087  19.290  0.00  0.00    +0.000 N 
ATOM     27  C   UNL     1      48.008   5.657  18.135  0.00  0.00    +0.000 A 
ATOM     28  O   UNL     1      47.801   5.156  17.035  0.00  0.00    +0.000 OA
ATOM     29  C   UNL     1      48.745   6.889  18.338  0.00  0.00    +0.000 A 
ATOM     30  H   UNL     1      47.008   4.225  19.182  0.00  0.00    +0.000 HD
ENDBRANCH  17  20
ENDBRANCH   2  16
TORSDOF 5
ENDMDL
