MODEL 1
REMARK VINA RESULT:    -7.752      0.000      0.000
REMARK INTER + INTRA:         -12.697
REMARK INTER:                 -11.378
REMARK INTRA:                  -1.319
REMARK UNBOUND:                -1.319
REMARK  Name = 
REMARK  9 active torsions:
REMARK  status: ('A' for Active; 'I' for Inactive)
REMARK    1  A    between atoms: C_1  and  C_2
REMARK    2  A    between atoms: C_2  and  C_3
REMARK    3  A    between atoms: C_3  and  N_4
REMARK    4  A    between atoms: C_10  and  C_11
REMARK    5  A    between atoms: N_13  and  C_14
REMARK    6  A    between atoms: C_14  and  C_15
REMARK    7  A    between atoms: C_18  and  C_19
REMARK    8  A    between atoms: C_19  and  N_20
REMARK    9  A    between atoms: C_21  and  C_23
REMARK                            x       y       z     vdW  Elec       q    Type
REMARK                         _______ _______ _______ _____ _____    ______ ____
ROOT
ATOM      1  C   UNL     1      46.797   4.377  14.377  0.00  0.00    +0.000 C 
ENDROOT
BRANCH   1   2
ATOM      2  C   UNL     1      46.142   4.416  13.015  0.00  0.00    +0.000 A 
ATOM      3  C   UNL     1      45.550   3.251  12.509  0.00  0.00    +0.000 A 
ATOM      4  C   UNL     1      44.910   3.243  11.257  0.00  0.00    +0.000 A 
ATOM      5  C   UNL     1      44.850   4.405  10.472  0.00  0.00    +0.000 A 
ATOM      6  C   UNL     1      45.465   5.559  10.966  0.00  0.00    +0.000 A 
ATOM      7  C   UNL     1      46.094   5.573  12.220  0.00  0.00    +0.000 A 
BRANCH   5   8
ATOM      8  C   UNL     1      44.155   4.476   9.136  0.00  0.00    +0.000 C 
BRANCH   8   9
ATOM      9  N   UNL     1      44.665   3.512   8.190  0.00  0.00    +0.000 N 
ATOM     10  C   UNL     1      45.838   3.684   7.494  0.00  0.00    +0.000 C 
ATOM     11  O   UNL     1      46.590   4.651   7.629  0.00  0.00    +0.000 OA
ATOM     12  H   UNL     1      44.143   2.658   8.050  0.00  0.00    +0.000 HD
BRANCH  10  13
ATOM     13  C   UNL     1      46.159   2.469   6.614  0.00  0.00    +0.000 C 
ATOM     14  C   UNL     1      47.077   1.510   7.353  0.00  0.00    +0.000 C 
ATOM     15  C   UNL     1      48.446   1.995   6.926  0.00  0.00    +0.000 C 
ATOM     16  N   UNL     1      48.285   2.210   5.483  0.00  0.00    +0.000 NA
ATOM     17  C   UNL     1      46.941   2.805   5.335  0.00  0.00    +0.000 C 
ATOM     18  H   UNL     1      48.289   1.294   5.030  0.00  0.00    +0.000 HD
ENDBRANCH  10  13
ENDBRANCH   8   9
ENDBRANCH   5   8
ENDBRANCH   1   2
BRANCH   1  21
ATOM     19  C   UNL     1      48.415   5.666  15.712  0.00  0.00    +0.000 C 
ATOM     20  O   UNL     1      48.750   4.666  16.369  0.00  0.00    +0.000 OA
ATOM     21  N   UNL     1      47.451   5.608  14.744  0.00  0.00    +0.000 N 
ATOM     22  H   UNL     1      47.369   6.386  14.096  0.00  0.00    +0.000 HD
BRANCH  19  29
ATOM     23  N   UNL     1      50.536   8.726  12.924  0.00  0.00    +0.000 N 
ATOM     24  C   UNL     1      50.869   9.869  13.620  0.00  0.00    +0.000 A 
ATOM     25  N   UNL     1      50.657  10.081  14.878  0.00  0.00    +0.000 NA
ATOM     26  C   UNL     1      50.061   9.059  15.528  0.00  0.00    +0.000 A 
ATOM     27  S   UNL     1      49.787   9.141  17.197  0.00  0.00    +0.000 S 
ATOM     28  C   UNL     1      49.052   7.594  17.203  0.00  0.00    +0.000 A 
ATOM     29  C   UNL     1      49.001   6.994  15.950  0.00  0.00    +0.000 A 
ATOM     30  C   UNL     1      49.609   7.876  14.969  0.00  0.00    +0.000 A 
ATOM     31  C   UNL     1      49.810   7.715  13.538  0.00  0.00    +0.000 A 
ATOM     32  O   UNL     1      49.302   6.786  12.890  0.00  0.00    +0.000 OA
BRANCH  23  33
ATOM     33  C   UNL     1      50.772   8.625  11.488  0.00  0.00    +0.000 C 
BRANCH  33  35
ATOM     34  C   UNL     1      52.131   7.171   9.938  0.00  0.00    +0.000 C 
ATOM     35  C   UNL     1      52.169   8.083  11.155  0.00  0.00    +0.000 C 
ENDBRANCH  33  35
ENDBRANCH  23  33
ENDBRANCH  19  29
ENDBRANCH   1  21
TORSDOF 8
ENDMDL
MODEL 2
REMARK VINA RESULT:    -7.401      3.072      9.113
REMARK INTER + INTRA:         -12.181
REMARK INTER:                 -10.916
REMARK INTRA:                  -1.265
REMARK UNBOUND:                -1.319
REMARK  Name = 
REMARK  9 active torsions:
REMARK  status: ('A' for Active; 'I' for Inactive)
REMARK    1  A    between atoms: C_1  and  C_2
REMARK    2  A    between atoms: C_2  and  C_3
REMARK    3  A    between atoms: C_3  and  N_4
REMARK    4  A    between atoms: C_10  and  C_11
REMARK    5  A    between atoms: N_13  and  C_14
REMARK    6  A    between atoms: C_14  and  C_15
REMARK    7  A    between atoms: C_18  and  C_19
REMARK    8  A    between atoms: C_19  and  N_20
REMARK    9  A    between atoms: C_21  and  C_23
REMARK                            x       y       z     vdW  Elec       q    Type
REMARK                         _______ _______ _______ _____ _____    ______ ____
ROOT
ATOM      1  C   UNL     1      47.419   7.906  12.027  0.00  0.00    +0.000 C 
ENDROOT
BRANCH   1   2
ATOM      2  C   UNL     1      48.188   8.019  13.324  0.00  0.00    +0.000 A 
ATOM      3  C   UNL     1      47.705   8.863  14.333  0.00  0.00    +0.000 A 
ATOM      4  C   UNL     1      48.373   8.984  15.564  0.00  0.00    +0.000 A 
ATOM      5  C   UNL     1      49.551   8.266  15.817  0.00  0.00    +0.000 A 
ATOM      6  C   UNL     1      50.048   7.446  14.799  0.00  0.00    +0.000 A 
ATOM      7  C   UNL     1      49.376   7.314  13.574  0.00  0.00    +0.000 A 
BRANCH   5   8
ATOM      8  C   UNL     1      50.302   8.325  17.123  0.00  0.00    +0.000 C 
BRANCH   8   9
ATOM      9  N   UNL     1      50.460   7.027  17.736  0.00  0.00    +0.000 N 
ATOM     10  C   UNL     1      49.448   6.379  18.404  0.00  0.00    +0.000 C 
ATOM     11  O   UNL     1      48.302   6.815  18.521  0.00  0.00    +0.000 OA
ATOM     12  H   UNL     1      51.353   6.562  17.647  0.00  0.00    +0.000 HD
BRANCH  10  13
ATOM     13  C   UNL     1      49.887   4.991  18.889  0.00  0.00    +0.000 C 
ATOM     14  C   UNL     1      49.754   3.975  17.768  0.00  0.00    +0.000 C 
ATOM     15  C   UNL     1      48.353   3.446  17.988  0.00  0.00    +0.000 C 
ATOM     16  N   UNL     1      48.300   3.246  19.441  0.00  0.00    +0.000 NA
ATOM     17  C   UNL     1      49.013   4.408  20.010  0.00  0.00    +0.000 C 
ATOM     18  H   UNL     1      48.829   2.400  19.659  0.00  0.00    +0.000 HD
ENDBRANCH  10  13
ENDBRANCH   8   9
ENDBRANCH   5   8
ENDBRANCH   1   2
BRANCH   1  21
ATOM     19  C   UNL     1      45.335   6.660  11.623  0.00  0.00    +0.000 C 
ATOM     20  O   UNL     1      44.668   7.704  11.520  0.00  0.00    +0.000 OA
ATOM     21  N   UNL     1      46.675   6.680  11.896  0.00  0.00    +0.000 N 
ATOM     22  H   UNL     1      47.208   5.827  11.756  0.00  0.00    +0.000 HD
BRANCH  19  29
ATOM     23  N   UNL     1      45.343   3.499   8.211  0.00  0.00    +0.000 N 
ATOM     24  C   UNL     1      44.660   2.365   8.597  0.00  0.00    +0.000 A 
ATOM     25  N   UNL     1      44.069   2.184   9.733  0.00  0.00    +0.000 NA
ATOM     26  C   UNL     1      44.146   3.232  10.581  0.00  0.00    +0.000 A 
ATOM     27  S   UNL     1      43.354   3.191  12.077  0.00  0.00    +0.000 S 
ATOM     28  C   UNL     1      43.931   4.752  12.481  0.00  0.00    +0.000 A 
ATOM     29  C   UNL     1      44.729   5.326  11.497  0.00  0.00    +0.000 A 
ATOM     30  C   UNL     1      44.841   4.411  10.375  0.00  0.00    +0.000 A 
ATOM     31  C   UNL     1      45.547   4.538   9.109  0.00  0.00    +0.000 A 
ATOM     32  O   UNL     1      46.340   5.463   8.874  0.00  0.00    +0.000 OA
BRANCH  23  33
ATOM     33  C   UNL     1      46.024   3.565   6.923  0.00  0.00    +0.000 C 
BRANCH  33  35
ATOM     34  C   UNL     1      47.654   2.348   5.431  0.00  0.00    +0.000 C 
ATOM     35  C   UNL     1      47.271   2.672   6.867  0.00  0.00    +0.000 C 
ENDBRANCH  33  35
ENDBRANCH  23  33
ENDBRANCH  19  29
ENDBRANCH   1  21
TORSDOF 8
ENDMDL
MODEL 3
REMARK VINA RESULT:    -7.317      3.497      7.671
REMARK INTER + INTRA:         -12.058
REMARK INTER:                 -10.831
REMARK INTRA:                  -1.228
REMARK UNBOUND:                -1.319
REMARK  Name = 
REMARK  9 active torsions:
REMARK  status: ('A' for Active; 'I' for Inactive)
REMARK    1  A    between atoms: C_1  and  C_2
REMARK    2  A    between atoms: C_2  and  C_3
REMARK    3  A    between atoms: C_3  and  N_4
REMARK    4  A    between atoms: C_10  and  C_11
REMARK    5  A    between atoms: N_13  and  C_14
REMARK    6  A    between atoms: C_14  and  C_15
REMARK    7  A    between atoms: C_18  and  C_19
REMARK    8  A    between atoms: C_19  and  N_20
REMARK    9  A    between atoms: C_21  and  C_23
REMARK                            x       y       z     vdW  Elec       q    Type
REMARK                         _______ _______ _______ _____ _____    ______ ____
ROOT
ATOM      1  C   UNL     1      46.706   8.482  12.770  0.00  0.00    +0.000 C 
ENDROOT
BRANCH   1   2
ATOM      2  C   UNL     1      48.103   8.549  12.197  0.00  0.00    +0.000 A 
ATOM      3  C   UNL     1      48.655   9.799  11.889  0.00  0.00    +0.000 A 
ATOM      4  C   UNL     1      49.958   9.914  11.373  0.00  0.00    +0.000 A 
ATOM      5  C   UNL     1      50.745   8.775  11.146  0.00  0.00    +0.000 A 
ATOM      6  C   UNL     1      50.182   7.526  11.426  0.00  0.00    +0.000 A 
ATOM      7  C   UNL     1      48.887   7.410  11.952  0.00  0.00    +0.000 A 
BRANCH   5   8
ATOM      8  C   UNL     1      52.159   8.826  10.624  0.00  0.00    +0.000 C 
BRANCH   8   9
ATOM      9  N   UNL     1      52.412   7.839   9.601  0.00  0.00    +0.000 N 
ATOM     10  C   UNL     1      53.403   6.890   9.696  0.00  0.00    +0.000 C 
ATOM     11  O   UNL     1      54.149   6.759  10.667  0.00  0.00    +0.000 OA
ATOM     12  H   UNL     1      51.815   7.831   8.786  0.00  0.00    +0.000 HD
BRANCH  10  13
ATOM     13  C   UNL     1      53.392   5.937   8.493  0.00  0.00    +0.000 C 
ATOM     14  C   UNL     1      54.787   5.813   7.906  0.00  0.00    +0.000 C 
ATOM     15  C   UNL     1      54.783   6.903   6.855  0.00  0.00    +0.000 C 
ATOM     16  N   UNL     1      53.478   6.731   6.206  0.00  0.00    +0.000 NA
ATOM     17  C   UNL     1      52.544   6.425   7.309  0.00  0.00    +0.000 C 
ATOM     18  H   UNL     1      53.539   5.915   5.594  0.00  0.00    +0.000 HD
ENDBRANCH  10  13
ENDBRANCH   8   9
ENDBRANCH   5   8
ENDBRANCH   1   2
BRANCH   1  21
ATOM     19  C   UNL     1      45.066   6.939  11.775  0.00  0.00    +0.000 C 
ATOM     20  O   UNL     1      44.575   7.833  11.066  0.00  0.00    +0.000 OA
ATOM     21  N   UNL     1      46.088   7.186  12.649  0.00  0.00    +0.000 N 
ATOM     22  H   UNL     1      46.593   6.395  13.039  0.00  0.00    +0.000 HD
BRANCH  19  29
ATOM     23  N   UNL     1      45.184   3.580   8.561  0.00  0.00    +0.000 N 
ATOM     24  C   UNL     1      44.608   2.423   9.045  0.00  0.00    +0.000 A 
ATOM     25  N   UNL     1      44.080   2.269  10.214  0.00  0.00    +0.000 NA
ATOM     26  C   UNL     1      44.109   3.371  10.994  0.00  0.00    +0.000 A 
ATOM     27  S   UNL     1      43.385   3.365  12.525  0.00  0.00    +0.000 S 
ATOM     28  C   UNL     1      43.853   4.988  12.808  0.00  0.00    +0.000 A 
ATOM     29  C   UNL     1      44.562   5.557  11.757  0.00  0.00    +0.000 A 
ATOM     30  C   UNL     1      44.700   4.585  10.687  0.00  0.00    +0.000 A 
ATOM     31  C   UNL     1      45.341   4.685   9.385  0.00  0.00    +0.000 A 
ATOM     32  O   UNL     1      46.049   5.651   9.060  0.00  0.00    +0.000 OA
BRANCH  23  33
ATOM     33  C   UNL     1      45.804   3.616   7.241  0.00  0.00    +0.000 C 
BRANCH  33  35
ATOM     34  C   UNL     1      47.471   2.506   5.708  0.00  0.00    +0.000 C 
ATOM     35  C   UNL     1      47.060   2.738   7.154  0.00  0.00    +0.000 C 
ENDBRANCH  33  35
ENDBRANCH  23  33
ENDBRANCH  19  29
ENDBRANCH   1  21
TORSDOF 8
ENDMDL
MODEL 4
REMARK VINA RESULT:    -6.774      4.848      9.379
REMARK INTER + INTRA:         -11.261
REMARK INTER:                 -10.643
REMARK INTRA:                  -0.618
REMARK UNBOUND:                -1.319
REMARK  Name = 
REMARK  9 active torsions:
REMARK  status: ('A' for Active; 'I' for Inactive)
REMARK    1  A    between atoms: C_1  and  C_2
REMARK    2  A    between atoms: C_2  and  C_3
REMARK    3  A    between atoms: C_3  and  N_4
REMARK    4  A    between atoms: C_10  and  C_11
REMARK    5  A    between atoms: N_13  and  C_14
REMARK    6  A    between atoms: C_14  and  C_15
REMARK    7  A    between atoms: C_18  and  C_19
REMARK    8  A    between atoms: C_19  and  N_20
REMARK    9  A    between atoms: C_21  and  C_23
REMARK                            x       y       z     vdW  Elec       q    Type
REMARK                         _______ _______ _______ _____ _____    ______ ____
ROOT
ATOM      1  C   UNL     1      47.213   3.799  17.258  0.00  0.00    +0.000 C 
ENDROOT
BRANCH   1   2
ATOM      2  C   UNL     1      48.584   3.919  17.885  0.00  0.00    +0.000 A 
ATOM      3  C   UNL     1      49.652   3.197  17.335  0.00  0.00    +0.000 A 
ATOM      4  C   UNL     1      50.949   3.293  17.869  0.00  0.00    +0.000 A 
ATOM      5  C   UNL     1      51.212   4.113  18.977  0.00  0.00    +0.000 A 
ATOM      6  C   UNL     1      50.140   4.810  19.542  0.00  0.00    +0.000 A 
ATOM      7  C   UNL     1      48.847   4.726  19.003  0.00  0.00    +0.000 A 
BRANCH   5   8
ATOM      8  C   UNL     1      52.582   4.286  19.581  0.00  0.00    +0.000 C 
BRANCH   8   9
ATOM      9  N   UNL     1      53.465   3.182  19.289  0.00  0.00    +0.000 N 
ATOM     10  C   UNL     1      54.380   3.196  18.263  0.00  0.00    +0.000 C 
ATOM     11  O   UNL     1      54.567   4.156  17.513  0.00  0.00    +0.000 OA
ATOM     12  H   UNL     1      53.424   2.366  19.885  0.00  0.00    +0.000 HD
BRANCH  10  13
ATOM     13  C   UNL     1      55.224   1.915  18.237  0.00  0.00    +0.000 C 
ATOM     14  C   UNL     1      54.699   0.961  17.178  0.00  0.00    +0.000 C 
ATOM     15  C   UNL     1      53.717   0.122  17.969  0.00  0.00    +0.000 C 
ATOM     16  N   UNL     1      54.452  -0.167  19.206  0.00  0.00    +0.000 NA
ATOM     17  C   UNL     1      55.158   1.090  19.531  0.00  0.00    +0.000 C 
ATOM     18  H   UNL     1      55.146  -0.886  18.995  0.00  0.00    +0.000 HD
ENDBRANCH  10  13
ENDBRANCH   8   9
ENDBRANCH   5   8
ENDBRANCH   1   2
BRANCH   1  21
ATOM     19  C   UNL     1      47.191   4.243  14.837  0.00  0.00    +0.000 C 
ATOM     20  O   UNL     1      47.586   3.095  14.569  0.00  0.00    +0.000 OA
ATOM     21  N   UNL     1      47.012   4.665  16.125  0.00  0.00    +0.000 N 
ATOM     22  H   UNL     1      46.489   5.521  16.285  0.00  0.00    +0.000 HD
BRANCH  19  29
ATOM     23  N   UNL     1      44.825   4.073  10.836  0.00  0.00    +0.000 N 
ATOM     24  C   UNL     1      44.820   5.308  10.222  0.00  0.00    +0.000 A 
ATOM     25  N   UNL     1      45.402   6.376  10.658  0.00  0.00    +0.000 NA
ATOM     26  C   UNL     1      46.071   6.218  11.821  0.00  0.00    +0.000 A 
ATOM     27  S   UNL     1      46.959   7.496  12.488  0.00  0.00    +0.000 S 
ATOM     28  C   UNL     1      47.427   6.538  13.827  0.00  0.00    +0.000 A 
ATOM     29  C   UNL     1      46.922   5.244  13.794  0.00  0.00    +0.000 A 
ATOM     30  C   UNL     1      46.124   5.070  12.593  0.00  0.00    +0.000 A 
ATOM     31  C   UNL     1      45.395   3.915  12.092  0.00  0.00    +0.000 A 
ATOM     32  O   UNL     1      45.222   2.888  12.767  0.00  0.00    +0.000 OA
BRANCH  23  33
ATOM     33  C   UNL     1      44.079   2.952  10.277  0.00  0.00    +0.000 C 
BRANCH  33  35
ATOM     34  C   UNL     1      45.248   2.915   8.042  0.00  0.00    +0.000 C 
ATOM     35  C   UNL     1      44.913   2.118   9.294  0.00  0.00    +0.000 C 
ENDBRANCH  33  35
ENDBRANCH  23  33
ENDBRANCH  19  29
ENDBRANCH   1  21
TORSDOF 8
ENDMDL
MODEL 5
REMARK VINA RESULT:    -6.695      3.456      8.792
REMARK INTER + INTRA:         -11.146
REMARK INTER:                  -9.946
REMARK INTRA:                  -1.200
REMARK UNBOUND:                -1.319
REMARK  Name = 
REMARK  9 active torsions:
REMARK  status: ('A' for Active; 'I' for Inactive)
REMARK    1  A    between atoms: C_1  and  C_2
REMARK    2  A    between atoms: C_2  and  C_3
REMARK    3  A    between atoms: C_3  and  N_4
REMARK    4  A    between atoms: C_10  and  C_11
REMARK    5  A    between atoms: N_13  and  C_14
REMARK    6  A    between atoms: C_14  and  C_15
REMARK    7  A    between atoms: C_18  and  C_19
REMARK    8  A    between atoms: C_19  and  N_20
REMARK    9  A    between atoms: C_21  and  C_23
REMARK                            x       y       z     vdW  Elec       q    Type
REMARK                         _______ _______ _______ _____ _____    ______ ____
ROOT
ATOM      1  C   UNL     1      46.217   8.276  12.365  0.00  0.00    +0.000 C 
ENDROOT
BRANCH   1   2
ATOM      2  C   UNL     1      47.691   8.498  12.112  0.00  0.00    +0.000 A 
ATOM      3  C   UNL     1      48.503   7.399  11.802  0.00  0.00    +0.000 A 
ATOM      4  C   UNL     1      49.875   7.558  11.539  0.00  0.00    +0.000 A 
ATOM      5  C   UNL     1      50.475   8.825  11.585  0.00  0.00    +0.000 A 
ATOM      6  C   UNL     1      49.669   9.917  11.923  0.00  0.00    +0.000 A 
ATOM      7  C   UNL     1      48.297   9.763  12.175  0.00  0.00    +0.000 A 
BRANCH   5   8
ATOM      8  C   UNL     1      51.931   9.072  11.285  0.00  0.00    +0.000 C 
BRANCH   8   9
ATOM      9  N   UNL     1      52.763   9.009  12.464  0.00  0.00    +0.000 N 
ATOM     10  C   UNL     1      53.810   8.129  12.604  0.00  0.00    +0.000 C 
ATOM     11  O   UNL     1      54.169   7.333  11.735  0.00  0.00    +0.000 OA
ATOM     12  H   UNL     1      52.579   9.662  13.214  0.00  0.00    +0.000 HD
BRANCH  10  13
ATOM     13  C   UNL     1      54.553   8.337  13.931  0.00  0.00    +0.000 C 
ATOM     14  C   UNL     1      54.566   7.048  14.734  0.00  0.00    +0.000 C 
ATOM     15  C   UNL     1      53.318   7.192  15.580  0.00  0.00    +0.000 C 
ATOM     16  N   UNL     1      53.393   8.583  16.043  0.00  0.00    +0.000 NA
ATOM     17  C   UNL     1      53.883   9.346  14.876  0.00  0.00    +0.000 C 
ATOM     18  H   UNL     1      54.096   8.628  16.782  0.00  0.00    +0.000 HD
ENDBRANCH  10  13
ENDBRANCH   8   9
ENDBRANCH   5   8
ENDBRANCH   1   2
BRANCH   1  21
ATOM     19  C   UNL     1      44.562   6.634  11.573  0.00  0.00    +0.000 C 
ATOM     20  O   UNL     1      43.736   7.520  11.298  0.00  0.00    +0.000 OA
ATOM     21  N   UNL     1      45.781   6.925  12.121  0.00  0.00    +0.000 N 
ATOM     22  H   UNL     1      46.493   6.201  12.124  0.00  0.00    +0.000 HD
BRANCH  19  29
ATOM     23  N   UNL     1      45.712   3.645   8.201  0.00  0.00    +0.000 N 
ATOM     24  C   UNL     1      45.242   2.380   8.491  0.00  0.00    +0.000 A 
ATOM     25  N   UNL     1      44.555   2.046   9.533  0.00  0.00    +0.000 NA
ATOM     26  C   UNL     1      44.289   3.062  10.382  0.00  0.00    +0.000 A 
ATOM     27  S   UNL     1      43.329   2.812  11.754  0.00  0.00    +0.000 S 
ATOM     28  C   UNL     1      43.497   4.448  12.231  0.00  0.00    +0.000 A 
ATOM     29  C   UNL     1      44.279   5.206  11.367  0.00  0.00    +0.000 A 
ATOM     30  C   UNL     1      44.736   4.368  10.272  0.00  0.00    +0.000 A 
ATOM     31  C   UNL     1      45.564   4.677   9.117  0.00  0.00    +0.000 A 
ATOM     32  O   UNL     1      46.164   5.756   8.993  0.00  0.00    +0.000 OA
BRANCH  23  33
ATOM     33  C   UNL     1      46.531   3.890   7.019  0.00  0.00    +0.000 C 
BRANCH  33  35
ATOM     34  C   UNL     1      47.924   2.025   6.047  0.00  0.00    +0.000 C 
ATOM     35  C   UNL     1      46.558   2.692   6.059  0.00  0.00    +0.000 C 
ENDBRANCH  33  35
ENDBRANCH  23  33
ENDBRANCH  19  29
ENDBRANCH   1  21
TORSDOF 8
ENDMDL
MODEL 6
REMARK VINA RESULT:    -6.591      2.451      4.087
REMARK INTER + INTRA:         -10.992
REMARK INTER:                  -9.748
REMARK INTRA:                  -1.245
REMARK UNBOUND:                -1.319
REMARK  Name = 
REMARK  9 active torsions:
REMARK  status: ('A' for Active; 'I' for Inactive)
REMARK    1  A    between atoms: C_1  and  C_2
REMARK    2  A    between atoms: C_2  and  C_3
REMARK    3  A    between atoms: C_3  and  N_4
REMARK    4  A    between atoms: C_10  and  C_11
REMARK    5  A    between atoms: N_13  and  C_14
REMARK    6  A    between atoms: C_14  and  C_15
REMARK    7  A    between atoms: C_18  and  C_19
REMARK    8  A    between atoms: C_19  and  N_20
REMARK    9  A    between atoms: C_21  and  C_23
REMARK                            x       y       z     vdW  Elec       q    Type
REMARK                         _______ _______ _______ _____ _____    ______ ____
ROOT
ATOM      1  C   UNL     1      47.125   8.504  13.655  0.00  0.00    +0.000 C 
ENDROOT
BRANCH   1   2
ATOM      2  C   UNL     1      46.376   7.475  12.840  0.00  0.00    +0.000 A 
ATOM      3  C   UNL     1      45.370   7.900  11.962  0.00  0.00    +0.000 A 
ATOM      4  C   UNL     1      44.660   6.983  11.168  0.00  0.00    +0.000 A 
ATOM      5  C   UNL     1      44.934   5.608  11.236  0.00  0.00    +0.000 A 
ATOM      6  C   UNL     1      45.918   5.182  12.134  0.00  0.00    +0.000 A 
ATOM      7  C   UNL     1      46.636   6.097  12.919  0.00  0.00    +0.000 A 
BRANCH   5   8
ATOM      8  C   UNL     1      44.234   4.573  10.393  0.00  0.00    +0.000 C 
BRANCH   8   9
ATOM      9  N   UNL     1      44.869   4.374   9.111  0.00  0.00    +0.000 N 
ATOM     10  C   UNL     1      45.050   3.136   8.541  0.00  0.00    +0.000 C 
ATOM     11  O   UNL     1      44.662   2.079   9.041  0.00  0.00    +0.000 OA
ATOM     12  H   UNL     1      45.175   5.189   8.598  0.00  0.00    +0.000 HD
BRANCH  10  13
ATOM     13  C   UNL     1      45.691   3.239   7.151  0.00  0.00    +0.000 C 
ATOM     14  C   UNL     1      46.158   1.872   6.683  0.00  0.00    +0.000 C 
ATOM     15  C   UNL     1      47.589   1.843   7.178  0.00  0.00    +0.000 C 
ATOM     16  N   UNL     1      48.089   3.176   6.819  0.00  0.00    +0.000 NA
ATOM     17  C   UNL     1      46.968   4.093   7.107  0.00  0.00    +0.000 C 
ATOM     18  H   UNL     1      48.266   3.181   5.812  0.00  0.00    +0.000 HD
ENDBRANCH  10  13
ENDBRANCH   8   9
ENDBRANCH   5   8
ENDBRANCH   1   2
BRANCH   1  21
ATOM     19  C   UNL     1      49.251   8.855  14.845  0.00  0.00    +0.000 C 
ATOM     20  O   UNL     1      48.950  10.020  15.152  0.00  0.00    +0.000 OA
ATOM     21  N   UNL     1      48.425   8.065  14.095  0.00  0.00    +0.000 N 
ATOM     22  H   UNL     1      48.613   7.067  14.058  0.00  0.00    +0.000 HD
BRANCH  19  29
ATOM     23  N   UNL     1      50.333   5.108  17.381  0.00  0.00    +0.000 N 
ATOM     24  C   UNL     1      51.700   4.924  17.418  0.00  0.00    +0.000 A 
ATOM     25  N   UNL     1      52.584   5.682  16.857  0.00  0.00    +0.000 NA
ATOM     26  C   UNL     1      52.076   6.743  16.194  0.00  0.00    +0.000 A 
ATOM     27  S   UNL     1      53.101   7.882  15.474  0.00  0.00    +0.000 S 
ATOM     28  C   UNL     1      51.769   8.789  14.895  0.00  0.00    +0.000 A 
ATOM     29  C   UNL     1      50.534   8.248  15.233  0.00  0.00    +0.000 A 
ATOM     30  C   UNL     1      50.736   7.037  16.009  0.00  0.00    +0.000 A 
ATOM     31  C   UNL     1      49.780   6.115  16.602  0.00  0.00    +0.000 A 
ATOM     32  O   UNL     1      48.563   6.169  16.366  0.00  0.00    +0.000 OA
BRANCH  23  33
ATOM     33  C   UNL     1      49.428   4.149  18.004  0.00  0.00    +0.000 C 
BRANCH  33  35
ATOM     34  C   UNL     1      48.537   2.382  16.439  0.00  0.00    +0.000 C 
ATOM     35  C   UNL     1      49.611   2.725  17.461  0.00  0.00    +0.000 C 
ENDBRANCH  33  35
ENDBRANCH  23  33
ENDBRANCH  19  29
ENDBRANCH   1  21
TORSDOF 8
ENDMDL
MODEL 7
REMARK VINA RESULT:    -6.333      3.162      3.829
REMARK INTER + INTRA:         -10.614
REMARK INTER:                  -9.613
REMARK INTRA:                  -1.001
REMARK UNBOUND:                -1.319
REMARK  Name = 
REMARK  9 active torsions:
REMARK  status: ('A' for Active; 'I' for Inactive)
REMARK    1  A    between atoms: C_1  and  C_2
REMARK    2  A    between atoms: C_2  and  C_3
REMARK    3  A    between atoms: C_3  and  N_4
REMARK    4  A    between atoms: C_10  and  C_11
REMARK    5  A    between atoms: N_13  and  C_14
REMARK    6  A    between atoms: C_14  and  C_15
REMARK    7  A    between atoms: C_18  and  C_19
REMARK    8  A    between atoms: C_19  and  N_20
REMARK    9  A    between atoms: C_21  and  C_23
REMARK                            x       y       z     vdW  Elec       q    Type
REMARK                         _______ _______ _______ _____ _____    ______ ____
ROOT
ATOM      1  C   UNL     1      47.849   7.054  13.732  0.00  0.00    +0.000 C 
ENDROOT
BRANCH   1   2
ATOM      2  C   UNL     1      46.868   6.392  12.791  0.00  0.00    +0.000 A 
ATOM      3  C   UNL     1      46.811   6.814  11.456  0.00  0.00    +0.000 A 
ATOM      4  C   UNL     1      45.930   6.214  10.539  0.00  0.00    +0.000 A 
ATOM      5  C   UNL     1      45.074   5.176  10.936  0.00  0.00    +0.000 A 
ATOM      6  C   UNL     1      45.111   4.776  12.276  0.00  0.00    +0.000 A 
ATOM      7  C   UNL     1      45.999   5.364  13.190  0.00  0.00    +0.000 A 
BRANCH   5   8
ATOM      8  C   UNL     1      44.127   4.469  10.001  0.00  0.00    +0.000 C 
BRANCH   8   9
ATOM      9  N   UNL     1      44.732   4.152   8.728  0.00  0.00    +0.000 N 
ATOM     10  C   UNL     1      45.349   2.952   8.462  0.00  0.00    +0.000 C 
ATOM     11  O   UNL     1      45.420   2.016   9.259  0.00  0.00    +0.000 OA
ATOM     12  H   UNL     1      44.678   4.840   7.989  0.00  0.00    +0.000 HD
BRANCH  10  13
ATOM     13  C   UNL     1      45.838   2.876   7.009  0.00  0.00    +0.000 C 
ATOM     14  C   UNL     1      46.442   1.511   6.728  0.00  0.00    +0.000 C 
ATOM     15  C   UNL     1      47.903   1.741   7.052  0.00  0.00    +0.000 C 
ATOM     16  N   UNL     1      48.182   3.036   6.418  0.00  0.00    +0.000 NA
ATOM     17  C   UNL     1      46.977   3.851   6.675  0.00  0.00    +0.000 C 
ATOM     18  H   UNL     1      48.262   2.878   5.412  0.00  0.00    +0.000 HD
ENDBRANCH  10  13
ENDBRANCH   8   9
ENDBRANCH   5   8
ENDBRANCH   1   2
BRANCH   1  21
ATOM     19  C   UNL     1      48.757   6.580  15.971  0.00  0.00    +0.000 C 
ATOM     20  O   UNL     1      48.665   7.770  16.318  0.00  0.00    +0.000 OA
ATOM     21  N   UNL     1      48.403   6.162  14.718  0.00  0.00    +0.000 N 
ATOM     22  H   UNL     1      48.291   5.165  14.556  0.00  0.00    +0.000 HD
BRANCH  19  29
ATOM     23  N   UNL     1      53.064   5.488  17.345  0.00  0.00    +0.000 N 
ATOM     24  C   UNL     1      53.037   4.443  18.245  0.00  0.00    +0.000 A 
ATOM     25  N   UNL     1      51.981   3.818  18.652  0.00  0.00    +0.000 NA
ATOM     26  C   UNL     1      50.824   4.257  18.111  0.00  0.00    +0.000 A 
ATOM     27  S   UNL     1      49.358   3.492  18.473  0.00  0.00    +0.000 S 
ATOM     28  C   UNL     1      48.486   4.584  17.482  0.00  0.00    +0.000 A 
ATOM     29  C   UNL     1      49.285   5.540  16.866  0.00  0.00    +0.000 A 
ATOM     30  C   UNL     1      50.670   5.328  17.247  0.00  0.00    +0.000 A 
ATOM     31  C   UNL     1      51.881   6.041  16.873  0.00  0.00    +0.000 A 
ATOM     32  O   UNL     1      51.861   7.114  16.249  0.00  0.00    +0.000 OA
BRANCH  23  33
ATOM     33  C   UNL     1      54.315   6.157  17.006  0.00  0.00    +0.000 C 
BRANCH  33  35
ATOM     34  C   UNL     1      55.169   6.073  14.634  0.00  0.00    +0.000 C 
ATOM     35  C   UNL     1      55.148   5.372  15.984  0.00  0.00    +0.000 C 
ENDBRANCH  33  35
ENDBRANCH  23  33
ENDBRANCH  19  29
ENDBRANCH   1  21
TORSDOF 8
ENDMDL
MODEL 8
REMARK VINA RESULT:    -5.934      2.493      3.429
REMARK INTER + INTRA:         -10.028
REMARK INTER:                  -8.759
REMARK INTRA:                  -1.269
REMARK UNBOUND:                -1.319
REMARK  Name = 
REMARK  9 active torsions:
REMARK  status: ('A' for Active; 'I' for Inactive)
REMARK    1  A    between atoms: C_1  and  C_2
REMARK    2  A    between atoms: C_2  and  C_3
REMARK    3  A    between atoms: C_3  and  N_4
REMARK    4  A    between atoms: C_10  and  C_11
REMARK    5  A    between atoms: N_13  and  C_14
REMARK    6  A    between atoms: C_14  and  C_15
REMARK    7  A    between atoms: C_18  and  C_19
REMARK    8  A    between atoms: C_19  and  N_20
REMARK    9  A    between atoms: C_21  and  C_23
REMARK                            x       y       z     vdW  Elec       q    Type
REMARK                         _______ _______ _______ _____ _____    ______ ____
ROOT
ATOM      1  C   UNL     1      47.176   5.716  14.633  0.00  0.00    +0.000 C 
ENDROOT
BRANCH   1   2
ATOM      2  C   UNL     1      46.340   5.162  13.502  0.00  0.00    +0.000 A 
ATOM      3  C   UNL     1      45.655   6.049  12.661  0.00  0.00    +0.000 A 
ATOM      4  C   UNL     1      44.883   5.582  11.583  0.00  0.00    +0.000 A 
ATOM      5  C   UNL     1      44.768   4.209  11.320  0.00  0.00    +0.000 A 
ATOM      6  C   UNL     1      45.429   3.323  12.178  0.00  0.00    +0.000 A 
ATOM      7  C   UNL     1      46.211   3.787  13.247  0.00  0.00    +0.000 A 
BRANCH   5   8
ATOM      8  C   UNL     1      43.983   3.641  10.166  0.00  0.00    +0.000 C 
BRANCH   8   9
ATOM      9  N   UNL     1      44.710   3.685   8.920  0.00  0.00    +0.000 N 
ATOM     10  C   UNL     1      45.321   2.587   8.361  0.00  0.00    +0.000 C 
ATOM     11  O   UNL     1      45.284   1.453   8.841  0.00  0.00    +0.000 OA
ATOM     12  H   UNL     1      44.752   4.564   8.422  0.00  0.00    +0.000 HD
BRANCH  10  13
ATOM     13  C   UNL     1      45.959   2.921   7.006  0.00  0.00    +0.000 C 
ATOM     14  C   UNL     1      46.602   1.683   6.407  0.00  0.00    +0.000 C 
ATOM     15  C   UNL     1      48.020   1.781   6.931  0.00  0.00    +0.000 C 
ATOM     16  N   UNL     1      48.349   3.197   6.728  0.00  0.00    +0.000 NA
ATOM     17  C   UNL     1      47.116   3.928   7.084  0.00  0.00    +0.000 C 
ATOM     18  H   UNL     1      48.534   3.334   5.732  0.00  0.00    +0.000 HD
ENDBRANCH  10  13
ENDBRANCH   8   9
ENDBRANCH   5   8
ENDBRANCH   1   2
BRANCH   1  21
ATOM     19  C   UNL     1      48.559   7.688  14.127  0.00  0.00    +0.000 C 
ATOM     20  O   UNL     1      47.630   8.472  14.382  0.00  0.00    +0.000 OA
ATOM     21  N   UNL     1      48.405   6.332  14.202  0.00  0.00    +0.000 N 
ATOM     22  H   UNL     1      49.237   5.750  14.198  0.00  0.00    +0.000 HD
BRANCH  19  29
ATOM     23  N   UNL     1      52.787   7.439  16.051  0.00  0.00    +0.000 N 
ATOM     24  C   UNL     1      53.735   7.992  15.216  0.00  0.00    +0.000 A 
ATOM     25  N   UNL     1      53.509   8.534  14.064  0.00  0.00    +0.000 NA
ATOM     26  C   UNL     1      52.211   8.543  13.691  0.00  0.00    +0.000 A 
ATOM     27  S   UNL     1      51.733   9.289  12.249  0.00  0.00    +0.000 S 
ATOM     28  C   UNL     1      50.095   8.866  12.514  0.00  0.00    +0.000 A 
ATOM     29  C   UNL     1      49.884   8.157  13.691  0.00  0.00    +0.000 A 
ATOM     30  C   UNL     1      51.150   7.979  14.379  0.00  0.00    +0.000 A 
ATOM     31  C   UNL     1      51.467   7.322  15.637  0.00  0.00    +0.000 A 
ATOM     32  O   UNL     1      50.643   6.634  16.260  0.00  0.00    +0.000 OA
BRANCH  23  33
ATOM     33  C   UNL     1      53.170   6.801  17.306  0.00  0.00    +0.000 C 
BRANCH  33  35
ATOM     34  C   UNL     1      53.190   4.344  17.874  0.00  0.00    +0.000 C 
ATOM     35  C   UNL     1      53.875   5.455  17.092  0.00  0.00    +0.000 C 
ENDBRANCH  33  35
ENDBRANCH  23  33
ENDBRANCH  19  29
ENDBRANCH   1  21
TORSDOF 8
ENDMDL
MODEL 9
REMARK VINA RESULT:    -5.700      3.700      9.752
REMARK INTER + INTRA:          -9.685
REMARK INTER:                  -8.462
REMARK INTRA:                  -1.223
REMARK UNBOUND:                -1.319
REMARK  Name = 
REMARK  9 active torsions:
REMARK  status: ('A' for Active; 'I' for Inactive)
REMARK    1  A    between atoms: C_1  and  C_2
REMARK    2  A    between atoms: C_2  and  C_3
REMARK    3  A    between atoms: C_3  and  N_4
REMARK    4  A    between atoms: C_10  and  C_11
REMARK    5  A    between atoms: N_13  and  C_14
REMARK    6  A    between atoms: C_14  and  C_15
REMARK    7  A    between atoms: C_18  and  C_19
REMARK    8  A    between atoms: C_19  and  N_20
REMARK    9  A    between atoms: C_21  and  C_23
REMARK                            x       y       z     vdW  Elec       q    Type
REMARK                         _______ _______ _______ _____ _____    ______ ____
ROOT
ATOM      1  C   UNL     1      47.725   3.424  15.585  0.00  0.00    +0.000 C 
ENDROOT
BRANCH   1   2
ATOM      2  C   UNL     1      48.002   4.022  16.946  0.00  0.00    +0.000 A 
ATOM      3  C   UNL     1      49.176   3.665  17.622  0.00  0.00    +0.000 A 
ATOM      4  C   UNL     1      49.487   4.211  18.880  0.00  0.00    +0.000 A 
ATOM      5  C   UNL     1      48.626   5.129  19.500  0.00  0.00    +0.000 A 
ATOM      6  C   UNL     1      47.441   5.462  18.836  0.00  0.00    +0.000 A 
ATOM      7  C   UNL     1      47.134   4.928  17.576  0.00  0.00    +0.000 A 
BRANCH   5   8
ATOM      8  C   UNL     1      48.911   5.776  20.831  0.00  0.00    +0.000 C 
BRANCH   8   9
ATOM      9  N   UNL     1      49.279   7.167  20.708  0.00  0.00    +0.000 N 
ATOM     10  C   UNL     1      48.385   8.201  20.855  0.00  0.00    +0.000 C 
ATOM     11  O   UNL     1      47.195   8.055  21.139  0.00  0.00    +0.000 OA
ATOM     12  H   UNL     1      50.248   7.391  20.528  0.00  0.00    +0.000 HD
BRANCH  10  13
ATOM     13  C   UNL     1      49.074   9.568  20.738  0.00  0.00    +0.000 C 
ATOM     14  C   UNL     1      48.202  10.530  19.950  0.00  0.00    +0.000 C 
ATOM     15  C   UNL     1      48.702  10.322  18.536  0.00  0.00    +0.000 C 
ATOM     16  N   UNL     1      50.161  10.302  18.702  0.00  0.00    +0.000 NA
ATOM     17  C   UNL     1      50.391   9.544  19.948  0.00  0.00    +0.000 C 
ATOM     18  H   UNL     1      50.471  11.266  18.843  0.00  0.00    +0.000 HD
ENDBRANCH  10  13
ENDBRANCH   8   9
ENDBRANCH   5   8
ENDBRANCH   1   2
BRANCH   1  21
ATOM     19  C   UNL     1      47.342   5.302  14.042  0.00  0.00    +0.000 C 
ATOM     20  O   UNL     1      48.528   5.666  14.106  0.00  0.00    +0.000 OA
ATOM     21  N   UNL     1      46.872   4.235  14.755  0.00  0.00    +0.000 N 
ATOM     22  H   UNL     1      45.966   3.849  14.506  0.00  0.00    +0.000 HD
BRANCH  19  29
ATOM     23  N   UNL     1      44.380   3.891  10.744  0.00  0.00    +0.000 N 
ATOM     24  C   UNL     1      43.605   4.944  10.304  0.00  0.00    +0.000 A 
ATOM     25  N   UNL     1      43.683   6.168  10.713  0.00  0.00    +0.000 NA
ATOM     26  C   UNL     1      44.630   6.389  11.650  0.00  0.00    +0.000 A 
ATOM     27  S   UNL     1      44.920   7.952  12.232  0.00  0.00    +0.000 S 
ATOM     28  C   UNL     1      46.140   7.385  13.291  0.00  0.00    +0.000 A 
ATOM     29  C   UNL     1      46.346   6.012  13.224  0.00  0.00    +0.000 A 
ATOM     30  C   UNL     1      45.445   5.438  12.241  0.00  0.00    +0.000 A 
ATOM     31  C   UNL     1      45.270   4.065  11.795  0.00  0.00    +0.000 A 
ATOM     32  O   UNL     1      45.812   3.103  12.363  0.00  0.00    +0.000 OA
BRANCH  23  33
ATOM     33  C   UNL     1      44.159   2.537  10.251  0.00  0.00    +0.000 C 
BRANCH  33  35
ATOM     34  C   UNL     1      45.666   1.406   8.574  0.00  0.00    +0.000 C 
ATOM     35  C   UNL     1      44.516   2.383   8.766  0.00  0.00    +0.000 C 
ENDBRANCH  33  35
ENDBRANCH  23  33
ENDBRANCH  19  29
ENDBRANCH   1  21
TORSDOF 8
ENDMDL
