MODEL 1
REMARK VINA RESULT:    -8.492      0.000      0.000
REMARK INTER + INTRA:         -12.942
REMARK INTER:                 -11.967
REMARK INTRA:                  -0.975
REMARK UNBOUND:                -0.975
REMARK  Name = 
REMARK  7 active torsions:
REMARK  status: ('A' for Active; 'I' for Inactive)
REMARK    1  A    between atoms: C_2  and  C_4
REMARK    2  A    between atoms: C_7  and  N_8
REMARK    3  A    between atoms: N_8  and  C_9
REMARK    4  A    between atoms: C_9  and  C_10
REMARK    5  A    between atoms: C_10  and  C_13
REMARK    6  A    between atoms: C_17  and  C_18
REMARK    7  A    between atoms: C_18  and  C_19
REMARK                            x       y       z     vdW  Elec       q    Type
REMARK                         _______ _______ _______ _____ _____    ______ ____
ROOT
ATOM      1  C   UNL     1      43.729   4.685  12.564  0.00  0.00    +0.000 C 
ATOM      2  F   UNL     1      42.828   5.502  13.180  0.00  0.00    +0.000 F 
ATOM      3  F   UNL     1      43.528   3.446  13.105  0.00  0.00    +0.000 F 
ENDROOT
BRANCH   1   4
ATOM      4  C   UNL     1      45.144   5.174  12.737  0.00  0.00    +0.000 A 
ATOM      5  C   UNL     1      45.720   6.032  11.813  0.00  0.00    +0.000 A 
ATOM      6  N   UNL     1      46.943   6.587  11.965  0.00  0.00    +0.000 NA
ATOM      7  C   UNL     1      47.630   6.265  13.085  0.00  0.00    +0.000 A 
ATOM      8  C   UNL     1      47.154   5.412  14.075  0.00  0.00    +0.000 A 
ATOM      9  C   UNL     1      45.888   4.855  13.882  0.00  0.00    +0.000 A 
BRANCH   8  10
ATOM     10  C   UNL     1      47.960   5.118  15.311  0.00  0.00    +0.000 C 
BRANCH  10  11
ATOM     11  C   UNL     1      47.213   4.157  16.230  0.00  0.00    +0.000 C 
ATOM     12  C   UNL     1      47.168   4.608  17.703  0.00  0.00    +0.000 C 
ATOM     13  N   UNL     1      47.603   3.273  18.130  0.00  0.00    +0.000 NA
ATOM     14  C   UNL     1      47.952   2.907  16.751  0.00  0.00    +0.000 C 
ATOM     15  H   UNL     1      46.860   2.707  18.537  0.00  0.00    +0.000 HD
ENDBRANCH  10  11
ENDBRANCH   8  10
ENDBRANCH   1   4
BRANCH   1  16
ATOM     16  C   UNL     1      43.409   4.614  11.051  0.00  0.00    +0.000 C 
BRANCH  16  17
ATOM     17  N   UNL     1      43.622   3.291  10.445  0.00  0.00    +0.000 N 
ATOM     18  H   UNL     1      43.504   2.501  11.080  0.00  0.00    +0.000 HD
BRANCH  17  22
ATOM     19  C   UNL     1      46.521   2.615   7.453  0.00  0.00    +0.000 A 
ATOM     20  C   UNL     1      46.063   3.912   7.686  0.00  0.00    +0.000 A 
ATOM     21  C   UNL     1      45.119   4.150   8.689  0.00  0.00    +0.000 A 
ATOM     22  C   UNL     1      44.632   3.114   9.499  0.00  0.00    +0.000 A 
ATOM     23  C   UNL     1      45.087   1.815   9.235  0.00  0.00    +0.000 A 
ATOM     24  C   UNL     1      46.017   1.562   8.220  0.00  0.00    +0.000 A 
BRANCH  19  26
ATOM     25  N   UNL     1      47.498   3.153   5.290  0.00  0.00    +0.000 N 
ATOM     26  C   UNL     1      47.502   2.322   6.377  0.00  0.00    +0.000 C 
ATOM     27  O   UNL     1      48.299   1.399   6.463  0.00  0.00    +0.000 OA
ATOM     28  H   UNL     1      48.232   3.002   4.608  0.00  0.00    +0.000 HD
ATOM     29  H   UNL     1      47.039   4.051   5.294  0.00  0.00    +0.000 HD
ENDBRANCH  19  26
ENDBRANCH  17  22
ENDBRANCH  16  17
ENDBRANCH   1  16
TORSDOF 7
ENDMDL
MODEL 2
REMARK VINA RESULT:    -8.231      1.982      3.525
REMARK INTER + INTRA:         -12.574
REMARK INTER:                 -11.619
REMARK INTRA:                  -0.956
REMARK UNBOUND:                -0.975
REMARK  Name = 
REMARK  7 active torsions:
REMARK  status: ('A' for Active; 'I' for Inactive)
REMARK    1  A    between atoms: C_2  and  C_4
REMARK    2  A    between atoms: C_7  and  N_8
REMARK    3  A    between atoms: N_8  and  C_9
REMARK    4  A    between atoms: C_9  and  C_10
REMARK    5  A    between atoms: C_10  and  C_13
REMARK    6  A    between atoms: C_17  and  C_18
REMARK    7  A    between atoms: C_18  and  C_19
REMARK                            x       y       z     vdW  Elec       q    Type
REMARK                         _______ _______ _______ _____ _____    ______ ____
ROOT
ATOM      1  C   UNL     1      43.478   5.517  12.266  0.00  0.00    +0.000 C 
ATOM      2  F   UNL     1      43.020   6.653  11.667  0.00  0.00    +0.000 F 
ATOM      3  F   UNL     1      42.640   5.297  13.323  0.00  0.00    +0.000 F 
ENDROOT
BRANCH   1   4
ATOM      4  C   UNL     1      44.921   5.643  12.683  0.00  0.00    +0.000 A 
ATOM      5  C   UNL     1      45.467   4.791  13.631  0.00  0.00    +0.000 A 
ATOM      6  N   UNL     1      46.775   4.786  13.971  0.00  0.00    +0.000 NA
ATOM      7  C   UNL     1      47.577   5.677  13.344  0.00  0.00    +0.000 A 
ATOM      8  C   UNL     1      47.139   6.581  12.382  0.00  0.00    +0.000 A 
ATOM      9  C   UNL     1      45.780   6.559  12.060  0.00  0.00    +0.000 A 
BRANCH   8  10
ATOM     10  C   UNL     1      48.091   7.527  11.703  0.00  0.00    +0.000 C 
BRANCH  10  11
ATOM     11  C   UNL     1      48.187   8.843  12.468  0.00  0.00    +0.000 C 
ATOM     12  C   UNL     1      48.441  10.070  11.571  0.00  0.00    +0.000 C 
ATOM     13  N   UNL     1      49.526  10.501  12.460  0.00  0.00    +0.000 NA
ATOM     14  C   UNL     1      49.521   9.206  13.152  0.00  0.00    +0.000 C 
ATOM     15  H   UNL     1      49.284  11.293  13.054  0.00  0.00    +0.000 HD
ENDBRANCH  10  11
ENDBRANCH   8  10
ENDBRANCH   1   4
BRANCH   1  16
ATOM     16  C   UNL     1      43.347   4.328  11.283  0.00  0.00    +0.000 C 
BRANCH  16  17
ATOM     17  N   UNL     1      43.643   4.662   9.882  0.00  0.00    +0.000 N 
ATOM     18  H   UNL     1      42.828   4.869   9.305  0.00  0.00    +0.000 HD
BRANCH  17  22
ATOM     19  C   UNL     1      46.545   2.503   7.707  0.00  0.00    +0.000 A 
ATOM     20  C   UNL     1      46.517   3.895   7.622  0.00  0.00    +0.000 A 
ATOM     21  C   UNL     1      45.575   4.621   8.355  0.00  0.00    +0.000 A 
ATOM     22  C   UNL     1      44.660   3.986   9.207  0.00  0.00    +0.000 A 
ATOM     23  C   UNL     1      44.689   2.586   9.262  0.00  0.00    +0.000 A 
ATOM     24  C   UNL     1      45.616   1.847   8.517  0.00  0.00    +0.000 A 
BRANCH  19  26
ATOM     25  N   UNL     1      48.563   2.369   6.353  0.00  0.00    +0.000 N 
ATOM     26  C   UNL     1      47.514   1.698   6.920  0.00  0.00    +0.000 C 
ATOM     27  O   UNL     1      47.403   0.486   6.803  0.00  0.00    +0.000 OA
ATOM     28  H   UNL     1      49.268   1.799   5.900  0.00  0.00    +0.000 HD
ATOM     29  H   UNL     1      48.822   3.304   6.627  0.00  0.00    +0.000 HD
ENDBRANCH  19  26
ENDBRANCH  17  22
ENDBRANCH  16  17
ENDBRANCH   1  16
TORSDOF 7
ENDMDL
MODEL 3
REMARK VINA RESULT:    -8.142      1.846      3.410
REMARK INTER + INTRA:         -12.448
REMARK INTER:                 -11.397
REMARK INTRA:                  -1.051
REMARK UNBOUND:                -0.975
REMARK  Name = 
REMARK  7 active torsions:
REMARK  status: ('A' for Active; 'I' for Inactive)
REMARK    1  A    between atoms: C_2  and  C_4
REMARK    2  A    between atoms: C_7  and  N_8
REMARK    3  A    between atoms: N_8  and  C_9
REMARK    4  A    between atoms: C_9  and  C_10
REMARK    5  A    between atoms: C_10  and  C_13
REMARK    6  A    between atoms: C_17  and  C_18
REMARK    7  A    between atoms: C_18  and  C_19
REMARK                            x       y       z     vdW  Elec       q    Type
REMARK                         _______ _______ _______ _____ _____    ______ ____
ROOT
ATOM      1  C   UNL     1      43.952   5.277  12.297  0.00  0.00    +0.000 C 
ATOM      2  F   UNL     1      43.516   6.139  11.334  0.00  0.00    +0.000 F 
ATOM      3  F   UNL     1      43.066   5.407  13.330  0.00  0.00    +0.000 F 
ENDROOT
BRANCH   1   4
ATOM      4  C   UNL     1      45.373   5.562  12.708  0.00  0.00    +0.000 A 
ATOM      5  C   UNL     1      45.977   4.849  13.733  0.00  0.00    +0.000 A 
ATOM      6  N   UNL     1      47.276   4.986  14.077  0.00  0.00    +0.000 NA
ATOM      7  C   UNL     1      48.008   5.882  13.376  0.00  0.00    +0.000 A 
ATOM      8  C   UNL     1      47.507   6.655  12.335  0.00  0.00    +0.000 A 
ATOM      9  C   UNL     1      46.159   6.489  12.009  0.00  0.00    +0.000 A 
BRANCH   8  10
ATOM     10  C   UNL     1      48.385   7.614  11.577  0.00  0.00    +0.000 C 
BRANCH  10  11
ATOM     11  C   UNL     1      49.820   7.557  12.088  0.00  0.00    +0.000 C 
ATOM     12  C   UNL     1      50.261   8.817  12.857  0.00  0.00    +0.000 C 
ATOM     13  N   UNL     1      51.489   8.882  12.057  0.00  0.00    +0.000 NA
ATOM     14  C   UNL     1      50.967   7.887  11.111  0.00  0.00    +0.000 C 
ATOM     15  H   UNL     1      52.325   8.584  12.558  0.00  0.00    +0.000 HD
ENDBRANCH  10  11
ENDBRANCH   8  10
ENDBRANCH   1   4
BRANCH   1  16
ATOM     16  C   UNL     1      43.870   3.826  11.764  0.00  0.00    +0.000 C 
BRANCH  16  17
ATOM     17  N   UNL     1      43.617   3.722  10.319  0.00  0.00    +0.000 N 
ATOM     18  H   UNL     1      42.732   3.284  10.065  0.00  0.00    +0.000 HD
BRANCH  17  22
ATOM     19  C   UNL     1      46.635   2.702   7.550  0.00  0.00    +0.000 A 
ATOM     20  C   UNL     1      46.299   4.042   7.738  0.00  0.00    +0.000 A 
ATOM     21  C   UNL     1      45.316   4.394   8.668  0.00  0.00    +0.000 A 
ATOM     22  C   UNL     1      44.668   3.427   9.450  0.00  0.00    +0.000 A 
ATOM     23  C   UNL     1      45.002   2.084   9.231  0.00  0.00    +0.000 A 
ATOM     24  C   UNL     1      45.971   1.719   8.288  0.00  0.00    +0.000 A 
BRANCH  19  26
ATOM     25  N   UNL     1      47.761   3.058   5.422  0.00  0.00    +0.000 N 
ATOM     26  C   UNL     1      47.653   2.291   6.550  0.00  0.00    +0.000 C 
ATOM     27  O   UNL     1      48.385   1.329   6.731  0.00  0.00    +0.000 OA
ATOM     28  H   UNL     1      48.521   2.826   4.793  0.00  0.00    +0.000 HD
ATOM     29  H   UNL     1      47.359   3.980   5.351  0.00  0.00    +0.000 HD
ENDBRANCH  19  26
ENDBRANCH  17  22
ENDBRANCH  16  17
ENDBRANCH   1  16
TORSDOF 7
ENDMDL
MODEL 4
REMARK VINA RESULT:    -7.982      1.782      2.052
REMARK INTER + INTRA:         -12.224
REMARK INTER:                 -11.515
REMARK INTRA:                  -0.709
REMARK UNBOUND:                -0.975
REMARK  Name = 
REMARK  7 active torsions:
REMARK  status: ('A' for Active; 'I' for Inactive)
REMARK    1  A    between atoms: C_2  and  C_4
REMARK    2  A    between atoms: C_7  and  N_8
REMARK    3  A    between atoms: N_8  and  C_9
REMARK    4  A    between atoms: C_9  and  C_10
REMARK    5  A    between atoms: C_10  and  C_13
REMARK    6  A    between atoms: C_17  and  C_18
REMARK    7  A    between atoms: C_18  and  C_19
REMARK                            x       y       z     vdW  Elec       q    Type
REMARK                         _______ _______ _______ _____ _____    ______ ____
ROOT
ATOM      1  C   UNL     1      44.966   5.949  11.765  0.00  0.00    +0.000 C 
ATOM      2  F   UNL     1      45.806   6.374  10.779  0.00  0.00    +0.000 F 
ATOM      3  F   UNL     1      44.487   7.087  12.352  0.00  0.00    +0.000 F 
ENDROOT
BRANCH   1   4
ATOM      4  C   UNL     1      45.660   5.036  12.743  0.00  0.00    +0.000 A 
ATOM      5  C   UNL     1      45.710   3.667  12.529  0.00  0.00    +0.000 A 
ATOM      6  N   UNL     1      46.404   2.811  13.311  0.00  0.00    +0.000 NA
ATOM      7  C   UNL     1      47.073   3.340  14.361  0.00  0.00    +0.000 A 
ATOM      8  C   UNL     1      47.089   4.695  14.674  0.00  0.00    +0.000 A 
ATOM      9  C   UNL     1      46.357   5.549  13.846  0.00  0.00    +0.000 A 
BRANCH   8  10
ATOM     10  C   UNL     1      47.877   5.221  15.843  0.00  0.00    +0.000 C 
BRANCH  10  11
ATOM     11  C   UNL     1      47.591   4.408  17.101  0.00  0.00    +0.000 C 
ATOM     12  C   UNL     1      47.919   5.149  18.412  0.00  0.00    +0.000 C 
ATOM     13  N   UNL     1      48.656   3.976  18.896  0.00  0.00    +0.000 NA
ATOM     14  C   UNL     1      48.629   3.365  17.561  0.00  0.00    +0.000 C 
ATOM     15  H   UNL     1      48.161   3.443  19.610  0.00  0.00    +0.000 HD
ENDBRANCH  10  11
ENDBRANCH   8  10
ENDBRANCH   1   4
BRANCH   1  16
ATOM     16  C   UNL     1      43.775   5.187  11.134  0.00  0.00    +0.000 C 
BRANCH  16  17
ATOM     17  N   UNL     1      43.864   5.021   9.675  0.00  0.00    +0.000 N 
ATOM     18  H   UNL     1      42.980   5.108   9.175  0.00  0.00    +0.000 HD
BRANCH  17  22
ATOM     19  C   UNL     1      46.290   2.039   7.932  0.00  0.00    +0.000 A 
ATOM     20  C   UNL     1      46.507   3.378   7.608  0.00  0.00    +0.000 A 
ATOM     21  C   UNL     1      45.724   4.375   8.196  0.00  0.00    +0.000 A 
ATOM     22  C   UNL     1      44.730   4.069   9.137  0.00  0.00    +0.000 A 
ATOM     23  C   UNL     1      44.512   2.717   9.433  0.00  0.00    +0.000 A 
ATOM     24  C   UNL     1      45.276   1.708   8.835  0.00  0.00    +0.000 A 
BRANCH  19  26
ATOM     25  N   UNL     1      46.758  -0.332   7.648  0.00  0.00    +0.000 N 
ATOM     26  C   UNL     1      47.083   0.951   7.305  0.00  0.00    +0.000 C 
ATOM     27  O   UNL     1      47.969   1.183   6.495  0.00  0.00    +0.000 OA
ATOM     28  H   UNL     1      47.240  -1.067   7.144  0.00  0.00    +0.000 HD
ATOM     29  H   UNL     1      45.893  -0.570   8.108  0.00  0.00    +0.000 HD
ENDBRANCH  19  26
ENDBRANCH  17  22
ENDBRANCH  16  17
ENDBRANCH   1  16
TORSDOF 7
ENDMDL
MODEL 5
REMARK VINA RESULT:    -7.852      2.302      2.859
REMARK INTER + INTRA:         -12.040
REMARK INTER:                 -11.217
REMARK INTRA:                  -0.824
REMARK UNBOUND:                -0.975
REMARK  Name = 
REMARK  7 active torsions:
REMARK  status: ('A' for Active; 'I' for Inactive)
REMARK    1  A    between atoms: C_2  and  C_4
REMARK    2  A    between atoms: C_7  and  N_8
REMARK    3  A    between atoms: N_8  and  C_9
REMARK    4  A    between atoms: C_9  and  C_10
REMARK    5  A    between atoms: C_10  and  C_13
REMARK    6  A    between atoms: C_17  and  C_18
REMARK    7  A    between atoms: C_18  and  C_19
REMARK                            x       y       z     vdW  Elec       q    Type
REMARK                         _______ _______ _______ _____ _____    ______ ____
ROOT
ATOM      1  C   UNL     1      44.945   6.363  11.501  0.00  0.00    +0.000 C 
ATOM      2  F   UNL     1      45.717   6.630  10.408  0.00  0.00    +0.000 F 
ATOM      3  F   UNL     1      44.251   7.514  11.747  0.00  0.00    +0.000 F 
ENDROOT
BRANCH   1   4
ATOM      4  C   UNL     1      45.772   5.916  12.678  0.00  0.00    +0.000 A 
ATOM      5  C   UNL     1      45.498   4.724  13.332  0.00  0.00    +0.000 A 
ATOM      6  N   UNL     1      46.263   4.219  14.324  0.00  0.00    +0.000 NA
ATOM      7  C   UNL     1      47.348   4.939  14.692  0.00  0.00    +0.000 A 
ATOM      8  C   UNL     1      47.716   6.148  14.112  0.00  0.00    +0.000 A 
ATOM      9  C   UNL     1      46.899   6.640  13.092  0.00  0.00    +0.000 A 
BRANCH   8  10
ATOM     10  C   UNL     1      48.952   6.885  14.550  0.00  0.00    +0.000 C 
BRANCH  10  11
ATOM     11  C   UNL     1      49.038   6.946  16.072  0.00  0.00    +0.000 C 
ATOM     12  C   UNL     1      48.795   8.351  16.656  0.00  0.00    +0.000 C 
ATOM     13  N   UNL     1      50.001   8.222  17.481  0.00  0.00    +0.000 NA
ATOM     14  C   UNL     1      50.429   7.033  16.732  0.00  0.00    +0.000 C 
ATOM     15  H   UNL     1      49.811   8.048  18.467  0.00  0.00    +0.000 HD
ENDBRANCH  10  11
ENDBRANCH   8  10
ENDBRANCH   1   4
BRANCH   1  16
ATOM     16  C   UNL     1      43.930   5.246  11.153  0.00  0.00    +0.000 C 
BRANCH  16  17
ATOM     17  N   UNL     1      43.778   4.989   9.713  0.00  0.00    +0.000 N 
ATOM     18  H   UNL     1      42.826   5.078   9.356  0.00  0.00    +0.000 HD
BRANCH  17  22
ATOM     19  C   UNL     1      46.227   2.022   7.979  0.00  0.00    +0.000 A 
ATOM     20  C   UNL     1      45.246   1.652   8.899  0.00  0.00    +0.000 A 
ATOM     21  C   UNL     1      44.415   2.624   9.463  0.00  0.00    +0.000 A 
ATOM     22  C   UNL     1      44.520   3.976   9.106  0.00  0.00    +0.000 A 
ATOM     23  C   UNL     1      45.526   4.331   8.199  0.00  0.00    +0.000 A 
ATOM     24  C   UNL     1      46.378   3.369   7.642  0.00  0.00    +0.000 A 
BRANCH  19  26
ATOM     25  N   UNL     1      46.886  -0.298   7.646  0.00  0.00    +0.000 N 
ATOM     26  C   UNL     1      47.147   1.019   7.383  0.00  0.00    +0.000 C 
ATOM     27  O   UNL     1      48.080   1.346   6.663  0.00  0.00    +0.000 OA
ATOM     28  H   UNL     1      47.460  -0.975   7.158  0.00  0.00    +0.000 HD
ATOM     29  H   UNL     1      46.003  -0.613   8.018  0.00  0.00    +0.000 HD
ENDBRANCH  19  26
ENDBRANCH  17  22
ENDBRANCH  16  17
ENDBRANCH   1  16
TORSDOF 7
ENDMDL
MODEL 6
REMARK VINA RESULT:    -7.808      2.084      2.536
REMARK INTER + INTRA:         -11.979
REMARK INTER:                 -11.076
REMARK INTRA:                  -0.902
REMARK UNBOUND:                -0.975
REMARK  Name = 
REMARK  7 active torsions:
REMARK  status: ('A' for Active; 'I' for Inactive)
REMARK    1  A    between atoms: C_2  and  C_4
REMARK    2  A    between atoms: C_7  and  N_8
REMARK    3  A    between atoms: N_8  and  C_9
REMARK    4  A    between atoms: C_9  and  C_10
REMARK    5  A    between atoms: C_10  and  C_13
REMARK    6  A    between atoms: C_17  and  C_18
REMARK    7  A    between atoms: C_18  and  C_19
REMARK                            x       y       z     vdW  Elec       q    Type
REMARK                         _______ _______ _______ _____ _____    ______ ____
ROOT
ATOM      1  C   UNL     1      44.014   5.353  12.341  0.00  0.00    +0.000 C 
ATOM      2  F   UNL     1      43.024   5.405  13.278  0.00  0.00    +0.000 F 
ATOM      3  F   UNL     1      44.815   4.309  12.712  0.00  0.00    +0.000 F 
ENDROOT
BRANCH   1   4
ATOM      4  C   UNL     1      44.764   6.657  12.241  0.00  0.00    +0.000 A 
ATOM      5  C   UNL     1      44.328   7.668  11.398  0.00  0.00    +0.000 A 
ATOM      6  N   UNL     1      44.895   8.893  11.342  0.00  0.00    +0.000 NA
ATOM      7  C   UNL     1      45.952   9.121  12.155  0.00  0.00    +0.000 A 
ATOM      8  C   UNL     1      46.476   8.181  13.036  0.00  0.00    +0.000 A 
ATOM      9  C   UNL     1      45.867   6.925  13.064  0.00  0.00    +0.000 A 
BRANCH   8  10
ATOM     10  C   UNL     1      47.637   8.510  13.934  0.00  0.00    +0.000 C 
BRANCH  10  11
ATOM     11  C   UNL     1      48.671   7.389  13.918  0.00  0.00    +0.000 C 
ATOM     12  C   UNL     1      49.005   6.826  15.313  0.00  0.00    +0.000 C 
ATOM     13  N   UNL     1      50.438   6.947  15.024  0.00  0.00    +0.000 NA
ATOM     14  C   UNL     1      50.165   7.761  13.832  0.00  0.00    +0.000 C 
ATOM     15  H   UNL     1      50.896   6.058  14.827  0.00  0.00    +0.000 HD
ENDBRANCH  10  11
ENDBRANCH   8  10
ENDBRANCH   1   4
BRANCH   1  16
ATOM     16  C   UNL     1      43.397   5.027  10.959  0.00  0.00    +0.000 C 
BRANCH  16  17
ATOM     17  N   UNL     1      43.628   3.649  10.499  0.00  0.00    +0.000 N 
ATOM     18  H   UNL     1      43.531   2.932  11.218  0.00  0.00    +0.000 HD
BRANCH  17  22
ATOM     19  C   UNL     1      46.498   2.722   7.547  0.00  0.00    +0.000 A 
ATOM     20  C   UNL     1      46.122   4.050   7.747  0.00  0.00    +0.000 A 
ATOM     21  C   UNL     1      45.188   4.371   8.737  0.00  0.00    +0.000 A 
ATOM     22  C   UNL     1      44.631   3.387   9.566  0.00  0.00    +0.000 A 
ATOM     23  C   UNL     1      45.003   2.056   9.335  0.00  0.00    +0.000 A 
ATOM     24  C   UNL     1      45.922   1.721   8.333  0.00  0.00    +0.000 A 
BRANCH  19  26
ATOM     25  N   UNL     1      47.442   3.078   5.332  0.00  0.00    +0.000 N 
ATOM     26  C   UNL     1      47.465   2.342   6.485  0.00  0.00    +0.000 C 
ATOM     27  O   UNL     1      48.267   1.433   6.638  0.00  0.00    +0.000 OA
ATOM     28  H   UNL     1      48.168   2.873   4.655  0.00  0.00    +0.000 HD
ATOM     29  H   UNL     1      46.979   3.972   5.267  0.00  0.00    +0.000 HD
ENDBRANCH  19  26
ENDBRANCH  17  22
ENDBRANCH  16  17
ENDBRANCH   1  16
TORSDOF 7
ENDMDL
MODEL 7
REMARK VINA RESULT:    -7.512      3.311      7.436
REMARK INTER + INTRA:         -11.561
REMARK INTER:                 -10.708
REMARK INTRA:                  -0.853
REMARK UNBOUND:                -0.975
REMARK  Name = 
REMARK  7 active torsions:
REMARK  status: ('A' for Active; 'I' for Inactive)
REMARK    1  A    between atoms: C_2  and  C_4
REMARK    2  A    between atoms: C_7  and  N_8
REMARK    3  A    between atoms: N_8  and  C_9
REMARK    4  A    between atoms: C_9  and  C_10
REMARK    5  A    between atoms: C_10  and  C_13
REMARK    6  A    between atoms: C_17  and  C_18
REMARK    7  A    between atoms: C_18  and  C_19
REMARK                            x       y       z     vdW  Elec       q    Type
REMARK                         _______ _______ _______ _____ _____    ______ ____
ROOT
ATOM      1  C   UNL     1      43.500   5.082  11.522  0.00  0.00    +0.000 C 
ATOM      2  F   UNL     1      43.723   4.768  12.831  0.00  0.00    +0.000 F 
ATOM      3  F   UNL     1      42.143   5.192  11.400  0.00  0.00    +0.000 F 
ENDROOT
BRANCH   1   4
ATOM      4  C   UNL     1      44.088   4.056  10.588  0.00  0.00    +0.000 A 
ATOM      5  C   UNL     1      43.713   2.723  10.664  0.00  0.00    +0.000 A 
ATOM      6  N   UNL     1      44.125   1.777   9.792  0.00  0.00    +0.000 NA
ATOM      7  C   UNL     1      44.958   2.173   8.802  0.00  0.00    +0.000 A 
ATOM      8  C   UNL     1      45.403   3.479   8.632  0.00  0.00    +0.000 A 
ATOM      9  C   UNL     1      44.960   4.429   9.555  0.00  0.00    +0.000 A 
BRANCH   8  10
ATOM     10  C   UNL     1      46.308   3.857   7.491  0.00  0.00    +0.000 C 
BRANCH  10  11
ATOM     11  C   UNL     1      46.633   2.642   6.629  0.00  0.00    +0.000 C 
ATOM     12  C   UNL     1      47.984   1.981   6.963  0.00  0.00    +0.000 C 
ATOM     13  N   UNL     1      48.339   1.975   5.539  0.00  0.00    +0.000 NA
ATOM     14  C   UNL     1      47.218   2.869   5.220  0.00  0.00    +0.000 C 
ATOM     15  H   UNL     1      48.277   1.056   5.103  0.00  0.00    +0.000 HD
ENDBRANCH  10  11
ENDBRANCH   8  10
ENDBRANCH   1   4
BRANCH   1  16
ATOM     16  C   UNL     1      44.131   6.460  11.208  0.00  0.00    +0.000 C 
BRANCH  16  17
ATOM     17  N   UNL     1      44.550   7.222  12.395  0.00  0.00    +0.000 N 
ATOM     18  H   UNL     1      44.053   8.100  12.542  0.00  0.00    +0.000 HD
BRANCH  17  22
ATOM     19  C   UNL     1      48.555   7.378  13.716  0.00  0.00    +0.000 A 
ATOM     20  C   UNL     1      48.071   6.211  13.126  0.00  0.00    +0.000 A 
ATOM     21  C   UNL     1      46.753   6.155  12.665  0.00  0.00    +0.000 A 
ATOM     22  C   UNL     1      45.897   7.263  12.754  0.00  0.00    +0.000 A 
ATOM     23  C   UNL     1      46.393   8.419  13.370  0.00  0.00    +0.000 A 
ATOM     24  C   UNL     1      47.706   8.480  13.853  0.00  0.00    +0.000 A 
BRANCH  19  26
ATOM     25  N   UNL     1      50.889   7.999  13.414  0.00  0.00    +0.000 N 
ATOM     26  C   UNL     1      49.941   7.463  14.243  0.00  0.00    +0.000 C 
ATOM     27  O   UNL     1      50.225   7.100  15.375  0.00  0.00    +0.000 OA
ATOM     28  H   UNL     1      51.808   8.140  13.816  0.00  0.00    +0.000 HD
ATOM     29  H   UNL     1      50.653   8.527  12.588  0.00  0.00    +0.000 HD
ENDBRANCH  19  26
ENDBRANCH  17  22
ENDBRANCH  16  17
ENDBRANCH   1  16
TORSDOF 7
ENDMDL
MODEL 8
REMARK VINA RESULT:    -7.474      2.567      7.742
REMARK INTER + INTRA:         -11.508
REMARK INTER:                 -11.008
REMARK INTRA:                  -0.500
REMARK UNBOUND:                -0.975
REMARK  Name = 
REMARK  7 active torsions:
REMARK  status: ('A' for Active; 'I' for Inactive)
REMARK    1  A    between atoms: C_2  and  C_4
REMARK    2  A    between atoms: C_7  and  N_8
REMARK    3  A    between atoms: N_8  and  C_9
REMARK    4  A    between atoms: C_9  and  C_10
REMARK    5  A    between atoms: C_10  and  C_13
REMARK    6  A    between atoms: C_17  and  C_18
REMARK    7  A    between atoms: C_18  and  C_19
REMARK                            x       y       z     vdW  Elec       q    Type
REMARK                         _______ _______ _______ _____ _____    ______ ____
ROOT
ATOM      1  C   UNL     1      44.076   5.649  11.482  0.00  0.00    +0.000 C 
ATOM      2  F   UNL     1      43.674   5.184  12.700  0.00  0.00    +0.000 F 
ATOM      3  F   UNL     1      43.032   6.397  11.014  0.00  0.00    +0.000 F 
ENDROOT
BRANCH   1   4
ATOM      4  C   UNL     1      44.456   4.529  10.549  0.00  0.00    +0.000 A 
ATOM      5  C   UNL     1      43.925   3.258  10.706  0.00  0.00    +0.000 A 
ATOM      6  N   UNL     1      44.145   2.241   9.844  0.00  0.00    +0.000 NA
ATOM      7  C   UNL     1      44.939   2.498   8.779  0.00  0.00    +0.000 A 
ATOM      8  C   UNL     1      45.528   3.731   8.524  0.00  0.00    +0.000 A 
ATOM      9  C   UNL     1      45.281   4.756   9.439  0.00  0.00    +0.000 A 
BRANCH   8  10
ATOM     10  C   UNL     1      46.379   3.956   7.303  0.00  0.00    +0.000 C 
BRANCH  10  11
ATOM     11  C   UNL     1      46.660   2.640   6.586  0.00  0.00    +0.000 C 
ATOM     12  C   UNL     1      47.978   1.965   7.011  0.00  0.00    +0.000 C 
ATOM     13  N   UNL     1      48.345   1.786   5.602  0.00  0.00    +0.000 NA
ATOM     14  C   UNL     1      47.268   2.684   5.169  0.00  0.00    +0.000 C 
ATOM     15  H   UNL     1      48.249   0.827   5.268  0.00  0.00    +0.000 HD
ENDBRANCH  10  11
ENDBRANCH   8  10
ENDBRANCH   1   4
BRANCH   1  16
ATOM     16  C   UNL     1      45.299   6.580  11.666  0.00  0.00    +0.000 C 
BRANCH  16  17
ATOM     17  N   UNL     1      46.559   5.879  11.956  0.00  0.00    +0.000 N 
ATOM     18  H   UNL     1      46.763   5.086  11.347  0.00  0.00    +0.000 HD
BRANCH  17  22
ATOM     19  C   UNL     1      47.914   5.137  15.884  0.00  0.00    +0.000 A 
ATOM     20  C   UNL     1      48.299   6.309  15.234  0.00  0.00    +0.000 A 
ATOM     21  C   UNL     1      47.839   6.576  13.941  0.00  0.00    +0.000 A 
ATOM     22  C   UNL     1      46.966   5.701  13.278  0.00  0.00    +0.000 A 
ATOM     23  C   UNL     1      46.608   4.518  13.938  0.00  0.00    +0.000 A 
ATOM     24  C   UNL     1      47.079   4.231  15.225  0.00  0.00    +0.000 A 
BRANCH  19  26
ATOM     25  N   UNL     1      47.821   5.465  18.293  0.00  0.00    +0.000 N 
ATOM     26  C   UNL     1      48.407   4.809  17.245  0.00  0.00    +0.000 C 
ATOM     27  O   UNL     1      49.276   3.970  17.433  0.00  0.00    +0.000 OA
ATOM     28  H   UNL     1      48.097   5.164  19.221  0.00  0.00    +0.000 HD
ATOM     29  H   UNL     1      46.951   5.966  18.203  0.00  0.00    +0.000 HD
ENDBRANCH  19  26
ENDBRANCH  17  22
ENDBRANCH  16  17
ENDBRANCH   1  16
TORSDOF 7
ENDMDL
MODEL 9
REMARK VINA RESULT:    -6.475      3.344      4.913
REMARK INTER + INTRA:         -10.099
REMARK INTER:                  -8.802
REMARK INTRA:                  -1.297
REMARK UNBOUND:                -0.975
REMARK  Name = 
REMARK  7 active torsions:
REMARK  status: ('A' for Active; 'I' for Inactive)
REMARK    1  A    between atoms: C_2  and  C_4
REMARK    2  A    between atoms: C_7  and  N_8
REMARK    3  A    between atoms: N_8  and  C_9
REMARK    4  A    between atoms: C_9  and  C_10
REMARK    5  A    between atoms: C_10  and  C_13
REMARK    6  A    between atoms: C_17  and  C_18
REMARK    7  A    between atoms: C_18  and  C_19
REMARK                            x       y       z     vdW  Elec       q    Type
REMARK                         _______ _______ _______ _____ _____    ______ ____
ROOT
ATOM      1  C   UNL     1      48.460   8.009  12.517  0.00  0.00    +0.000 C 
ATOM      2  F   UNL     1      48.471   6.785  11.915  0.00  0.00    +0.000 F 
ATOM      3  F   UNL     1      49.259   8.803  11.743  0.00  0.00    +0.000 F 
ENDROOT
BRANCH   1   4
ATOM      4  C   UNL     1      48.923   7.937  13.949  0.00  0.00    +0.000 A 
ATOM      5  C   UNL     1      49.283   9.082  14.642  0.00  0.00    +0.000 A 
ATOM      6  N   UNL     1      49.606   9.096  15.954  0.00  0.00    +0.000 NA
ATOM      7  C   UNL     1      49.577   7.911  16.607  0.00  0.00    +0.000 A 
ATOM      8  C   UNL     1      49.237   6.701  16.014  0.00  0.00    +0.000 A 
ATOM      9  C   UNL     1      48.913   6.725  14.655  0.00  0.00    +0.000 A 
BRANCH   8  10
ATOM     10  C   UNL     1      49.198   5.422  16.806  0.00  0.00    +0.000 C 
BRANCH  10  11
ATOM     11  C   UNL     1      47.886   4.680  16.577  0.00  0.00    +0.000 C 
ATOM     12  C   UNL     1      47.001   4.572  17.833  0.00  0.00    +0.000 C 
ATOM     13  N   UNL     1      46.826   3.136  17.593  0.00  0.00    +0.000 NA
ATOM     14  C   UNL     1      47.896   3.138  16.587  0.00  0.00    +0.000 C 
ATOM     15  H   UNL     1      45.908   2.886  17.226  0.00  0.00    +0.000 HD
ENDBRANCH  10  11
ENDBRANCH   8  10
ENDBRANCH   1   4
BRANCH   1  16
ATOM     16  C   UNL     1      47.023   8.584  12.486  0.00  0.00    +0.000 C 
BRANCH  16  17
ATOM     17  N   UNL     1      46.049   7.831  13.291  0.00  0.00    +0.000 N 
ATOM     18  H   UNL     1      46.242   7.808  14.292  0.00  0.00    +0.000 HD
BRANCH  17  22
ATOM     19  C   UNL     1      44.548   4.274  11.588  0.00  0.00    +0.000 A 
ATOM     20  C   UNL     1      45.120   4.239  12.859  0.00  0.00    +0.000 A 
ATOM     21  C   UNL     1      45.601   5.415  13.442  0.00  0.00    +0.000 A 
ATOM     22  C   UNL     1      45.499   6.652  12.789  0.00  0.00    +0.000 A 
ATOM     23  C   UNL     1      44.942   6.664  11.504  0.00  0.00    +0.000 A 
ATOM     24  C   UNL     1      44.474   5.489  10.902  0.00  0.00    +0.000 A 
BRANCH  19  26
ATOM     25  N   UNL     1      43.410   2.126  11.718  0.00  0.00    +0.000 N 
ATOM     26  C   UNL     1      44.053   3.039  10.927  0.00  0.00    +0.000 C 
ATOM     27  O   UNL     1      44.185   2.852   9.726  0.00  0.00    +0.000 OA
ATOM     28  H   UNL     1      42.994   1.335  11.241  0.00  0.00    +0.000 HD
ATOM     29  H   UNL     1      43.068   2.351  12.640  0.00  0.00    +0.000 HD
ENDBRANCH  19  26
ENDBRANCH  17  22
ENDBRANCH  16  17
ENDBRANCH   1  16
TORSDOF 7
ENDMDL
