MODEL 1
REMARK VINA RESULT:    -8.652      0.000      0.000
REMARK INTER + INTRA:         -12.097
REMARK INTER:                 -11.181
REMARK INTRA:                  -0.917
REMARK UNBOUND:                -0.917
REMARK  Name = 
REMARK  5 active torsions:
REMARK  status: ('A' for Active; 'I' for Inactive)
REMARK    1  A    between atoms: C_2  and  C_4
REMARK    2  A    between atoms: C_7  and  O_8
REMARK    3  A    between atoms: O_8  and  C_9
REMARK    4  A    between atoms: C_9  and  C_10
REMARK    5  A    between atoms: C_12  and  C_13
REMARK                            x       y       z     vdW  Elec       q    Type
REMARK                         _______ _______ _______ _____ _____    ______ ____
ROOT
ATOM      1  C   UNL     1      43.673   4.393  11.221  0.00  0.00    +0.000 C 
ENDROOT
BRANCH   1   2
ATOM      2  C   UNL     1      44.761   5.227  11.855  0.00  0.00    +0.000 A 
ATOM      3  C   UNL     1      44.839   6.622  11.718  0.00  0.00    +0.000 A 
ATOM      4  C   UNL     1      45.865   7.373  12.328  0.00  0.00    +0.000 A 
ATOM      5  C   UNL     1      46.832   6.671  13.073  0.00  0.00    +0.000 A 
ATOM      6  C   UNL     1      46.771   5.284  13.217  0.00  0.00    +0.000 A 
ATOM      7  C   UNL     1      45.740   4.578  12.612  0.00  0.00    +0.000 A 
ATOM      8  F   UNL     1      45.694   3.247  12.759  0.00  0.00    +0.000 F 
BRANCH   4   9
ATOM      9  C   UNL     1      45.940   8.839  12.182  0.00  0.00    +0.000 A 
ATOM     10  C   UNL     1      44.815   9.661  12.088  0.00  0.00    +0.000 A 
ATOM     11  N   UNL     1      44.877  11.007  11.922  0.00  0.00    +0.000 NA
ATOM     12  C   UNL     1      46.125  11.516  11.860  0.00  0.00    +0.000 A 
ATOM     13  C   UNL     1      47.252  10.723  11.967  0.00  0.00    +0.000 A 
ATOM     14  N   UNL     1      47.186   9.381  12.132  0.00  0.00    +0.000 NA
ENDBRANCH   4   9
ENDBRANCH   1   2
BRANCH   1  15
ATOM     15  O   UNL     1      43.576   4.619   9.807  0.00  0.00    +0.000 OA
BRANCH  15  19
ATOM     16  C   UNL     1      46.416   2.456   7.753  0.00  0.00    +0.000 A 
ATOM     17  C   UNL     1      45.549   1.797   8.628  0.00  0.00    +0.000 A 
ATOM     18  C   UNL     1      44.588   2.541   9.321  0.00  0.00    +0.000 A 
ATOM     19  C   UNL     1      44.531   3.910   9.108  0.00  0.00    +0.000 A 
ATOM     20  N   UNL     1      45.359   4.568   8.271  0.00  0.00    +0.000 NA
ATOM     21  C   UNL     1      46.290   3.830   7.621  0.00  0.00    +0.000 A 
BRANCH  16  23
ATOM     22  N   UNL     1      48.461   2.559   6.443  0.00  0.00    +0.000 N 
ATOM     23  C   UNL     1      47.479   1.780   6.984  0.00  0.00    +0.000 C 
ATOM     24  O   UNL     1      47.504   0.561   6.869  0.00  0.00    +0.000 OA
ATOM     25  H   UNL     1      49.239   2.061   6.027  0.00  0.00    +0.000 HD
ATOM     26  H   UNL     1      48.619   3.515   6.729  0.00  0.00    +0.000 HD
ENDBRANCH  16  23
ENDBRANCH  15  19
ENDBRANCH   1  15
TORSDOF 5
ENDMDL
MODEL 2
REMARK VINA RESULT:    -8.491      0.569      0.983
REMARK INTER + INTRA:         -11.890
REMARK INTER:                 -10.980
REMARK INTRA:                  -0.910
REMARK UNBOUND:                -0.917
REMARK  Name = 
REMARK  5 active torsions:
REMARK  status: ('A' for Active; 'I' for Inactive)
REMARK    1  A    between atoms: C_2  and  C_4
REMARK    2  A    between atoms: C_7  and  O_8
REMARK    3  A    between atoms: O_8  and  C_9
REMARK    4  A    between atoms: C_9  and  C_10
REMARK    5  A    between atoms: C_12  and  C_13
REMARK                            x       y       z     vdW  Elec       q    Type
REMARK                         _______ _______ _______ _____ _____    ______ ____
ROOT
ATOM      1  C   UNL     1      43.693   4.460  11.169  0.00  0.00    +0.000 C 
ENDROOT
BRANCH   1   2
ATOM      2  C   UNL     1      44.806   5.249  11.815  0.00  0.00    +0.000 A 
ATOM      3  C   UNL     1      44.959   6.635  11.653  0.00  0.00    +0.000 A 
ATOM      4  C   UNL     1      46.007   7.345  12.275  0.00  0.00    +0.000 A 
ATOM      5  C   UNL     1      46.917   6.610  13.059  0.00  0.00    +0.000 A 
ATOM      6  C   UNL     1      46.779   5.232  13.229  0.00  0.00    +0.000 A 
ATOM      7  C   UNL     1      45.730   4.567  12.611  0.00  0.00    +0.000 A 
ATOM      8  F   UNL     1      45.611   3.243  12.783  0.00  0.00    +0.000 F 
BRANCH   4   9
ATOM      9  C   UNL     1      46.162   8.802  12.103  0.00  0.00    +0.000 A 
ATOM     10  C   UNL     1      47.384   9.466  12.236  0.00  0.00    +0.000 A 
ATOM     11  N   UNL     1      47.528  10.810  12.111  0.00  0.00    +0.000 NA
ATOM     12  C   UNL     1      46.391  11.481  11.835  0.00  0.00    +0.000 A 
ATOM     13  C   UNL     1      45.174  10.842  11.684  0.00  0.00    +0.000 A 
ATOM     14  N   UNL     1      45.034   9.502  11.809  0.00  0.00    +0.000 NA
ENDBRANCH   4   9
ENDBRANCH   1   2
BRANCH   1  15
ATOM     15  O   UNL     1      43.617   4.694   9.755  0.00  0.00    +0.000 OA
BRANCH  15  19
ATOM     16  C   UNL     1      46.406   2.446   7.722  0.00  0.00    +0.000 A 
ATOM     17  C   UNL     1      45.550   1.821   8.632  0.00  0.00    +0.000 A 
ATOM     18  C   UNL     1      44.606   2.593   9.318  0.00  0.00    +0.000 A 
ATOM     19  C   UNL     1      44.555   3.955   9.062  0.00  0.00    +0.000 A 
ATOM     20  N   UNL     1      45.372   4.580   8.190  0.00  0.00    +0.000 NA
ATOM     21  C   UNL     1      46.286   3.816   7.548  0.00  0.00    +0.000 A 
BRANCH  16  23
ATOM     22  N   UNL     1      48.488   2.479   6.470  0.00  0.00    +0.000 N 
ATOM     23  C   UNL     1      47.450   1.738   6.957  0.00  0.00    +0.000 C 
ATOM     24  O   UNL     1      47.411   0.525   6.798  0.00  0.00    +0.000 OA
ATOM     25  H   UNL     1      49.249   1.952   6.056  0.00  0.00    +0.000 HD
ATOM     26  H   UNL     1      48.692   3.413   6.794  0.00  0.00    +0.000 HD
ENDBRANCH  16  23
ENDBRANCH  15  19
ENDBRANCH   1  15
TORSDOF 5
ENDMDL
MODEL 3
REMARK VINA RESULT:    -8.243      2.837      4.384
REMARK INTER + INTRA:         -11.569
REMARK INTER:                 -11.464
REMARK INTRA:                  -0.105
REMARK UNBOUND:                -0.917
REMARK  Name = 
REMARK  5 active torsions:
REMARK  status: ('A' for Active; 'I' for Inactive)
REMARK    1  A    between atoms: C_2  and  C_4
REMARK    2  A    between atoms: C_7  and  O_8
REMARK    3  A    between atoms: O_8  and  C_9
REMARK    4  A    between atoms: C_9  and  C_10
REMARK    5  A    between atoms: C_12  and  C_13
REMARK                            x       y       z     vdW  Elec       q    Type
REMARK                         _______ _______ _______ _____ _____    ______ ____
ROOT
ATOM      1  C   UNL     1      43.902   4.410  11.352  0.00  0.00    +0.000 C 
ENDROOT
BRANCH   1   2
ATOM      2  C   UNL     1      45.058   4.941  12.165  0.00  0.00    +0.000 A 
ATOM      3  C   UNL     1      45.546   4.302  13.316  0.00  0.00    +0.000 A 
ATOM      4  C   UNL     1      46.632   4.821  14.050  0.00  0.00    +0.000 A 
ATOM      5  C   UNL     1      47.209   6.024  13.600  0.00  0.00    +0.000 A 
ATOM      6  C   UNL     1      46.735   6.673  12.459  0.00  0.00    +0.000 A 
ATOM      7  C   UNL     1      45.671   6.128  11.754  0.00  0.00    +0.000 A 
ATOM      8  F   UNL     1      45.226   6.763  10.660  0.00  0.00    +0.000 F 
BRANCH   4   9
ATOM      9  C   UNL     1      47.143   4.143  15.258  0.00  0.00    +0.000 A 
ATOM     10  C   UNL     1      46.906   4.603  16.555  0.00  0.00    +0.000 A 
ATOM     11  N   UNL     1      47.399   4.004  17.668  0.00  0.00    +0.000 NA
ATOM     12  C   UNL     1      48.145   2.903  17.439  0.00  0.00    +0.000 A 
ATOM     13  C   UNL     1      48.379   2.421  16.165  0.00  0.00    +0.000 A 
ATOM     14  N   UNL     1      47.885   3.022  15.057  0.00  0.00    +0.000 NA
ENDBRANCH   4   9
ENDBRANCH   1   2
BRANCH   1  15
ATOM     15  O   UNL     1      43.974   4.823   9.980  0.00  0.00    +0.000 OA
BRANCH  15  19
ATOM     16  C   UNL     1      46.387   2.298   7.796  0.00  0.00    +0.000 A 
ATOM     17  C   UNL     1      45.515   1.764   8.748  0.00  0.00    +0.000 A 
ATOM     18  C   UNL     1      44.700   2.630   9.485  0.00  0.00    +0.000 A 
ATOM     19  C   UNL     1      44.787   3.992   9.236  0.00  0.00    +0.000 A 
ATOM     20  N   UNL     1      45.622   4.530   8.324  0.00  0.00    +0.000 NA
ATOM     21  C   UNL     1      46.411   3.675   7.632  0.00  0.00    +0.000 A 
BRANCH  16  23
ATOM     22  N   UNL     1      48.337   2.130   6.356  0.00  0.00    +0.000 N 
ATOM     23  C   UNL     1      47.305   1.486   6.975  0.00  0.00    +0.000 C 
ATOM     24  O   UNL     1      47.172   0.272   6.883  0.00  0.00    +0.000 OA
ATOM     25  H   UNL     1      49.019   1.534   5.901  0.00  0.00    +0.000 HD
ATOM     26  H   UNL     1      48.631   3.062   6.611  0.00  0.00    +0.000 HD
ENDBRANCH  16  23
ENDBRANCH  15  19
ENDBRANCH   1  15
TORSDOF 5
ENDMDL
MODEL 4
REMARK VINA RESULT:    -8.066      2.095      2.992
REMARK INTER + INTRA:         -11.341
REMARK INTER:                 -10.824
REMARK INTRA:                  -0.516
REMARK UNBOUND:                -0.917
REMARK  Name = 
REMARK  5 active torsions:
REMARK  status: ('A' for Active; 'I' for Inactive)
REMARK    1  A    between atoms: C_2  and  C_4
REMARK    2  A    between atoms: C_7  and  O_8
REMARK    3  A    between atoms: O_8  and  C_9
REMARK    4  A    between atoms: C_9  and  C_10
REMARK    5  A    between atoms: C_12  and  C_13
REMARK                            x       y       z     vdW  Elec       q    Type
REMARK                         _______ _______ _______ _____ _____    ______ ____
ROOT
ATOM      1  C   UNL     1      44.157   3.524  11.588  0.00  0.00    +0.000 C 
ENDROOT
BRANCH   1   2
ATOM      2  C   UNL     1      44.661   4.936  11.763  0.00  0.00    +0.000 A 
ATOM      3  C   UNL     1      45.926   5.240  12.291  0.00  0.00    +0.000 A 
ATOM      4  C   UNL     1      46.371   6.571  12.436  0.00  0.00    +0.000 A 
ATOM      5  C   UNL     1      45.491   7.599  12.047  0.00  0.00    +0.000 A 
ATOM      6  C   UNL     1      44.229   7.313  11.522  0.00  0.00    +0.000 A 
ATOM      7  C   UNL     1      43.829   5.992  11.383  0.00  0.00    +0.000 A 
ATOM      8  F   UNL     1      42.615   5.734  10.877  0.00  0.00    +0.000 F 
BRANCH   4   9
ATOM      9  C   UNL     1      47.702   6.885  12.990  0.00  0.00    +0.000 A 
ATOM     10  C   UNL     1      48.142   6.434  14.236  0.00  0.00    +0.000 A 
ATOM     11  N   UNL     1      49.353   6.745  14.765  0.00  0.00    +0.000 NA
ATOM     12  C   UNL     1      50.128   7.531  13.990  0.00  0.00    +0.000 A 
ATOM     13  C   UNL     1      49.718   7.976  12.747  0.00  0.00    +0.000 A 
ATOM     14  N   UNL     1      48.510   7.663  12.222  0.00  0.00    +0.000 NA
ENDBRANCH   4   9
ENDBRANCH   1   2
BRANCH   1  15
ATOM     15  O   UNL     1      43.610   3.306  10.279  0.00  0.00    +0.000 OA
BRANCH  15  19
ATOM     16  C   UNL     1      46.544   2.630   7.468  0.00  0.00    +0.000 A 
ATOM     17  C   UNL     1      45.997   3.909   7.598  0.00  0.00    +0.000 A 
ATOM     18  C   UNL     1      45.001   4.128   8.555  0.00  0.00    +0.000 A 
ATOM     19  C   UNL     1      44.597   3.062   9.345  0.00  0.00    +0.000 A 
ATOM     20  N   UNL     1      45.109   1.819   9.236  0.00  0.00    +0.000 NA
ATOM     21  C   UNL     1      46.062   1.627   8.294  0.00  0.00    +0.000 A 
BRANCH  16  23
ATOM     22  N   UNL     1      47.544   2.904   5.270  0.00  0.00    +0.000 N 
ATOM     23  C   UNL     1      47.584   2.277   6.483  0.00  0.00    +0.000 C 
ATOM     24  O   UNL     1      48.474   1.482   6.754  0.00  0.00    +0.000 OA
ATOM     25  H   UNL     1      48.336   2.734   4.661  0.00  0.00    +0.000 HD
ATOM     26  H   UNL     1      46.999   3.738   5.104  0.00  0.00    +0.000 HD
ENDBRANCH  16  23
ENDBRANCH  15  19
ENDBRANCH   1  15
TORSDOF 5
ENDMDL
MODEL 5
REMARK VINA RESULT:    -7.336      2.665      6.739
REMARK INTER + INTRA:         -10.397
REMARK INTER:                  -9.533
REMARK INTRA:                  -0.864
REMARK UNBOUND:                -0.917
REMARK  Name = 
REMARK  5 active torsions:
REMARK  status: ('A' for Active; 'I' for Inactive)
REMARK    1  A    between atoms: C_2  and  C_4
REMARK    2  A    between atoms: C_7  and  O_8
REMARK    3  A    between atoms: O_8  and  C_9
REMARK    4  A    between atoms: C_9  and  C_10
REMARK    5  A    between atoms: C_12  and  C_13
REMARK                            x       y       z     vdW  Elec       q    Type
REMARK                         _______ _______ _______ _____ _____    ______ ____
ROOT
ATOM      1  C   UNL     1      44.111   6.692  11.551  0.00  0.00    +0.000 C 
ENDROOT
BRANCH   1   2
ATOM      2  C   UNL     1      44.124   5.247  11.115  0.00  0.00    +0.000 A 
ATOM      3  C   UNL     1      44.861   4.783  10.014  0.00  0.00    +0.000 A 
ATOM      4  C   UNL     1      44.856   3.425   9.635  0.00  0.00    +0.000 A 
ATOM      5  C   UNL     1      44.068   2.539  10.394  0.00  0.00    +0.000 A 
ATOM      6  C   UNL     1      43.328   2.984  11.491  0.00  0.00    +0.000 A 
ATOM      7  C   UNL     1      43.364   4.326  11.841  0.00  0.00    +0.000 A 
ATOM      8  F   UNL     1      42.649   4.739  12.897  0.00  0.00    +0.000 F 
BRANCH   4   9
ATOM      9  C   UNL     1      45.634   2.943   8.478  0.00  0.00    +0.000 A 
ATOM     10  C   UNL     1      46.111   1.635   8.363  0.00  0.00    +0.000 A 
ATOM     11  N   UNL     1      46.855   1.194   7.317  0.00  0.00    +0.000 NA
ATOM     12  C   UNL     1      47.104   2.117   6.366  0.00  0.00    +0.000 A 
ATOM     13  C   UNL     1      46.629   3.413   6.452  0.00  0.00    +0.000 A 
ATOM     14  N   UNL     1      45.888   3.849   7.497  0.00  0.00    +0.000 NA
ENDBRANCH   4   9
ENDBRANCH   1   2
BRANCH   1  15
ATOM     15  O   UNL     1      44.783   6.882  12.805  0.00  0.00    +0.000 OA
BRANCH  15  19
ATOM     16  C   UNL     1      48.833   7.463  12.331  0.00  0.00    +0.000 A 
ATOM     17  C   UNL     1      48.371   6.280  12.913  0.00  0.00    +0.000 A 
ATOM     18  C   UNL     1      46.994   6.093  13.070  0.00  0.00    +0.000 A 
ATOM     19  C   UNL     1      46.137   7.092  12.635  0.00  0.00    +0.000 A 
ATOM     20  N   UNL     1      46.559   8.243  12.072  0.00  0.00    +0.000 NA
ATOM     21  C   UNL     1      47.897   8.409  11.942  0.00  0.00    +0.000 A 
BRANCH  16  23
ATOM     22  N   UNL     1      51.042   7.898  13.245  0.00  0.00    +0.000 N 
ATOM     23  C   UNL     1      50.261   7.778  12.132  0.00  0.00    +0.000 C 
ATOM     24  O   UNL     1      50.738   7.888  11.010  0.00  0.00    +0.000 OA
ATOM     25  H   UNL     1      52.037   7.993  13.076  0.00  0.00    +0.000 HD
ATOM     26  H   UNL     1      50.754   7.563  14.154  0.00  0.00    +0.000 HD
ENDBRANCH  16  23
ENDBRANCH  15  19
ENDBRANCH   1  15
TORSDOF 5
ENDMDL
MODEL 6
REMARK VINA RESULT:    -6.812      3.653      7.689
REMARK INTER + INTRA:          -9.720
REMARK INTER:                  -9.112
REMARK INTRA:                  -0.608
REMARK UNBOUND:                -0.917
REMARK  Name = 
REMARK  5 active torsions:
REMARK  status: ('A' for Active; 'I' for Inactive)
REMARK    1  A    between atoms: C_2  and  C_4
REMARK    2  A    between atoms: C_7  and  O_8
REMARK    3  A    between atoms: O_8  and  C_9
REMARK    4  A    between atoms: C_9  and  C_10
REMARK    5  A    between atoms: C_12  and  C_13
REMARK                            x       y       z     vdW  Elec       q    Type
REMARK                         _______ _______ _______ _____ _____    ______ ____
ROOT
ATOM      1  C   UNL     1      45.511   5.899  12.842  0.00  0.00    +0.000 C 
ENDROOT
BRANCH   1   2
ATOM      2  C   UNL     1      44.976   4.794  11.965  0.00  0.00    +0.000 A 
ATOM      3  C   UNL     1      45.572   4.419  10.750  0.00  0.00    +0.000 A 
ATOM      4  C   UNL     1      45.050   3.378   9.956  0.00  0.00    +0.000 A 
ATOM      5  C   UNL     1      43.888   2.728  10.413  0.00  0.00    +0.000 A 
ATOM      6  C   UNL     1      43.282   3.089  11.617  0.00  0.00    +0.000 A 
ATOM      7  C   UNL     1      43.829   4.112  12.379  0.00  0.00    +0.000 A 
ATOM      8  F   UNL     1      43.235   4.448  13.533  0.00  0.00    +0.000 F 
BRANCH   4   9
ATOM      9  C   UNL     1      45.683   2.986   8.681  0.00  0.00    +0.000 A 
ATOM     10  C   UNL     1      46.083   1.680   8.391  0.00  0.00    +0.000 A 
ATOM     11  N   UNL     1      46.695   1.320   7.234  0.00  0.00    +0.000 NA
ATOM     12  C   UNL     1      46.890   2.325   6.356  0.00  0.00    +0.000 A 
ATOM     13  C   UNL     1      46.488   3.622   6.616  0.00  0.00    +0.000 A 
ATOM     14  N   UNL     1      45.878   3.977   7.771  0.00  0.00    +0.000 NA
ENDBRANCH   4   9
ENDBRANCH   1   2
BRANCH   1  15
ATOM     15  O   UNL     1      46.944   5.873  12.927  0.00  0.00    +0.000 OA
BRANCH  15  19
ATOM     16  C   UNL     1      48.193   4.809  16.704  0.00  0.00    +0.000 A 
ATOM     17  C   UNL     1      47.237   4.028  16.051  0.00  0.00    +0.000 A 
ATOM     18  C   UNL     1      46.819   4.398  14.768  0.00  0.00    +0.000 A 
ATOM     19  C   UNL     1      47.377   5.529  14.191  0.00  0.00    +0.000 A 
ATOM     20  N   UNL     1      48.299   6.299  14.804  0.00  0.00    +0.000 NA
ATOM     21  C   UNL     1      48.679   5.930  16.050  0.00  0.00    +0.000 A 
BRANCH  16  23
ATOM     22  N   UNL     1      47.821   4.678  19.103  0.00  0.00    +0.000 N 
ATOM     23  C   UNL     1      48.694   4.527  18.063  0.00  0.00    +0.000 C 
ATOM     24  O   UNL     1      49.838   4.134  18.251  0.00  0.00    +0.000 OA
ATOM     25  H   UNL     1      48.154   4.363  20.006  0.00  0.00    +0.000 HD
ATOM     26  H   UNL     1      46.822   4.744  18.972  0.00  0.00    +0.000 HD
ENDBRANCH  16  23
ENDBRANCH  15  19
ENDBRANCH   1  15
TORSDOF 5
ENDMDL
MODEL 7
REMARK VINA RESULT:    -6.639      5.541      7.911
REMARK INTER + INTRA:          -9.497
REMARK INTER:                  -8.776
REMARK INTRA:                  -0.721
REMARK UNBOUND:                -0.917
REMARK  Name = 
REMARK  5 active torsions:
REMARK  status: ('A' for Active; 'I' for Inactive)
REMARK    1  A    between atoms: C_2  and  C_4
REMARK    2  A    between atoms: C_7  and  O_8
REMARK    3  A    between atoms: O_8  and  C_9
REMARK    4  A    between atoms: C_9  and  C_10
REMARK    5  A    between atoms: C_12  and  C_13
REMARK                            x       y       z     vdW  Elec       q    Type
REMARK                         _______ _______ _______ _____ _____    ______ ____
ROOT
ATOM      1  C   UNL     1      48.818   6.509  15.815  0.00  0.00    +0.000 C 
ENDROOT
BRANCH   1   2
ATOM      2  C   UNL     1      48.241   6.532  14.420  0.00  0.00    +0.000 A 
ATOM      3  C   UNL     1      47.147   5.745  14.028  0.00  0.00    +0.000 A 
ATOM      4  C   UNL     1      46.627   5.794  12.717  0.00  0.00    +0.000 A 
ATOM      5  C   UNL     1      47.257   6.654  11.798  0.00  0.00    +0.000 A 
ATOM      6  C   UNL     1      48.347   7.442  12.171  0.00  0.00    +0.000 A 
ATOM      7  C   UNL     1      48.825   7.376  13.472  0.00  0.00    +0.000 A 
ATOM      8  F   UNL     1      49.873   8.139  13.816  0.00  0.00    +0.000 F 
BRANCH   4   9
ATOM      9  C   UNL     1      45.475   4.966  12.311  0.00  0.00    +0.000 A 
ATOM     10  C   UNL     1      44.694   4.240  13.213  0.00  0.00    +0.000 A 
ATOM     11  N   UNL     1      43.653   3.451  12.843  0.00  0.00    +0.000 NA
ATOM     12  C   UNL     1      43.409   3.416  11.517  0.00  0.00    +0.000 A 
ATOM     13  C   UNL     1      44.160   4.138  10.608  0.00  0.00    +0.000 A 
ATOM     14  N   UNL     1      45.197   4.924  10.981  0.00  0.00    +0.000 NA
ENDBRANCH   4   9
ENDBRANCH   1   2
BRANCH   1  15
ATOM     15  O   UNL     1      48.255   5.457  16.613  0.00  0.00    +0.000 OA
BRANCH  15  19
ATOM     16  C   UNL     1      50.953   2.440  17.377  0.00  0.00    +0.000 A 
ATOM     17  C   UNL     1      49.636   2.117  17.043  0.00  0.00    +0.000 A 
ATOM     18  C   UNL     1      48.727   3.149  16.786  0.00  0.00    +0.000 A 
ATOM     19  C   UNL     1      49.173   4.459  16.868  0.00  0.00    +0.000 A 
ATOM     20  N   UNL     1      50.439   4.795  17.191  0.00  0.00    +0.000 NA
ATOM     21  C   UNL     1      51.298   3.781  17.449  0.00  0.00    +0.000 A 
BRANCH  16  23
ATOM     22  N   UNL     1      51.580   0.229  18.168  0.00  0.00    +0.000 N 
ATOM     23  C   UNL     1      51.992   1.439  17.687  0.00  0.00    +0.000 C 
ATOM     24  O   UNL     1      53.177   1.667  17.484  0.00  0.00    +0.000 OA
ATOM     25  H   UNL     1      52.300  -0.477  18.256  0.00  0.00    +0.000 HD
ATOM     26  H   UNL     1      50.623  -0.087  18.103  0.00  0.00    +0.000 HD
ENDBRANCH  16  23
ENDBRANCH  15  19
ENDBRANCH   1  15
TORSDOF 5
ENDMDL
MODEL 8
REMARK VINA RESULT:    -6.308      4.815      8.339
REMARK INTER + INTRA:          -9.069
REMARK INTER:                  -8.470
REMARK INTRA:                  -0.599
REMARK UNBOUND:                -0.917
REMARK  Name = 
REMARK  5 active torsions:
REMARK  status: ('A' for Active; 'I' for Inactive)
REMARK    1  A    between atoms: C_2  and  C_4
REMARK    2  A    between atoms: C_7  and  O_8
REMARK    3  A    between atoms: O_8  and  C_9
REMARK    4  A    between atoms: C_9  and  C_10
REMARK    5  A    between atoms: C_12  and  C_13
REMARK                            x       y       z     vdW  Elec       q    Type
REMARK                         _______ _______ _______ _____ _____    ______ ____
ROOT
ATOM      1  C   UNL     1      48.061   6.753  14.046  0.00  0.00    +0.000 C 
ENDROOT
BRANCH   1   2
ATOM      2  C   UNL     1      46.931   6.876  13.053  0.00  0.00    +0.000 A 
ATOM      3  C   UNL     1      46.588   5.858  12.149  0.00  0.00    +0.000 A 
ATOM      4  C   UNL     1      45.522   6.002  11.237  0.00  0.00    +0.000 A 
ATOM      5  C   UNL     1      44.815   7.220  11.247  0.00  0.00    +0.000 A 
ATOM      6  C   UNL     1      45.145   8.243  12.137  0.00  0.00    +0.000 A 
ATOM      7  C   UNL     1      46.193   8.062  13.028  0.00  0.00    +0.000 A 
ATOM      8  F   UNL     1      46.499   9.054  13.877  0.00  0.00    +0.000 F 
BRANCH   4   9
ATOM      9  C   UNL     1      45.163   4.927  10.291  0.00  0.00    +0.000 A 
ATOM     10  C   UNL     1      44.392   3.818  10.645  0.00  0.00    +0.000 A 
ATOM     11  N   UNL     1      44.086   2.810   9.789  0.00  0.00    +0.000 NA
ATOM     12  C   UNL     1      44.578   2.954   8.541  0.00  0.00    +0.000 A 
ATOM     13  C   UNL     1      45.331   4.051   8.166  0.00  0.00    +0.000 A 
ATOM     14  N   UNL     1      45.634   5.054   9.022  0.00  0.00    +0.000 NA
ENDBRANCH   4   9
ENDBRANCH   1   2
BRANCH   1  15
ATOM     15  O   UNL     1      48.196   5.414  14.545  0.00  0.00    +0.000 OA
BRANCH  15  19
ATOM     16  C   UNL     1      48.301   5.358  18.662  0.00  0.00    +0.000 A 
ATOM     17  C   UNL     1      48.846   6.445  17.974  0.00  0.00    +0.000 A 
ATOM     18  C   UNL     1      48.805   6.455  16.576  0.00  0.00    +0.000 A 
ATOM     19  C   UNL     1      48.219   5.380  15.924  0.00  0.00    +0.000 A 
ATOM     20  N   UNL     1      47.689   4.319  16.566  0.00  0.00    +0.000 NA
ATOM     21  C   UNL     1      47.751   4.325  17.919  0.00  0.00    +0.000 A 
BRANCH  16  23
ATOM     22  N   UNL     1      48.489   3.984  20.657  0.00  0.00    +0.000 N 
ATOM     23  C   UNL     1      48.304   5.230  20.132  0.00  0.00    +0.000 C 
ATOM     24  O   UNL     1      48.185   6.210  20.856  0.00  0.00    +0.000 OA
ATOM     25  H   UNL     1      48.607   3.943  21.663  0.00  0.00    +0.000 HD
ATOM     26  H   UNL     1      48.844   3.210  20.115  0.00  0.00    +0.000 HD
ENDBRANCH  16  23
ENDBRANCH  15  19
ENDBRANCH   1  15
TORSDOF 5
ENDMDL
MODEL 9
REMARK VINA RESULT:    -6.187      4.057      6.160
REMARK INTER + INTRA:          -8.913
REMARK INTER:                  -8.259
REMARK INTRA:                  -0.654
REMARK UNBOUND:                -0.917
REMARK  Name = 
REMARK  5 active torsions:
REMARK  status: ('A' for Active; 'I' for Inactive)
REMARK    1  A    between atoms: C_2  and  C_4
REMARK    2  A    between atoms: C_7  and  O_8
REMARK    3  A    between atoms: O_8  and  C_9
REMARK    4  A    between atoms: C_9  and  C_10
REMARK    5  A    between atoms: C_12  and  C_13
REMARK                            x       y       z     vdW  Elec       q    Type
REMARK                         _______ _______ _______ _____ _____    ______ ____
ROOT
ATOM      1  C   UNL     1      47.242   8.075  12.510  0.00  0.00    +0.000 C 
ENDROOT
BRANCH   1   2
ATOM      2  C   UNL     1      48.103   7.670  13.682  0.00  0.00    +0.000 A 
ATOM      3  C   UNL     1      47.853   6.529  14.461  0.00  0.00    +0.000 A 
ATOM      4  C   UNL     1      48.681   6.174  15.546  0.00  0.00    +0.000 A 
ATOM      5  C   UNL     1      49.768   7.019  15.841  0.00  0.00    +0.000 A 
ATOM      6  C   UNL     1      50.028   8.158  15.078  0.00  0.00    +0.000 A 
ATOM      7  C   UNL     1      49.199   8.471  14.010  0.00  0.00    +0.000 A 
ATOM      8  F   UNL     1      49.462   9.569  13.287  0.00  0.00    +0.000 F 
BRANCH   4   9
ATOM      9  C   UNL     1      48.415   4.971  16.360  0.00  0.00    +0.000 A 
ATOM     10  C   UNL     1      47.161   4.363  16.445  0.00  0.00    +0.000 A 
ATOM     11  N   UNL     1      46.902   3.276  17.216  0.00  0.00    +0.000 NA
ATOM     12  C   UNL     1      47.961   2.803  17.907  0.00  0.00    +0.000 A 
ATOM     13  C   UNL     1      49.214   3.381  17.825  0.00  0.00    +0.000 A 
ATOM     14  N   UNL     1      49.468   4.464  17.055  0.00  0.00    +0.000 NA
ENDBRANCH   4   9
ENDBRANCH   1   2
BRANCH   1  15
ATOM     15  O   UNL     1      45.844   7.888  12.779  0.00  0.00    +0.000 OA
BRANCH  15  19
ATOM     16  C   UNL     1      44.501   4.290  11.291  0.00  0.00    +0.000 A 
ATOM     17  C   UNL     1      45.347   5.083  10.513  0.00  0.00    +0.000 A 
ATOM     18  C   UNL     1      45.798   6.303  11.027  0.00  0.00    +0.000 A 
ATOM     19  C   UNL     1      45.387   6.678  12.298  0.00  0.00    +0.000 A 
ATOM     20  N   UNL     1      44.569   5.930  13.066  0.00  0.00    +0.000 NA
ATOM     21  C   UNL     1      44.135   4.759  12.543  0.00  0.00    +0.000 A 
BRANCH  16  23
ATOM     22  N   UNL     1      43.360   2.202  11.789  0.00  0.00    +0.000 N 
ATOM     23  C   UNL     1      43.948   2.996  10.846  0.00  0.00    +0.000 C 
ATOM     24  O   UNL     1      43.979   2.661   9.669  0.00  0.00    +0.000 OA
ATOM     25  H   UNL     1      42.884   1.380  11.438  0.00  0.00    +0.000 HD
ATOM     26  H   UNL     1      43.085   2.546  12.698  0.00  0.00    +0.000 HD
ENDBRANCH  16  23
ENDBRANCH  15  19
ENDBRANCH   1  15
TORSDOF 5
ENDMDL
