MODEL 1
REMARK VINA RESULT:    -8.554      0.000      0.000
REMARK INTER + INTRA:         -13.321
REMARK INTER:                 -12.054
REMARK INTRA:                  -1.267
REMARK UNBOUND:                -1.267
REMARK  Name = 
REMARK  7 active torsions:
REMARK  status: ('A' for Active; 'I' for Inactive)
REMARK    1  A    between atoms: C_2  and  C_20
REMARK    2  A    between atoms: N_3  and  C_4
REMARK    3  A    between atoms: C_4  and  C_5
REMARK    4  A    between atoms: C_8  and  C_9
REMARK    5  A    between atoms: C_9  and  N_10
REMARK    6  A    between atoms: N_10  and  C_11
REMARK    7  A    between atoms: C_11  and  C_12
REMARK                            x       y       z     vdW  Elec       q    Type
REMARK                         _______ _______ _______ _____ _____    ______ ____
ROOT
ATOM      1  C   UNL     1      46.925   7.187  13.028  0.00  0.00    +0.000 C 
ENDROOT
BRANCH   1   2
ATOM      2  C   UNL     1      45.457   6.853  12.699  0.00  0.00    +0.000 C 
ATOM      3  C   UNL     1      45.136   6.975  11.198  0.00  0.00    +0.000 C 
ATOM      4  C   UNL     1      45.728   5.848  10.352  0.00  0.00    +0.000 C 
ATOM      5  C   UNL     1      45.386   4.441  10.879  0.00  0.00    +0.000 C 
ATOM      6  C   UNL     1      45.721   4.335  12.375  0.00  0.00    +0.000 C 
ATOM      7  C   UNL     1      45.098   5.452  13.212  0.00  0.00    +0.000 C 
BRANCH   5   8
ATOM      8  C   UNL     1      43.926   4.017  10.587  0.00  0.00    +0.000 C 
BRANCH   8   9
ATOM      9  N   UNL     1      43.883   3.270   9.334  0.00  0.00    +0.000 NA
ATOM     10  H   UNL     1      44.151   3.877   8.559  0.00  0.00    +0.000 HD
BRANCH   9  11
ATOM     11  C   UNL     1      44.744   2.090   9.331  0.00  0.00    +0.000 C 
BRANCH  11  12
ATOM     12  C   UNL     1      45.713   2.173   8.179  0.00  0.00    +0.000 A 
ATOM     13  C   UNL     1      45.774   3.312   7.367  0.00  0.00    +0.000 A 
ATOM     14  C   UNL     1      46.709   3.382   6.339  0.00  0.00    +0.000 A 
ATOM     15  C   UNL     1      47.552   2.301   6.147  0.00  0.00    +0.000 A 
ATOM     16  N   UNL     1      47.516   1.178   6.897  0.00  0.00    +0.000 NA
ATOM     17  C   UNL     1      46.599   1.141   7.893  0.00  0.00    +0.000 A 
ENDBRANCH  11  12
ENDBRANCH   9  11
ENDBRANCH   8   9
ENDBRANCH   5   8
ENDBRANCH   1   2
BRANCH   1  20
ATOM     18  O   UNL     1      49.556   6.894  14.047  0.00  0.00    +0.000 OA
ATOM     19  C   UNL     1      48.597   6.661  14.782  0.00  0.00    +0.000 C 
ATOM     20  N   UNL     1      47.300   6.767  14.356  0.00  0.00    +0.000 N 
ATOM     21  H   UNL     1      46.543   6.623  15.016  0.00  0.00    +0.000 HD
BRANCH  19  22
ATOM     22  C   UNL     1      48.781   6.207  16.166  0.00  0.00    +0.000 A 
ATOM     23  C   UNL     1      49.404   7.036  17.087  0.00  0.00    +0.000 A 
ATOM     24  S   UNL     1      49.547   6.345  18.640  0.00  0.00    +0.000 S 
ATOM     25  C   UNL     1      48.743   4.928  18.145  0.00  0.00    +0.000 A 
ATOM     26  N   UNL     1      48.501   3.916  19.023  0.00  0.00    +0.000 NA
ATOM     27  C   UNL     1      47.851   2.919  18.523  0.00  0.00    +0.000 A 
ATOM     28  N   UNL     1      47.428   2.837  17.223  0.00  0.00    +0.000 N 
ATOM     29  C   UNL     1      47.708   3.801  16.286  0.00  0.00    +0.000 A 
ATOM     30  O   UNL     1      47.417   3.632  15.106  0.00  0.00    +0.000 OA
ATOM     31  C   UNL     1      48.397   4.970  16.806  0.00  0.00    +0.000 A 
ATOM     32  H   UNL     1      46.950   2.014  16.887  0.00  0.00    +0.000 HD
ENDBRANCH  19  22
ENDBRANCH   1  20
TORSDOF 7
ENDMDL
MODEL 2
REMARK VINA RESULT:    -8.424      1.995      2.694
REMARK INTER + INTRA:         -13.139
REMARK INTER:                 -12.380
REMARK INTRA:                  -0.759
REMARK UNBOUND:                -1.267
REMARK  Name = 
REMARK  7 active torsions:
REMARK  status: ('A' for Active; 'I' for Inactive)
REMARK    1  A    between atoms: C_2  and  C_20
REMARK    2  A    between atoms: N_3  and  C_4
REMARK    3  A    between atoms: C_4  and  C_5
REMARK    4  A    between atoms: C_8  and  C_9
REMARK    5  A    between atoms: C_9  and  N_10
REMARK    6  A    between atoms: N_10  and  C_11
REMARK    7  A    between atoms: C_11  and  C_12
REMARK                            x       y       z     vdW  Elec       q    Type
REMARK                         _______ _______ _______ _____ _____    ______ ____
ROOT
ATOM      1  C   UNL     1      45.951   4.438  14.696  0.00  0.00    +0.000 C 
ENDROOT
BRANCH   1   2
ATOM      2  C   UNL     1      46.068   4.851  13.217  0.00  0.00    +0.000 C 
ATOM      3  C   UNL     1      45.845   3.677  12.246  0.00  0.00    +0.000 C 
ATOM      4  C   UNL     1      44.387   3.230  12.151  0.00  0.00    +0.000 C 
ATOM      5  C   UNL     1      43.409   4.385  11.857  0.00  0.00    +0.000 C 
ATOM      6  C   UNL     1      43.640   5.544  12.840  0.00  0.00    +0.000 C 
ATOM      7  C   UNL     1      45.097   5.998  12.902  0.00  0.00    +0.000 C 
BRANCH   5   8
ATOM      8  C   UNL     1      43.455   4.864  10.385  0.00  0.00    +0.000 C 
BRANCH   8   9
ATOM      9  N   UNL     1      44.020   3.806   9.553  0.00  0.00    +0.000 NA
ATOM     10  H   UNL     1      43.273   3.319   9.057  0.00  0.00    +0.000 HD
BRANCH   9  11
ATOM     11  C   UNL     1      44.996   4.289   8.581  0.00  0.00    +0.000 C 
BRANCH  11  12
ATOM     12  C   UNL     1      45.790   3.128   8.040  0.00  0.00    +0.000 A 
ATOM     13  C   UNL     1      46.705   3.302   6.995  0.00  0.00    +0.000 A 
ATOM     14  C   UNL     1      47.459   2.223   6.545  0.00  0.00    +0.000 A 
ATOM     15  C   UNL     1      47.266   0.993   7.149  0.00  0.00    +0.000 A 
ATOM     16  N   UNL     1      46.383   0.778   8.149  0.00  0.00    +0.000 NA
ATOM     17  C   UNL     1      45.668   1.848   8.570  0.00  0.00    +0.000 A 
ENDBRANCH  11  12
ENDBRANCH   9  11
ENDBRANCH   8   9
ENDBRANCH   5   8
ENDBRANCH   1   2
BRANCH   1  20
ATOM     18  O   UNL     1      46.665   3.280  17.185  0.00  0.00    +0.000 OA
ATOM     19  C   UNL     1      47.466   4.019  16.614  0.00  0.00    +0.000 C 
ATOM     20  N   UNL     1      47.186   4.625  15.419  0.00  0.00    +0.000 N 
ATOM     21  H   UNL     1      47.901   5.177  14.957  0.00  0.00    +0.000 HD
BRANCH  19  22
ATOM     22  C   UNL     1      48.772   4.340  17.204  0.00  0.00    +0.000 A 
ATOM     23  C   UNL     1      49.004   5.606  17.721  0.00  0.00    +0.000 A 
ATOM     24  S   UNL     1      50.576   5.807  18.352  0.00  0.00    +0.000 S 
ATOM     25  C   UNL     1      50.988   4.195  17.992  0.00  0.00    +0.000 A 
ATOM     26  N   UNL     1      52.214   3.696  18.311  0.00  0.00    +0.000 NA
ATOM     27  C   UNL     1      52.378   2.451  18.016  0.00  0.00    +0.000 A 
ATOM     28  N   UNL     1      51.431   1.659  17.422  0.00  0.00    +0.000 N 
ATOM     29  C   UNL     1      50.207   2.135  17.021  0.00  0.00    +0.000 A 
ATOM     30  O   UNL     1      49.435   1.424  16.384  0.00  0.00    +0.000 OA
ATOM     31  C   UNL     1      49.950   3.521  17.373  0.00  0.00    +0.000 A 
ATOM     32  H   UNL     1      51.634   0.697  17.190  0.00  0.00    +0.000 HD
ENDBRANCH  19  22
ENDBRANCH   1  20
TORSDOF 7
ENDMDL
MODEL 3
REMARK VINA RESULT:    -6.870      2.937      8.207
REMARK INTER + INTRA:         -10.949
REMARK INTER:                  -9.851
REMARK INTRA:                  -1.098
REMARK UNBOUND:                -1.267
REMARK  Name = 
REMARK  7 active torsions:
REMARK  status: ('A' for Active; 'I' for Inactive)
REMARK    1  A    between atoms: C_2  and  C_20
REMARK    2  A    between atoms: N_3  and  C_4
REMARK    3  A    between atoms: C_4  and  C_5
REMARK    4  A    between atoms: C_8  and  C_9
REMARK    5  A    between atoms: C_9  and  N_10
REMARK    6  A    between atoms: N_10  and  C_11
REMARK    7  A    between atoms: C_11  and  C_12
REMARK                            x       y       z     vdW  Elec       q    Type
REMARK                         _______ _______ _______ _____ _____    ______ ____
ROOT
ATOM      1  C   UNL     1      47.065   8.278  11.877  0.00  0.00    +0.000 C 
ENDROOT
BRANCH   1   2
ATOM      2  C   UNL     1      48.581   8.157  12.122  0.00  0.00    +0.000 C 
ATOM      3  C   UNL     1      49.130   9.262  13.043  0.00  0.00    +0.000 C 
ATOM      4  C   UNL     1      48.737   9.087  14.510  0.00  0.00    +0.000 C 
ATOM      5  C   UNL     1      49.061   7.687  15.069  0.00  0.00    +0.000 C 
ATOM      6  C   UNL     1      48.498   6.598  14.142  0.00  0.00    +0.000 C 
ATOM      7  C   UNL     1      48.924   6.771  12.685  0.00  0.00    +0.000 C 
BRANCH   5   8
ATOM      8  C   UNL     1      50.568   7.477  15.352  0.00  0.00    +0.000 C 
BRANCH   8   9
ATOM      9  N   UNL     1      50.736   6.323  16.232  0.00  0.00    +0.000 NA
ATOM     10  H   UNL     1      51.703   6.268  16.551  0.00  0.00    +0.000 HD
BRANCH   9  11
ATOM     11  C   UNL     1      49.853   6.345  17.395  0.00  0.00    +0.000 C 
BRANCH  11  12
ATOM     12  C   UNL     1      49.019   5.091  17.421  0.00  0.00    +0.000 A 
ATOM     13  C   UNL     1      49.613   3.826  17.338  0.00  0.00    +0.000 A 
ATOM     14  C   UNL     1      48.824   2.682  17.411  0.00  0.00    +0.000 A 
ATOM     15  C   UNL     1      47.457   2.839  17.555  0.00  0.00    +0.000 A 
ATOM     16  N   UNL     1      46.841   4.039  17.623  0.00  0.00    +0.000 NA
ATOM     17  C   UNL     1      47.635   5.135  17.555  0.00  0.00    +0.000 A 
ENDBRANCH  11  12
ENDBRANCH   9  11
ENDBRANCH   8   9
ENDBRANCH   5   8
ENDBRANCH   1   2
BRANCH   1  20
ATOM     18  O   UNL     1      44.307   7.780  11.435  0.00  0.00    +0.000 OA
ATOM     19  C   UNL     1      45.089   6.832  11.485  0.00  0.00    +0.000 C 
ATOM     20  N   UNL     1      46.430   6.994  11.709  0.00  0.00    +0.000 N 
ATOM     21  H   UNL     1      47.044   6.186  11.680  0.00  0.00    +0.000 HD
BRANCH  19  22
ATOM     22  C   UNL     1      44.626   5.445  11.349  0.00  0.00    +0.000 A 
ATOM     23  C   UNL     1      43.857   4.873  12.353  0.00  0.00    +0.000 A 
ATOM     24  S   UNL     1      43.420   3.254  12.037  0.00  0.00    +0.000 S 
ATOM     25  C   UNL     1      44.209   3.276  10.529  0.00  0.00    +0.000 A 
ATOM     26  N   UNL     1      44.190   2.186   9.712  0.00  0.00    +0.000 NA
ATOM     27  C   UNL     1      44.795   2.353   8.584  0.00  0.00    +0.000 A 
ATOM     28  N   UNL     1      45.425   3.508   8.201  0.00  0.00    +0.000 N 
ATOM     29  C   UNL     1      45.527   4.607   9.017  0.00  0.00    +0.000 A 
ATOM     30  O   UNL     1      46.204   5.575   8.683  0.00  0.00    +0.000 OA
ATOM     31  C   UNL     1      44.822   4.491  10.282  0.00  0.00    +0.000 A 
ATOM     32  H   UNL     1      45.907   3.563   7.315  0.00  0.00    +0.000 HD
ENDBRANCH  19  22
ENDBRANCH   1  20
TORSDOF 7
ENDMDL
MODEL 4
REMARK VINA RESULT:    -6.801      1.976      3.020
REMARK INTER + INTRA:         -10.851
REMARK INTER:                 -10.490
REMARK INTRA:                  -0.361
REMARK UNBOUND:                -1.267
REMARK  Name = 
REMARK  7 active torsions:
REMARK  status: ('A' for Active; 'I' for Inactive)
REMARK    1  A    between atoms: C_2  and  C_20
REMARK    2  A    between atoms: N_3  and  C_4
REMARK    3  A    between atoms: C_4  and  C_5
REMARK    4  A    between atoms: C_8  and  C_9
REMARK    5  A    between atoms: C_9  and  N_10
REMARK    6  A    between atoms: N_10  and  C_11
REMARK    7  A    between atoms: C_11  and  C_12
REMARK                            x       y       z     vdW  Elec       q    Type
REMARK                         _______ _______ _______ _____ _____    ______ ____
ROOT
ATOM      1  C   UNL     1      46.420   4.767  14.905  0.00  0.00    +0.000 C 
ENDROOT
BRANCH   1   2
ATOM      2  C   UNL     1      46.844   4.470  13.454  0.00  0.00    +0.000 C 
ATOM      3  C   UNL     1      46.050   3.313  12.821  0.00  0.00    +0.000 C 
ATOM      4  C   UNL     1      44.608   3.679  12.472  0.00  0.00    +0.000 C 
ATOM      5  C   UNL     1      44.489   4.962  11.625  0.00  0.00    +0.000 C 
ATOM      6  C   UNL     1      45.279   6.108  12.276  0.00  0.00    +0.000 C 
ATOM      7  C   UNL     1      46.728   5.735  12.592  0.00  0.00    +0.000 C 
BRANCH   5   8
ATOM      8  C   UNL     1      44.892   4.756  10.145  0.00  0.00    +0.000 C 
BRANCH   8   9
ATOM      9  N   UNL     1      43.993   3.780   9.533  0.00  0.00    +0.000 NA
ATOM     10  H   UNL     1      43.709   4.103   8.608  0.00  0.00    +0.000 HD
BRANCH   9  11
ATOM     11  C   UNL     1      44.578   2.448   9.411  0.00  0.00    +0.000 C 
BRANCH  11  12
ATOM     12  C   UNL     1      45.606   2.445   8.310  0.00  0.00    +0.000 A 
ATOM     13  C   UNL     1      46.459   1.351   8.120  0.00  0.00    +0.000 A 
ATOM     14  C   UNL     1      47.369   1.354   7.068  0.00  0.00    +0.000 A 
ATOM     15  C   UNL     1      47.406   2.461   6.238  0.00  0.00    +0.000 A 
ATOM     16  N   UNL     1      46.612   3.543   6.394  0.00  0.00    +0.000 NA
ATOM     17  C   UNL     1      45.733   3.509   7.424  0.00  0.00    +0.000 A 
ENDBRANCH  11  12
ENDBRANCH   9  11
ENDBRANCH   8   9
ENDBRANCH   5   8
ENDBRANCH   1   2
BRANCH   1  20
ATOM     18  O   UNL     1      47.167   2.936  16.939  0.00  0.00    +0.000 OA
ATOM     19  C   UNL     1      47.854   3.938  16.750  0.00  0.00    +0.000 C 
ATOM     20  N   UNL     1      47.549   4.873  15.797  0.00  0.00    +0.000 N 
ATOM     21  H   UNL     1      48.180   5.651  15.638  0.00  0.00    +0.000 HD
BRANCH  19  22
ATOM     22  C   UNL     1      49.037   4.225  17.572  0.00  0.00    +0.000 A 
ATOM     23  C   UNL     1      50.198   3.487  17.391  0.00  0.00    +0.000 A 
ATOM     24  S   UNL     1      51.466   3.944  18.438  0.00  0.00    +0.000 S 
ATOM     25  C   UNL     1      50.519   5.172  19.141  0.00  0.00    +0.000 A 
ATOM     26  N   UNL     1      51.028   5.983  20.109  0.00  0.00    +0.000 NA
ATOM     27  C   UNL     1      50.214   6.893  20.526  0.00  0.00    +0.000 A 
ATOM     28  N   UNL     1      48.934   7.063  20.070  0.00  0.00    +0.000 N 
ATOM     29  C   UNL     1      48.356   6.230  19.144  0.00  0.00    +0.000 A 
ATOM     30  O   UNL     1      47.169   6.342  18.853  0.00  0.00    +0.000 OA
ATOM     31  C   UNL     1      49.244   5.213  18.605  0.00  0.00    +0.000 A 
ATOM     32  H   UNL     1      48.337   7.778  20.460  0.00  0.00    +0.000 HD
ENDBRANCH  19  22
ENDBRANCH   1  20
TORSDOF 7
ENDMDL
MODEL 5
REMARK VINA RESULT:    -6.644      3.861      9.257
REMARK INTER + INTRA:         -10.631
REMARK INTER:                  -9.083
REMARK INTRA:                  -1.548
REMARK UNBOUND:                -1.267
REMARK  Name = 
REMARK  7 active torsions:
REMARK  status: ('A' for Active; 'I' for Inactive)
REMARK    1  A    between atoms: C_2  and  C_20
REMARK    2  A    between atoms: N_3  and  C_4
REMARK    3  A    between atoms: C_4  and  C_5
REMARK    4  A    between atoms: C_8  and  C_9
REMARK    5  A    between atoms: C_9  and  N_10
REMARK    6  A    between atoms: N_10  and  C_11
REMARK    7  A    between atoms: C_11  and  C_12
REMARK                            x       y       z     vdW  Elec       q    Type
REMARK                         _______ _______ _______ _____ _____    ______ ____
ROOT
ATOM      1  C   UNL     1      47.323   3.475  16.549  0.00  0.00    +0.000 C 
ENDROOT
BRANCH   1   2
ATOM      2  C   UNL     1      47.831   4.167  17.828  0.00  0.00    +0.000 C 
ATOM      3  C   UNL     1      48.965   3.390  18.521  0.00  0.00    +0.000 C 
ATOM      4  C   UNL     1      50.300   3.467  17.781  0.00  0.00    +0.000 C 
ATOM      5  C   UNL     1      50.736   4.909  17.452  0.00  0.00    +0.000 C 
ATOM      6  C   UNL     1      49.596   5.666  16.753  0.00  0.00    +0.000 C 
ATOM      7  C   UNL     1      48.275   5.604  17.520  0.00  0.00    +0.000 C 
BRANCH   5   8
ATOM      8  C   UNL     1      51.268   5.682  18.683  0.00  0.00    +0.000 C 
BRANCH   8   9
ATOM      9  N   UNL     1      51.600   7.048  18.286  0.00  0.00    +0.000 NA
ATOM     10  H   UNL     1      51.079   7.301  17.446  0.00  0.00    +0.000 HD
BRANCH   9  11
ATOM     11  C   UNL     1      51.332   8.037  19.326  0.00  0.00    +0.000 C 
BRANCH  11  12
ATOM     12  C   UNL     1      49.875   8.421  19.296  0.00  0.00    +0.000 A 
ATOM     13  C   UNL     1      49.327   9.091  18.195  0.00  0.00    +0.000 A 
ATOM     14  C   UNL     1      47.969   9.393  18.172  0.00  0.00    +0.000 A 
ATOM     15  C   UNL     1      47.198   9.024  19.260  0.00  0.00    +0.000 A 
ATOM     16  N   UNL     1      47.689   8.391  20.348  0.00  0.00    +0.000 NA
ATOM     17  C   UNL     1      49.013   8.105  20.340  0.00  0.00    +0.000 A 
ENDBRANCH  11  12
ENDBRANCH   9  11
ENDBRANCH   8   9
ENDBRANCH   5   8
ENDBRANCH   1   2
BRANCH   1  20
ATOM     18  O   UNL     1      47.421   3.333  13.717  0.00  0.00    +0.000 OA
ATOM     19  C   UNL     1      46.822   4.264  14.252  0.00  0.00    +0.000 C 
ATOM     20  N   UNL     1      46.745   4.407  15.612  0.00  0.00    +0.000 N 
ATOM     21  H   UNL     1      46.188   5.158  16.006  0.00  0.00    +0.000 HD
BRANCH  19  22
ATOM     22  C   UNL     1      46.181   5.321  13.460  0.00  0.00    +0.000 A 
ATOM     23  C   UNL     1      46.845   6.518  13.238  0.00  0.00    +0.000 A 
ATOM     24  S   UNL     1      45.948   7.635  12.312  0.00  0.00    +0.000 S 
ATOM     25  C   UNL     1      44.655   6.541  12.141  0.00  0.00    +0.000 A 
ATOM     26  N   UNL     1      43.551   6.868  11.415  0.00  0.00    +0.000 NA
ATOM     27  C   UNL     1      42.666   5.932  11.337  0.00  0.00    +0.000 A 
ATOM     28  N   UNL     1      42.779   4.701  11.926  0.00  0.00    +0.000 N 
ATOM     29  C   UNL     1      43.842   4.350  12.722  0.00  0.00    +0.000 A 
ATOM     30  O   UNL     1      43.847   3.284  13.329  0.00  0.00    +0.000 OA
ATOM     31  C   UNL     1      44.892   5.351  12.806  0.00  0.00    +0.000 A 
ATOM     32  H   UNL     1      42.035   4.022  11.851  0.00  0.00    +0.000 HD
ENDBRANCH  19  22
ENDBRANCH   1  20
TORSDOF 7
ENDMDL
MODEL 6
REMARK VINA RESULT:    -6.580      1.572      2.394
REMARK INTER + INTRA:         -10.540
REMARK INTER:                  -9.749
REMARK INTRA:                  -0.791
REMARK UNBOUND:                -1.267
REMARK  Name = 
REMARK  7 active torsions:
REMARK  status: ('A' for Active; 'I' for Inactive)
REMARK    1  A    between atoms: C_2  and  C_20
REMARK    2  A    between atoms: N_3  and  C_4
REMARK    3  A    between atoms: C_4  and  C_5
REMARK    4  A    between atoms: C_8  and  C_9
REMARK    5  A    between atoms: C_9  and  N_10
REMARK    6  A    between atoms: N_10  and  C_11
REMARK    7  A    between atoms: C_11  and  C_12
REMARK                            x       y       z     vdW  Elec       q    Type
REMARK                         _______ _______ _______ _____ _____    ______ ____
ROOT
ATOM      1  C   UNL     1      47.959   7.656  14.525  0.00  0.00    +0.000 C 
ENDROOT
BRANCH   1   2
ATOM      2  C   UNL     1      48.141   6.498  13.526  0.00  0.00    +0.000 C 
ATOM      3  C   UNL     1      47.220   5.299  13.823  0.00  0.00    +0.000 C 
ATOM      4  C   UNL     1      45.754   5.554  13.475  0.00  0.00    +0.000 C 
ATOM      5  C   UNL     1      45.545   6.072  12.038  0.00  0.00    +0.000 C 
ATOM      6  C   UNL     1      46.465   7.272  11.763  0.00  0.00    +0.000 C 
ATOM      7  C   UNL     1      47.931   6.992  12.088  0.00  0.00    +0.000 C 
BRANCH   5   8
ATOM      8  C   UNL     1      45.704   4.970  10.963  0.00  0.00    +0.000 C 
BRANCH   8   9
ATOM      9  N   UNL     1      44.865   5.296   9.812  0.00  0.00    +0.000 NA
ATOM     10  H   UNL     1      45.420   5.774   9.103  0.00  0.00    +0.000 HD
BRANCH   9  11
ATOM     11  C   UNL     1      44.229   4.129   9.207  0.00  0.00    +0.000 C 
BRANCH  11  12
ATOM     12  C   UNL     1      45.268   3.289   8.511  0.00  0.00    +0.000 A 
ATOM     13  C   UNL     1      45.374   1.916   8.760  0.00  0.00    +0.000 A 
ATOM     14  C   UNL     1      46.311   1.154   8.070  0.00  0.00    +0.000 A 
ATOM     15  C   UNL     1      47.127   1.795   7.154  0.00  0.00    +0.000 A 
ATOM     16  N   UNL     1      47.069   3.120   6.894  0.00  0.00    +0.000 NA
ATOM     17  C   UNL     1      46.143   3.834   7.577  0.00  0.00    +0.000 A 
ENDBRANCH  11  12
ENDBRANCH   9  11
ENDBRANCH   8   9
ENDBRANCH   5   8
ENDBRANCH   1   2
BRANCH   1  20
ATOM     18  O   UNL     1      50.655   7.099  15.214  0.00  0.00    +0.000 OA
ATOM     19  C   UNL     1      49.796   7.094  16.094  0.00  0.00    +0.000 C 
ATOM     20  N   UNL     1      48.474   7.339  15.835  0.00  0.00    +0.000 N 
ATOM     21  H   UNL     1      47.813   7.384  16.603  0.00  0.00    +0.000 HD
BRANCH  19  22
ATOM     22  C   UNL     1      50.127   6.778  17.489  0.00  0.00    +0.000 A 
ATOM     23  C   UNL     1      51.191   7.418  18.108  0.00  0.00    +0.000 A 
ATOM     24  S   UNL     1      51.441   6.921  19.721  0.00  0.00    +0.000 S 
ATOM     25  C   UNL     1      50.110   5.861  19.660  0.00  0.00    +0.000 A 
ATOM     26  N   UNL     1      49.745   5.131  20.750  0.00  0.00    +0.000 NA
ATOM     27  C   UNL     1      48.697   4.399  20.576  0.00  0.00    +0.000 A 
ATOM     28  N   UNL     1      47.984   4.323  19.409  0.00  0.00    +0.000 N 
ATOM     29  C   UNL     1      48.353   4.987  18.265  0.00  0.00    +0.000 A 
ATOM     30  O   UNL     1      47.759   4.797  17.209  0.00  0.00    +0.000 OA
ATOM     31  C   UNL     1      49.501   5.865  18.418  0.00  0.00    +0.000 A 
ATOM     32  H   UNL     1      47.188   3.705  19.329  0.00  0.00    +0.000 HD
ENDBRANCH  19  22
ENDBRANCH   1  20
TORSDOF 7
ENDMDL
MODEL 7
REMARK VINA RESULT:    -6.273      2.650      4.238
REMARK INTER + INTRA:         -10.108
REMARK INTER:                  -9.706
REMARK INTRA:                  -0.402
REMARK UNBOUND:                -1.267
REMARK  Name = 
REMARK  7 active torsions:
REMARK  status: ('A' for Active; 'I' for Inactive)
REMARK    1  A    between atoms: C_2  and  C_20
REMARK    2  A    between atoms: N_3  and  C_4
REMARK    3  A    between atoms: C_4  and  C_5
REMARK    4  A    between atoms: C_8  and  C_9
REMARK    5  A    between atoms: C_9  and  N_10
REMARK    6  A    between atoms: N_10  and  C_11
REMARK    7  A    between atoms: C_11  and  C_12
REMARK                            x       y       z     vdW  Elec       q    Type
REMARK                         _______ _______ _______ _____ _____    ______ ____
ROOT
ATOM      1  C   UNL     1      46.745   5.303  14.103  0.00  0.00    +0.000 C 
ENDROOT
BRANCH   1   2
ATOM      2  C   UNL     1      46.412   5.022  12.626  0.00  0.00    +0.000 C 
ATOM      3  C   UNL     1      45.700   3.673  12.417  0.00  0.00    +0.000 C 
ATOM      4  C   UNL     1      44.247   3.668  12.890  0.00  0.00    +0.000 C 
ATOM      5  C   UNL     1      43.412   4.830  12.316  0.00  0.00    +0.000 C 
ATOM      6  C   UNL     1      44.133   6.169  12.542  0.00  0.00    +0.000 C 
ATOM      7  C   UNL     1      45.575   6.166  12.037  0.00  0.00    +0.000 C 
BRANCH   5   8
ATOM      8  C   UNL     1      43.025   4.630  10.831  0.00  0.00    +0.000 C 
BRANCH   8   9
ATOM      9  N   UNL     1      43.997   3.742  10.197  0.00  0.00    +0.000 NA
ATOM     10  H   UNL     1      43.575   2.828  10.033  0.00  0.00    +0.000 HD
BRANCH   9  11
ATOM     11  C   UNL     1      44.518   4.257   8.934  0.00  0.00    +0.000 C 
BRANCH  11  12
ATOM     12  C   UNL     1      45.441   3.239   8.315  0.00  0.00    +0.000 A 
ATOM     13  C   UNL     1      46.352   3.603   7.317  0.00  0.00    +0.000 A 
ATOM     14  C   UNL     1      47.225   2.654   6.793  0.00  0.00    +0.000 A 
ATOM     15  C   UNL     1      47.152   1.361   7.279  0.00  0.00    +0.000 A 
ATOM     16  N   UNL     1      46.277   0.964   8.230  0.00  0.00    +0.000 NA
ATOM     17  C   UNL     1      45.444   1.911   8.724  0.00  0.00    +0.000 A 
ENDBRANCH  11  12
ENDBRANCH   9  11
ENDBRANCH   8   9
ENDBRANCH   5   8
ENDBRANCH   1   2
BRANCH   1  20
ATOM     18  O   UNL     1      47.476   8.044  14.107  0.00  0.00    +0.000 OA
ATOM     19  C   UNL     1      48.345   7.190  14.278  0.00  0.00    +0.000 C 
ATOM     20  N   UNL     1      48.069   5.849  14.275  0.00  0.00    +0.000 N 
ATOM     21  H   UNL     1      48.808   5.185  14.482  0.00  0.00    +0.000 HD
BRANCH  19  22
ATOM     22  C   UNL     1      49.756   7.553  14.457  0.00  0.00    +0.000 A 
ATOM     23  C   UNL     1      50.377   7.330  15.677  0.00  0.00    +0.000 A 
ATOM     24  S   UNL     1      52.010   7.825  15.712  0.00  0.00    +0.000 S 
ATOM     25  C   UNL     1      51.954   8.317  14.083  0.00  0.00    +0.000 A 
ATOM     26  N   UNL     1      53.058   8.818  13.463  0.00  0.00    +0.000 NA
ATOM     27  C   UNL     1      52.885   9.116  12.220  0.00  0.00    +0.000 A 
ATOM     28  N   UNL     1      51.705   8.966  11.540  0.00  0.00    +0.000 N 
ATOM     29  C   UNL     1      50.549   8.529  12.138  0.00  0.00    +0.000 A 
ATOM     30  O   UNL     1      49.487   8.525  11.525  0.00  0.00    +0.000 OA
ATOM     31  C   UNL     1      50.699   8.134  13.529  0.00  0.00    +0.000 A 
ATOM     32  H   UNL     1      51.627   9.247  10.572  0.00  0.00    +0.000 HD
ENDBRANCH  19  22
ENDBRANCH   1  20
TORSDOF 7
ENDMDL
MODEL 8
REMARK VINA RESULT:    -6.191      3.622      7.961
REMARK INTER + INTRA:          -9.991
REMARK INTER:                  -8.270
REMARK INTRA:                  -1.722
REMARK UNBOUND:                -1.267
REMARK  Name = 
REMARK  7 active torsions:
REMARK  status: ('A' for Active; 'I' for Inactive)
REMARK    1  A    between atoms: C_2  and  C_20
REMARK    2  A    between atoms: N_3  and  C_4
REMARK    3  A    between atoms: C_4  and  C_5
REMARK    4  A    between atoms: C_8  and  C_9
REMARK    5  A    between atoms: C_9  and  N_10
REMARK    6  A    between atoms: N_10  and  C_11
REMARK    7  A    between atoms: C_11  and  C_12
REMARK                            x       y       z     vdW  Elec       q    Type
REMARK                         _______ _______ _______ _____ _____    ______ ____
ROOT
ATOM      1  C   UNL     1      48.269   9.044  15.052  0.00  0.00    +0.000 C 
ENDROOT
BRANCH   1   2
ATOM      2  C   UNL     1      48.562   8.555  16.483  0.00  0.00    +0.000 C 
ATOM      3  C   UNL     1      48.845   7.043  16.555  0.00  0.00    +0.000 C 
ATOM      4  C   UNL     1      50.209   6.649  15.990  0.00  0.00    +0.000 C 
ATOM      5  C   UNL     1      51.377   7.460  16.586  0.00  0.00    +0.000 C 
ATOM      6  C   UNL     1      51.081   8.965  16.498  0.00  0.00    +0.000 C 
ATOM      7  C   UNL     1      49.727   9.348  17.093  0.00  0.00    +0.000 C 
BRANCH   5   8
ATOM      8  C   UNL     1      51.746   7.031  18.027  0.00  0.00    +0.000 C 
BRANCH   8   9
ATOM      9  N   UNL     1      52.031   5.599  18.045  0.00  0.00    +0.000 NA
ATOM     10  H   UNL     1      53.004   5.442  18.305  0.00  0.00    +0.000 HD
BRANCH   9  11
ATOM     11  C   UNL     1      51.170   4.846  18.954  0.00  0.00    +0.000 C 
BRANCH  11  12
ATOM     12  C   UNL     1      50.346   3.859  18.168  0.00  0.00    +0.000 A 
ATOM     13  C   UNL     1      48.947   3.898  18.199  0.00  0.00    +0.000 A 
ATOM     14  C   UNL     1      48.210   3.005  17.429  0.00  0.00    +0.000 A 
ATOM     15  C   UNL     1      48.897   2.086  16.656  0.00  0.00    +0.000 A 
ATOM     16  N   UNL     1      50.245   2.003  16.608  0.00  0.00    +0.000 NA
ATOM     17  C   UNL     1      50.936   2.890  17.364  0.00  0.00    +0.000 A 
ENDBRANCH  11  12
ENDBRANCH   9  11
ENDBRANCH   8   9
ENDBRANCH   5   8
ENDBRANCH   1   2
BRANCH   1  20
ATOM     18  O   UNL     1      47.954   8.682  12.256  0.00  0.00    +0.000 OA
ATOM     19  C   UNL     1      47.194   8.098  13.027  0.00  0.00    +0.000 C 
ATOM     20  N   UNL     1      47.276   8.235  14.387  0.00  0.00    +0.000 N 
ATOM     21  H   UNL     1      46.667   7.686  14.983  0.00  0.00    +0.000 HD
BRANCH  19  22
ATOM     22  C   UNL     1      46.110   7.240  12.534  0.00  0.00    +0.000 A 
ATOM     23  C   UNL     1      45.085   7.789  11.776  0.00  0.00    +0.000 A 
ATOM     24  S   UNL     1      43.904   6.652  11.301  0.00  0.00    +0.000 S 
ATOM     25  C   UNL     1      44.744   5.379  12.057  0.00  0.00    +0.000 A 
ATOM     26  N   UNL     1      44.279   4.101  12.000  0.00  0.00    +0.000 NA
ATOM     27  C   UNL     1      45.033   3.231  12.583  0.00  0.00    +0.000 A 
ATOM     28  N   UNL     1      46.207   3.523  13.227  0.00  0.00    +0.000 N 
ATOM     29  C   UNL     1      46.681   4.804  13.368  0.00  0.00    +0.000 A 
ATOM     30  O   UNL     1      47.670   5.035  14.055  0.00  0.00    +0.000 OA
ATOM     31  C   UNL     1      45.894   5.820  12.689  0.00  0.00    +0.000 A 
ATOM     32  H   UNL     1      46.736   2.799  13.690  0.00  0.00    +0.000 HD
ENDBRANCH  19  22
ENDBRANCH   1  20
TORSDOF 7
ENDMDL
MODEL 9
REMARK VINA RESULT:    -6.138      3.347      7.917
REMARK INTER + INTRA:          -9.917
REMARK INTER:                  -8.688
REMARK INTRA:                  -1.230
REMARK UNBOUND:                -1.267
REMARK  Name = 
REMARK  7 active torsions:
REMARK  status: ('A' for Active; 'I' for Inactive)
REMARK    1  A    between atoms: C_2  and  C_20
REMARK    2  A    between atoms: N_3  and  C_4
REMARK    3  A    between atoms: C_4  and  C_5
REMARK    4  A    between atoms: C_8  and  C_9
REMARK    5  A    between atoms: C_9  and  N_10
REMARK    6  A    between atoms: N_10  and  C_11
REMARK    7  A    between atoms: C_11  and  C_12
REMARK                            x       y       z     vdW  Elec       q    Type
REMARK                         _______ _______ _______ _____ _____    ______ ____
ROOT
ATOM      1  C   UNL     1      47.343   8.703  12.246  0.00  0.00    +0.000 C 
ENDROOT
BRANCH   1   2
ATOM      2  C   UNL     1      48.858   8.651  12.520  0.00  0.00    +0.000 C 
ATOM      3  C   UNL     1      49.305   9.640  13.612  0.00  0.00    +0.000 C 
ATOM      4  C   UNL     1      48.893   9.220  15.023  0.00  0.00    +0.000 C 
ATOM      5  C   UNL     1      49.306   7.778  15.379  0.00  0.00    +0.000 C 
ATOM      6  C   UNL     1      48.844   6.804  14.283  0.00  0.00    +0.000 C 
ATOM      7  C   UNL     1      49.289   7.222  12.882  0.00  0.00    +0.000 C 
BRANCH   5   8
ATOM      8  C   UNL     1      50.818   7.631  15.677  0.00  0.00    +0.000 C 
BRANCH   8   9
ATOM      9  N   UNL     1      51.060   6.338  16.311  0.00  0.00    +0.000 NA
ATOM     10  H   UNL     1      52.052   6.237  16.524  0.00  0.00    +0.000 HD
BRANCH   9  11
ATOM     11  C   UNL     1      50.289   6.136  17.534  0.00  0.00    +0.000 C 
BRANCH  11  12
ATOM     12  C   UNL     1      49.434   4.903  17.396  0.00  0.00    +0.000 A 
ATOM     13  C   UNL     1      48.037   4.982  17.446  0.00  0.00    +0.000 A 
ATOM     14  C   UNL     1      47.269   3.836  17.270  0.00  0.00    +0.000 A 
ATOM     15  C   UNL     1      47.925   2.636  17.058  0.00  0.00    +0.000 A 
ATOM     16  N   UNL     1      49.270   2.512  17.019  0.00  0.00    +0.000 NA
ATOM     17  C   UNL     1      49.991   3.646  17.188  0.00  0.00    +0.000 A 
ENDBRANCH  11  12
ENDBRANCH   9  11
ENDBRANCH   8   9
ENDBRANCH   5   8
ENDBRANCH   1   2
BRANCH   1  20
ATOM     18  O   UNL     1      44.645   8.069  11.640  0.00  0.00    +0.000 OA
ATOM     19  C   UNL     1      45.529   7.256  11.372  0.00  0.00    +0.000 C 
ATOM     20  N   UNL     1      46.850   7.486  11.648  0.00  0.00    +0.000 N 
ATOM     21  H   UNL     1      47.549   6.812  11.352  0.00  0.00    +0.000 HD
BRANCH  19  22
ATOM     22  C   UNL     1      45.218   5.953  10.771  0.00  0.00    +0.000 A 
ATOM     23  C   UNL     1      45.640   5.669   9.480  0.00  0.00    +0.000 A 
ATOM     24  S   UNL     1      45.180   4.119   8.938  0.00  0.00    +0.000 S 
ATOM     25  C   UNL     1      44.436   3.757  10.426  0.00  0.00    +0.000 A 
ATOM     26  N   UNL     1      43.858   2.543  10.645  0.00  0.00    +0.000 NA
ATOM     27  C   UNL     1      43.365   2.391  11.827  0.00  0.00    +0.000 A 
ATOM     28  N   UNL     1      43.390   3.345  12.810  0.00  0.00    +0.000 N 
ATOM     29  C   UNL     1      43.900   4.604  12.615  0.00  0.00    +0.000 A 
ATOM     30  O   UNL     1      43.792   5.467  13.481  0.00  0.00    +0.000 OA
ATOM     31  C   UNL     1      44.511   4.815  11.314  0.00  0.00    +0.000 A 
ATOM     32  H   UNL     1      42.959   3.173  13.708  0.00  0.00    +0.000 HD
ENDBRANCH  19  22
ENDBRANCH   1  20
TORSDOF 7
ENDMDL
