MODEL 1
REMARK VINA RESULT:    -8.317      0.000      0.000
REMARK INTER + INTRA:         -11.076
REMARK INTER:                 -10.747
REMARK INTRA:                  -0.329
REMARK UNBOUND:                -0.329
REMARK  Name = 
REMARK  6 active torsions:
REMARK  status: ('A' for Active; 'I' for Inactive)
REMARK    1  A    between atoms: C_1  and  O_2
REMARK    2  A    between atoms: O_2  and  C_3
REMARK    3  A    between atoms: N_6  and  C_7
REMARK    4  A    between atoms: C_7  and  C_8
REMARK    5  A    between atoms: C_12  and  C_13
REMARK    6  A    between atoms: C_23  and  C_24
REMARK                            x       y       z     vdW  Elec       q    Type
REMARK                         _______ _______ _______ _____ _____    ______ ____
ROOT
ATOM      1  C   UNL     1      46.326   6.041  13.604  0.00  0.00    +0.000 A 
ATOM      2  N   UNL     1      45.202   6.174  12.853  0.00  0.00    +0.000 NA
ATOM      3  C   UNL     1      45.040   7.283  12.099  0.00  0.00    +0.000 A 
ATOM      4  N   UNL     1      43.929   7.412  11.268  0.00  0.00    +0.000 N 
ATOM      5  C   UNL     1      46.022   8.265  12.064  0.00  0.00    +0.000 A 
ATOM      6  C   UNL     1      47.185   8.109  12.820  0.00  0.00    +0.000 A 
ATOM      7  C   UNL     1      47.364   6.968  13.607  0.00  0.00    +0.000 A 
ATOM      8  H   UNL     1      43.584   8.362  11.200  0.00  0.00    +0.000 HD
ENDROOT
BRANCH   7   9
ATOM      9  C   UNL     1      48.628   6.850  14.380  0.00  0.00    +0.000 C 
ATOM     10  N   UNL     1      48.566   6.630  15.726  0.00  0.00    +0.000 N 
ATOM     11  O   UNL     1      49.722   6.946  13.828  0.00  0.00    +0.000 OA
ATOM     12  H   UNL     1      47.686   6.517  16.218  0.00  0.00    +0.000 HD
ATOM     13  H   UNL     1      49.431   6.529  16.238  0.00  0.00    +0.000 HD
ENDBRANCH   7   9
BRANCH   1  15
ATOM     14  C   UNL     1      46.705   3.729  13.618  0.00  0.00    +0.000 C 
ATOM     15  O   UNL     1      46.437   4.902  14.381  0.00  0.00    +0.000 OA
ENDBRANCH   1  15
BRANCH   4  16
ATOM     16  C   UNL     1      42.879   6.404  11.315  0.00  0.00    +0.000 C 
BRANCH  16  17
ATOM     17  C   UNL     1      43.375   4.991  11.090  0.00  0.00    +0.000 A 
ATOM     18  C   UNL     1      42.968   3.938  11.910  0.00  0.00    +0.000 A 
ATOM     19  C   UNL     1      43.369   2.649  11.586  0.00  0.00    +0.000 A 
ATOM     20  N   UNL     1      44.147   2.339  10.524  0.00  0.00    +0.000 NA
ATOM     21  C   UNL     1      44.567   3.356   9.737  0.00  0.00    +0.000 A 
ATOM     22  C   UNL     1      44.185   4.674   9.993  0.00  0.00    +0.000 A 
BRANCH  21  23
ATOM     23  C   UNL     1      45.432   2.993   8.603  0.00  0.00    +0.000 A 
ATOM     24  C   UNL     1      45.799   3.923   7.626  0.00  0.00    +0.000 A 
ATOM     25  N   UNL     1      46.609   3.665   6.561  0.00  0.00    +0.000 NA
ATOM     26  C   UNL     1      47.070   2.400   6.449  0.00  0.00    +0.000 A 
ATOM     27  C   UNL     1      46.761   1.401   7.351  0.00  0.00    +0.000 A 
ATOM     28  F   UNL     1      47.244   0.162   7.192  0.00  0.00    +0.000 F 
ATOM     29  C   UNL     1      45.941   1.694   8.432  0.00  0.00    +0.000 A 
ENDBRANCH  21  23
ENDBRANCH  16  17
ENDBRANCH   4  16
TORSDOF 5
ENDMDL
MODEL 2
REMARK VINA RESULT:    -8.039      1.929      2.584
REMARK INTER + INTRA:         -10.718
REMARK INTER:                  -9.717
REMARK INTRA:                  -1.001
REMARK UNBOUND:                -0.329
REMARK  Name = 
REMARK  6 active torsions:
REMARK  status: ('A' for Active; 'I' for Inactive)
REMARK    1  A    between atoms: C_1  and  O_2
REMARK    2  A    between atoms: O_2  and  C_3
REMARK    3  A    between atoms: N_6  and  C_7
REMARK    4  A    between atoms: C_7  and  C_8
REMARK    5  A    between atoms: C_12  and  C_13
REMARK    6  A    between atoms: C_23  and  C_24
REMARK                            x       y       z     vdW  Elec       q    Type
REMARK                         _______ _______ _______ _____ _____    ______ ____
ROOT
ATOM      1  C   UNL     1      47.893   8.358  12.546  0.00  0.00    +0.000 A 
ATOM      2  N   UNL     1      46.938   7.425  12.796  0.00  0.00    +0.000 NA
ATOM      3  C   UNL     1      45.636   7.764  12.664  0.00  0.00    +0.000 A 
ATOM      4  N   UNL     1      44.639   6.807  12.847  0.00  0.00    +0.000 N 
ATOM      5  C   UNL     1      45.275   9.039  12.249  0.00  0.00    +0.000 A 
ATOM      6  C   UNL     1      46.264   9.984  11.971  0.00  0.00    +0.000 A 
ATOM      7  C   UNL     1      47.614   9.648  12.106  0.00  0.00    +0.000 A 
ATOM      8  H   UNL     1      43.800   7.177  13.277  0.00  0.00    +0.000 HD
ENDROOT
BRANCH   7   9
ATOM      9  C   UNL     1      48.622  10.691  11.783  0.00  0.00    +0.000 C 
ATOM     10  N   UNL     1      49.546  11.036  12.728  0.00  0.00    +0.000 N 
ATOM     11  O   UNL     1      48.637  11.243  10.685  0.00  0.00    +0.000 OA
ATOM     12  H   UNL     1      49.589  10.588  13.636  0.00  0.00    +0.000 HD
ATOM     13  H   UNL     1      50.242  11.730  12.489  0.00  0.00    +0.000 HD
ENDBRANCH   7   9
BRANCH   1  15
ATOM     14  C   UNL     1      49.475   7.456  14.020  0.00  0.00    +0.000 C 
ATOM     15  O   UNL     1      49.211   7.976  12.719  0.00  0.00    +0.000 OA
ENDBRANCH   1  15
BRANCH   4  16
ATOM     16  C   UNL     1      45.002   5.474  13.310  0.00  0.00    +0.000 C 
BRANCH  16  17
ATOM     17  C   UNL     1      44.621   4.368  12.348  0.00  0.00    +0.000 A 
ATOM     18  C   UNL     1      43.531   3.532  12.596  0.00  0.00    +0.000 A 
ATOM     19  C   UNL     1      43.165   2.611  11.625  0.00  0.00    +0.000 A 
ATOM     20  N   UNL     1      43.806   2.454  10.445  0.00  0.00    +0.000 NA
ATOM     21  C   UNL     1      44.879   3.244  10.205  0.00  0.00    +0.000 A 
ATOM     22  C   UNL     1      45.290   4.205  11.129  0.00  0.00    +0.000 A 
BRANCH  21  23
ATOM     23  C   UNL     1      45.573   3.035   8.924  0.00  0.00    +0.000 A 
ATOM     24  C   UNL     1      45.807   4.085   8.032  0.00  0.00    +0.000 A 
ATOM     25  N   UNL     1      46.456   3.971   6.838  0.00  0.00    +0.000 NA
ATOM     26  C   UNL     1      46.885   2.736   6.503  0.00  0.00    +0.000 A 
ATOM     27  C   UNL     1      46.697   1.627   7.304  0.00  0.00    +0.000 A 
ATOM     28  F   UNL     1      47.141   0.423   6.923  0.00  0.00    +0.000 F 
ATOM     29  C   UNL     1      46.040   1.773   8.519  0.00  0.00    +0.000 A 
ENDBRANCH  21  23
ENDBRANCH  16  17
ENDBRANCH   4  16
TORSDOF 5
ENDMDL
MODEL 3
REMARK VINA RESULT:    -8.002      2.123      2.942
REMARK INTER + INTRA:         -10.670
REMARK INTER:                  -9.666
REMARK INTRA:                  -1.004
REMARK UNBOUND:                -0.329
REMARK  Name = 
REMARK  6 active torsions:
REMARK  status: ('A' for Active; 'I' for Inactive)
REMARK    1  A    between atoms: C_1  and  O_2
REMARK    2  A    between atoms: O_2  and  C_3
REMARK    3  A    between atoms: N_6  and  C_7
REMARK    4  A    between atoms: C_7  and  C_8
REMARK    5  A    between atoms: C_12  and  C_13
REMARK    6  A    between atoms: C_23  and  C_24
REMARK                            x       y       z     vdW  Elec       q    Type
REMARK                         _______ _______ _______ _____ _____    ______ ____
ROOT
ATOM      1  C   UNL     1      46.385   8.607  12.554  0.00  0.00    +0.000 A 
ATOM      2  N   UNL     1      46.131   7.324  12.919  0.00  0.00    +0.000 NA
ATOM      3  C   UNL     1      47.148   6.436  12.958  0.00  0.00    +0.000 A 
ATOM      4  N   UNL     1      46.927   5.131  13.395  0.00  0.00    +0.000 N 
ATOM      5  C   UNL     1      48.446   6.832  12.659  0.00  0.00    +0.000 A 
ATOM      6  C   UNL     1      48.702   8.159  12.309  0.00  0.00    +0.000 A 
ATOM      7  C   UNL     1      47.658   9.087  12.261  0.00  0.00    +0.000 A 
ATOM      8  H   UNL     1      47.484   4.442  12.906  0.00  0.00    +0.000 HD
ENDROOT
BRANCH   7   9
ATOM      9  C   UNL     1      47.993  10.488  11.895  0.00  0.00    +0.000 C 
ATOM     10  N   UNL     1      47.351  11.512  12.531  0.00  0.00    +0.000 N 
ATOM     11  O   UNL     1      48.833  10.736  11.034  0.00  0.00    +0.000 OA
ATOM     12  H   UNL     1      46.671  11.354  13.267  0.00  0.00    +0.000 HD
ATOM     13  H   UNL     1      47.603  12.461  12.290  0.00  0.00    +0.000 HD
ENDBRANCH   7   9
BRANCH   1  15
ATOM     14  C   UNL     1      44.430   9.209  11.413  0.00  0.00    +0.000 C 
ATOM     15  O   UNL     1      45.309   9.475  12.502  0.00  0.00    +0.000 OA
ENDBRANCH   1  15
BRANCH   4  16
ATOM     16  C   UNL     1      45.568   4.695  13.685  0.00  0.00    +0.000 C 
BRANCH  16  17
ATOM     17  C   UNL     1      44.924   3.909  12.562  0.00  0.00    +0.000 A 
ATOM     18  C   UNL     1      43.642   3.372  12.690  0.00  0.00    +0.000 A 
ATOM     19  C   UNL     1      43.064   2.759  11.588  0.00  0.00    +0.000 A 
ATOM     20  N   UNL     1      43.667   2.632  10.385  0.00  0.00    +0.000 NA
ATOM     21  C   UNL     1      44.920   3.128  10.257  0.00  0.00    +0.000 A 
ATOM     22  C   UNL     1      45.554   3.775  11.318  0.00  0.00    +0.000 A 
BRANCH  21  23
ATOM     23  C   UNL     1      45.562   2.954   8.944  0.00  0.00    +0.000 A 
ATOM     24  C   UNL     1      45.766   4.028   8.073  0.00  0.00    +0.000 A 
ATOM     25  N   UNL     1      46.367   3.947   6.853  0.00  0.00    +0.000 NA
ATOM     26  C   UNL     1      46.777   2.720   6.466  0.00  0.00    +0.000 A 
ATOM     27  C   UNL     1      46.615   1.589   7.242  0.00  0.00    +0.000 A 
ATOM     28  F   UNL     1      47.039   0.395   6.809  0.00  0.00    +0.000 F 
ATOM     29  C   UNL     1      46.008   1.702   8.485  0.00  0.00    +0.000 A 
ENDBRANCH  21  23
ENDBRANCH  16  17
ENDBRANCH   4  16
TORSDOF 5
ENDMDL
MODEL 4
REMARK VINA RESULT:    -7.825      2.360      4.416
REMARK INTER + INTRA:         -10.441
REMARK INTER:                  -9.669
REMARK INTRA:                  -0.772
REMARK UNBOUND:                -0.329
REMARK  Name = 
REMARK  6 active torsions:
REMARK  status: ('A' for Active; 'I' for Inactive)
REMARK    1  A    between atoms: C_1  and  O_2
REMARK    2  A    between atoms: O_2  and  C_3
REMARK    3  A    between atoms: N_6  and  C_7
REMARK    4  A    between atoms: C_7  and  C_8
REMARK    5  A    between atoms: C_12  and  C_13
REMARK    6  A    between atoms: C_23  and  C_24
REMARK                            x       y       z     vdW  Elec       q    Type
REMARK                         _______ _______ _______ _____ _____    ______ ____
ROOT
ATOM      1  C   UNL     1      47.978   4.619  15.519  0.00  0.00    +0.000 A 
ATOM      2  N   UNL     1      48.234   5.644  14.665  0.00  0.00    +0.000 NA
ATOM      3  C   UNL     1      48.577   6.850  15.167  0.00  0.00    +0.000 A 
ATOM      4  N   UNL     1      48.912   7.898  14.311  0.00  0.00    +0.000 N 
ATOM      5  C   UNL     1      48.699   7.038  16.538  0.00  0.00    +0.000 A 
ATOM      6  C   UNL     1      48.457   5.973  17.408  0.00  0.00    +0.000 A 
ATOM      7  C   UNL     1      48.097   4.721  16.902  0.00  0.00    +0.000 A 
ATOM      8  H   UNL     1      48.612   8.805  14.648  0.00  0.00    +0.000 HD
ENDROOT
BRANCH   7   9
ATOM      9  C   UNL     1      47.866   3.622  17.875  0.00  0.00    +0.000 C 
ATOM     10  N   UNL     1      46.786   2.803  17.708  0.00  0.00    +0.000 N 
ATOM     11  O   UNL     1      48.629   3.439  18.821  0.00  0.00    +0.000 OA
ATOM     12  H   UNL     1      46.147   2.900  16.927  0.00  0.00    +0.000 HD
ATOM     13  H   UNL     1      46.651   2.045  18.362  0.00  0.00    +0.000 HD
ENDBRANCH   7   9
BRANCH   1  15
ATOM     14  C   UNL     1      46.820   3.557  13.781  0.00  0.00    +0.000 C 
ATOM     15  O   UNL     1      47.603   3.410  14.963  0.00  0.00    +0.000 OA
ENDBRANCH   1  15
BRANCH   4  16
ATOM     16  C   UNL     1      48.762   7.724  12.873  0.00  0.00    +0.000 C 
BRANCH  16  17
ATOM     17  C   UNL     1      47.329   7.524  12.425  0.00  0.00    +0.000 A 
ATOM     18  C   UNL     1      46.345   8.477  12.689  0.00  0.00    +0.000 A 
ATOM     19  C   UNL     1      45.077   8.289  12.157  0.00  0.00    +0.000 A 
ATOM     20  N   UNL     1      44.720   7.227  11.401  0.00  0.00    +0.000 NA
ATOM     21  C   UNL     1      45.660   6.285  11.160  0.00  0.00    +0.000 A 
ATOM     22  C   UNL     1      46.961   6.420  11.647  0.00  0.00    +0.000 A 
BRANCH  21  23
ATOM     23  C   UNL     1      45.237   5.127  10.355  0.00  0.00    +0.000 A 
ATOM     24  C   UNL     1      44.376   4.150  10.863  0.00  0.00    +0.000 A 
ATOM     25  N   UNL     1      43.929   3.062  10.174  0.00  0.00    +0.000 NA
ATOM     26  C   UNL     1      44.376   2.929   8.907  0.00  0.00    +0.000 A 
ATOM     27  C   UNL     1      45.236   3.829   8.310  0.00  0.00    +0.000 A 
ATOM     28  F   UNL     1      45.650   3.648   7.049  0.00  0.00    +0.000 F 
ATOM     29  C   UNL     1      45.669   4.933   9.032  0.00  0.00    +0.000 A 
ENDBRANCH  21  23
ENDBRANCH  16  17
ENDBRANCH   4  16
TORSDOF 5
ENDMDL
MODEL 5
REMARK VINA RESULT:    -7.712      2.753      3.950
REMARK INTER + INTRA:         -10.295
REMARK INTER:                  -9.699
REMARK INTRA:                  -0.596
REMARK UNBOUND:                -0.329
REMARK  Name = 
REMARK  6 active torsions:
REMARK  status: ('A' for Active; 'I' for Inactive)
REMARK    1  A    between atoms: C_1  and  O_2
REMARK    2  A    between atoms: O_2  and  C_3
REMARK    3  A    between atoms: N_6  and  C_7
REMARK    4  A    between atoms: C_7  and  C_8
REMARK    5  A    between atoms: C_12  and  C_13
REMARK    6  A    between atoms: C_23  and  C_24
REMARK                            x       y       z     vdW  Elec       q    Type
REMARK                         _______ _______ _______ _____ _____    ______ ____
ROOT
ATOM      1  C   UNL     1      48.958   5.481  16.923  0.00  0.00    +0.000 A 
ATOM      2  N   UNL     1      48.003   5.359  15.966  0.00  0.00    +0.000 NA
ATOM      3  C   UNL     1      47.479   4.141  15.708  0.00  0.00    +0.000 A 
ATOM      4  N   UNL     1      46.450   3.999  14.780  0.00  0.00    +0.000 N 
ATOM      5  C   UNL     1      47.888   3.027  16.432  0.00  0.00    +0.000 A 
ATOM      6  C   UNL     1      48.853   3.166  17.431  0.00  0.00    +0.000 A 
ATOM      7  C   UNL     1      49.405   4.421  17.705  0.00  0.00    +0.000 A 
ATOM      8  H   UNL     1      46.499   3.138  14.250  0.00  0.00    +0.000 HD
ENDROOT
BRANCH   7   9
ATOM      9  C   UNL     1      50.418   4.510  18.788  0.00  0.00    +0.000 C 
ATOM     10  N   UNL     1      50.015   4.384  20.087  0.00  0.00    +0.000 N 
ATOM     11  O   UNL     1      51.606   4.694  18.534  0.00  0.00    +0.000 OA
ATOM     12  H   UNL     1      49.050   4.204  20.341  0.00  0.00    +0.000 HD
ATOM     13  H   UNL     1      50.715   4.424  20.815  0.00  0.00    +0.000 HD
ENDBRANCH   7   9
BRANCH   1  15
ATOM     14  C   UNL     1      50.344   7.172  16.081  0.00  0.00    +0.000 C 
ATOM     15  O   UNL     1      49.485   6.743  17.134  0.00  0.00    +0.000 OA
ENDBRANCH   1  15
BRANCH   4  16
ATOM     16  C   UNL     1      46.031   5.152  13.994  0.00  0.00    +0.000 C 
BRANCH  16  17
ATOM     17  C   UNL     1      45.147   4.802  12.815  0.00  0.00    +0.000 A 
ATOM     18  C   UNL     1      43.778   5.070  12.828  0.00  0.00    +0.000 A 
ATOM     19  C   UNL     1      43.041   4.829  11.676  0.00  0.00    +0.000 A 
ATOM     20  N   UNL     1      43.562   4.333  10.531  0.00  0.00    +0.000 NA
ATOM     21  C   UNL     1      44.885   4.048  10.516  0.00  0.00    +0.000 A 
ATOM     22  C   UNL     1      45.688   4.284  11.633  0.00  0.00    +0.000 A 
BRANCH  21  23
ATOM     23  C   UNL     1      45.420   3.486   9.265  0.00  0.00    +0.000 A 
ATOM     24  C   UNL     1      45.755   4.297   8.177  0.00  0.00    +0.000 A 
ATOM     25  N   UNL     1      46.270   3.852   6.996  0.00  0.00    +0.000 NA
ATOM     26  C   UNL     1      46.448   2.518   6.883  0.00  0.00    +0.000 A 
ATOM     27  C   UNL     1      46.140   1.626   7.891  0.00  0.00    +0.000 A 
ATOM     28  F   UNL     1      46.336   0.312   7.726  0.00  0.00    +0.000 F 
ATOM     29  C   UNL     1      45.625   2.108   9.087  0.00  0.00    +0.000 A 
ENDBRANCH  21  23
ENDBRANCH  16  17
ENDBRANCH   4  16
TORSDOF 5
ENDMDL
MODEL 6
REMARK VINA RESULT:    -7.268      4.355      7.216
REMARK INTER + INTRA:          -9.722
REMARK INTER:                  -8.780
REMARK INTRA:                  -0.942
REMARK UNBOUND:                -0.329
REMARK  Name = 
REMARK  6 active torsions:
REMARK  status: ('A' for Active; 'I' for Inactive)
REMARK    1  A    between atoms: C_1  and  O_2
REMARK    2  A    between atoms: O_2  and  C_3
REMARK    3  A    between atoms: N_6  and  C_7
REMARK    4  A    between atoms: C_7  and  C_8
REMARK    5  A    between atoms: C_12  and  C_13
REMARK    6  A    between atoms: C_23  and  C_24
REMARK                            x       y       z     vdW  Elec       q    Type
REMARK                         _______ _______ _______ _____ _____    ______ ____
ROOT
ATOM      1  C   UNL     1      50.589   2.849  17.267  0.00  0.00    +0.000 A 
ATOM      2  N   UNL     1      50.154   4.134  17.325  0.00  0.00    +0.000 NA
ATOM      3  C   UNL     1      50.958   5.079  17.859  0.00  0.00    +0.000 A 
ATOM      4  N   UNL     1      50.563   6.416  17.867  0.00  0.00    +0.000 N 
ATOM      5  C   UNL     1      52.228   4.752  18.317  0.00  0.00    +0.000 A 
ATOM      6  C   UNL     1      52.677   3.433  18.231  0.00  0.00    +0.000 A 
ATOM      7  C   UNL     1      51.854   2.445  17.684  0.00  0.00    +0.000 A 
ATOM      8  H   UNL     1      50.865   6.921  18.691  0.00  0.00    +0.000 HD
ENDROOT
BRANCH   7   9
ATOM      9  C   UNL     1      52.390   1.062  17.607  0.00  0.00    +0.000 C 
ATOM     10  N   UNL     1      51.675   0.039  18.162  0.00  0.00    +0.000 N 
ATOM     11  O   UNL     1      53.462   0.825  17.053  0.00  0.00    +0.000 OA
ATOM     12  H   UNL     1      50.774   0.184  18.604  0.00  0.00    +0.000 HD
ATOM     13  H   UNL     1      52.038  -0.901  18.084  0.00  0.00    +0.000 HD
ENDBRANCH   7   9
BRANCH   1  15
ATOM     14  C   UNL     1      48.401   2.411  16.555  0.00  0.00    +0.000 C 
ATOM     15  O   UNL     1      49.723   1.910  16.737  0.00  0.00    +0.000 OA
ENDBRANCH   1  15
BRANCH   4  16
ATOM     16  C   UNL     1      49.224   6.770  17.416  0.00  0.00    +0.000 C 
BRANCH  16  17
ATOM     17  C   UNL     1      49.078   6.816  15.909  0.00  0.00    +0.000 A 
ATOM     18  C   UNL     1      49.974   7.529  15.113  0.00  0.00    +0.000 A 
ATOM     19  C   UNL     1      49.854   7.442  13.733  0.00  0.00    +0.000 A 
ATOM     20  N   UNL     1      48.907   6.716  13.097  0.00  0.00    +0.000 NA
ATOM     21  C   UNL     1      48.018   6.040  13.860  0.00  0.00    +0.000 A 
ATOM     22  C   UNL     1      48.093   6.066  15.254  0.00  0.00    +0.000 A 
BRANCH  21  23
ATOM     23  C   UNL     1      46.984   5.277  13.142  0.00  0.00    +0.000 A 
ATOM     24  C   UNL     1      46.630   3.978  13.518  0.00  0.00    +0.000 A 
ATOM     25  N   UNL     1      45.673   3.219  12.913  0.00  0.00    +0.000 NA
ATOM     26  C   UNL     1      45.040   3.778  11.859  0.00  0.00    +0.000 A 
ATOM     27  C   UNL     1      45.319   5.049  11.397  0.00  0.00    +0.000 A 
ATOM     28  F   UNL     1      44.662   5.556  10.346  0.00  0.00    +0.000 F 
ATOM     29  C   UNL     1      46.293   5.804  12.038  0.00  0.00    +0.000 A 
ENDBRANCH  21  23
ENDBRANCH  16  17
ENDBRANCH   4  16
TORSDOF 5
ENDMDL
MODEL 7
REMARK VINA RESULT:    -7.047      5.166      8.496
REMARK INTER + INTRA:          -9.436
REMARK INTER:                  -8.723
REMARK INTRA:                  -0.713
REMARK UNBOUND:                -0.329
REMARK  Name = 
REMARK  6 active torsions:
REMARK  status: ('A' for Active; 'I' for Inactive)
REMARK    1  A    between atoms: C_1  and  O_2
REMARK    2  A    between atoms: O_2  and  C_3
REMARK    3  A    between atoms: N_6  and  C_7
REMARK    4  A    between atoms: C_7  and  C_8
REMARK    5  A    between atoms: C_12  and  C_13
REMARK    6  A    between atoms: C_23  and  C_24
REMARK                            x       y       z     vdW  Elec       q    Type
REMARK                         _______ _______ _______ _____ _____    ______ ____
ROOT
ATOM      1  C   UNL     1      45.542   4.080  12.078  0.00  0.00    +0.000 A 
ATOM      2  N   UNL     1      46.048   4.192  13.334  0.00  0.00    +0.000 NA
ATOM      3  C   UNL     1      46.752   5.297  13.664  0.00  0.00    +0.000 A 
ATOM      4  N   UNL     1      47.223   5.468  14.965  0.00  0.00    +0.000 N 
ATOM      5  C   UNL     1      46.934   6.323  12.745  0.00  0.00    +0.000 A 
ATOM      6  C   UNL     1      46.390   6.209  11.464  0.00  0.00    +0.000 A 
ATOM      7  C   UNL     1      45.662   5.071  11.108  0.00  0.00    +0.000 A 
ATOM      8  H   UNL     1      48.122   5.931  15.011  0.00  0.00    +0.000 HD
ENDROOT
BRANCH   7   9
ATOM      9  C   UNL     1      45.096   5.012   9.736  0.00  0.00    +0.000 C 
ATOM     10  N   UNL     1      43.745   4.881   9.580  0.00  0.00    +0.000 N 
ATOM     11  O   UNL     1      45.820   5.079   8.745  0.00  0.00    +0.000 OA
ATOM     12  H   UNL     1      43.108   4.850  10.368  0.00  0.00    +0.000 HD
ATOM     13  H   UNL     1      43.368   4.865   8.642  0.00  0.00    +0.000 HD
ENDBRANCH   7   9
BRANCH   1  15
ATOM     14  C   UNL     1      43.553   2.876  12.359  0.00  0.00    +0.000 C 
ATOM     15  O   UNL     1      44.852   2.921  11.775  0.00  0.00    +0.000 OA
ENDBRANCH   1  15
BRANCH   4  16
ATOM     16  C   UNL     1      47.064   4.389  15.931  0.00  0.00    +0.000 C 
BRANCH  16  17
ATOM     17  C   UNL     1      48.108   4.390  17.028  0.00  0.00    +0.000 A 
ATOM     18  C   UNL     1      47.880   5.023  18.250  0.00  0.00    +0.000 A 
ATOM     19  C   UNL     1      48.829   4.894  19.254  0.00  0.00    +0.000 A 
ATOM     20  N   UNL     1      49.982   4.199  19.126  0.00  0.00    +0.000 NA
ATOM     21  C   UNL     1      50.224   3.601  17.936  0.00  0.00    +0.000 A 
ATOM     22  C   UNL     1      49.303   3.673  16.890  0.00  0.00    +0.000 A 
BRANCH  21  23
ATOM     23  C   UNL     1      51.497   2.872  17.817  0.00  0.00    +0.000 A 
ATOM     24  C   UNL     1      51.544   1.523  17.454  0.00  0.00    +0.000 A 
ATOM     25  N   UNL     1      52.683   0.788  17.307  0.00  0.00    +0.000 NA
ATOM     26  C   UNL     1      53.846   1.429  17.550  0.00  0.00    +0.000 A 
ATOM     27  C   UNL     1      53.914   2.757  17.924  0.00  0.00    +0.000 A 
ATOM     28  F   UNL     1      55.095   3.344  18.155  0.00  0.00    +0.000 F 
ATOM     29  C   UNL     1      52.739   3.484  18.058  0.00  0.00    +0.000 A 
ENDBRANCH  21  23
ENDBRANCH  16  17
ENDBRANCH   4  16
TORSDOF 5
ENDMDL
MODEL 8
REMARK VINA RESULT:    -6.827      4.466      6.696
REMARK INTER + INTRA:          -9.151
REMARK INTER:                  -8.193
REMARK INTRA:                  -0.958
REMARK UNBOUND:                -0.329
REMARK  Name = 
REMARK  6 active torsions:
REMARK  status: ('A' for Active; 'I' for Inactive)
REMARK    1  A    between atoms: C_1  and  O_2
REMARK    2  A    between atoms: O_2  and  C_3
REMARK    3  A    between atoms: N_6  and  C_7
REMARK    4  A    between atoms: C_7  and  C_8
REMARK    5  A    between atoms: C_12  and  C_13
REMARK    6  A    between atoms: C_23  and  C_24
REMARK                            x       y       z     vdW  Elec       q    Type
REMARK                         _______ _______ _______ _____ _____    ______ ____
ROOT
ATOM      1  C   UNL     1      51.626   3.785  17.758  0.00  0.00    +0.000 A 
ATOM      2  N   UNL     1      50.341   4.063  17.420  0.00  0.00    +0.000 NA
ATOM      3  C   UNL     1      49.526   3.054  17.042  0.00  0.00    +0.000 A 
ATOM      4  N   UNL     1      48.185   3.303  16.756  0.00  0.00    +0.000 N 
ATOM      5  C   UNL     1      49.983   1.742  17.027  0.00  0.00    +0.000 A 
ATOM      6  C   UNL     1      51.299   1.463  17.400  0.00  0.00    +0.000 A 
ATOM      7  C   UNL     1      52.154   2.497  17.790  0.00  0.00    +0.000 A 
ATOM      8  H   UNL     1      47.819   2.730  16.006  0.00  0.00    +0.000 HD
ENDROOT
BRANCH   7   9
ATOM      9  C   UNL     1      53.539   2.138  18.189  0.00  0.00    +0.000 C 
ATOM     10  N   UNL     1      54.579   2.901  17.740  0.00  0.00    +0.000 N 
ATOM     11  O   UNL     1      53.761   1.170  18.913  0.00  0.00    +0.000 OA
ATOM     12  H   UNL     1      54.440   3.724  17.164  0.00  0.00    +0.000 HD
ATOM     13  H   UNL     1      55.515   2.661  18.036  0.00  0.00    +0.000 HD
ENDBRANCH   7   9
BRANCH   1  15
ATOM     14  C   UNL     1      51.699   5.961  18.624  0.00  0.00    +0.000 C 
ATOM     15  O   UNL     1      52.433   4.852  18.113  0.00  0.00    +0.000 OA
ENDBRANCH   1  15
BRANCH   4  16
ATOM     16  C   UNL     1      47.699   4.676  16.741  0.00  0.00    +0.000 C 
BRANCH  16  17
ATOM     17  C   UNL     1      47.553   5.259  15.350  0.00  0.00    +0.000 A 
ATOM     18  C   UNL     1      48.383   6.286  14.900  0.00  0.00    +0.000 A 
ATOM     19  C   UNL     1      48.274   6.700  13.581  0.00  0.00    +0.000 A 
ATOM     20  N   UNL     1      47.399   6.181  12.690  0.00  0.00    +0.000 NA
ATOM     21  C   UNL     1      46.572   5.201  13.123  0.00  0.00    +0.000 A 
ATOM     22  C   UNL     1      46.642   4.722  14.433  0.00  0.00    +0.000 A 
BRANCH  21  23
ATOM     23  C   UNL     1      45.613   4.671  12.141  0.00  0.00    +0.000 A 
ATOM     24  C   UNL     1      45.490   5.218  10.860  0.00  0.00    +0.000 A 
ATOM     25  N   UNL     1      44.639   4.771   9.894  0.00  0.00    +0.000 NA
ATOM     26  C   UNL     1      43.850   3.727  10.225  0.00  0.00    +0.000 A 
ATOM     27  C   UNL     1      43.882   3.118  11.464  0.00  0.00    +0.000 A 
ATOM     28  F   UNL     1      43.076   2.085  11.740  0.00  0.00    +0.000 F 
ATOM     29  C   UNL     1      44.765   3.588  12.427  0.00  0.00    +0.000 A 
ENDBRANCH  21  23
ENDBRANCH  16  17
ENDBRANCH   4  16
TORSDOF 5
ENDMDL
MODEL 9
REMARK VINA RESULT:    -6.646      4.479      8.417
REMARK INTER + INTRA:          -8.918
REMARK INTER:                  -8.014
REMARK INTRA:                  -0.904
REMARK UNBOUND:                -0.329
REMARK  Name = 
REMARK  6 active torsions:
REMARK  status: ('A' for Active; 'I' for Inactive)
REMARK    1  A    between atoms: C_1  and  O_2
REMARK    2  A    between atoms: O_2  and  C_3
REMARK    3  A    between atoms: N_6  and  C_7
REMARK    4  A    between atoms: C_7  and  C_8
REMARK    5  A    between atoms: C_12  and  C_13
REMARK    6  A    between atoms: C_23  and  C_24
REMARK                            x       y       z     vdW  Elec       q    Type
REMARK                         _______ _______ _______ _____ _____    ______ ____
ROOT
ATOM      1  C   UNL     1      46.240   4.746  13.242  0.00  0.00    +0.000 A 
ATOM      2  N   UNL     1      47.282   5.595  13.048  0.00  0.00    +0.000 NA
ATOM      3  C   UNL     1      47.141   6.626  12.186  0.00  0.00    +0.000 A 
ATOM      4  N   UNL     1      48.171   7.551  12.022  0.00  0.00    +0.000 N 
ATOM      5  C   UNL     1      45.938   6.837  11.526  0.00  0.00    +0.000 A 
ATOM      6  C   UNL     1      44.864   5.973  11.749  0.00  0.00    +0.000 A 
ATOM      7  C   UNL     1      44.997   4.901  12.636  0.00  0.00    +0.000 A 
ATOM      8  H   UNL     1      48.256   7.895  11.073  0.00  0.00    +0.000 HD
ENDROOT
BRANCH   7   9
ATOM      9  C   UNL     1      43.817   4.024  12.844  0.00  0.00    +0.000 C 
ATOM     10  N   UNL     1      43.927   2.688  12.580  0.00  0.00    +0.000 N 
ATOM     11  O   UNL     1      42.749   4.479  13.248  0.00  0.00    +0.000 OA
ATOM     12  H   UNL     1      44.795   2.265  12.272  0.00  0.00    +0.000 HD
ATOM     13  H   UNL     1      43.124   2.097  12.747  0.00  0.00    +0.000 HD
ENDBRANCH   7   9
BRANCH   1  15
ATOM     14  C   UNL     1      47.104   4.072  15.313  0.00  0.00    +0.000 C 
ATOM     15  O   UNL     1      46.438   3.689  14.112  0.00  0.00    +0.000 OA
ENDBRANCH   1  15
BRANCH   4  16
ATOM     16  C   UNL     1      49.448   7.326  12.686  0.00  0.00    +0.000 C 
BRANCH  16  17
ATOM     17  C   UNL     1      49.496   7.839  14.110  0.00  0.00    +0.000 A 
ATOM     18  C   UNL     1      49.660   9.195  14.390  0.00  0.00    +0.000 A 
ATOM     19  C   UNL     1      49.585   9.617  15.710  0.00  0.00    +0.000 A 
ATOM     20  N   UNL     1      49.372   8.792  16.760  0.00  0.00    +0.000 NA
ATOM     21  C   UNL     1      49.235   7.471  16.502  0.00  0.00    +0.000 A 
ATOM     22  C   UNL     1      49.281   6.981  15.196  0.00  0.00    +0.000 A 
BRANCH  21  23
ATOM     23  C   UNL     1      49.030   6.593  17.666  0.00  0.00    +0.000 A 
ATOM     24  C   UNL     1      49.768   5.419  17.844  0.00  0.00    +0.000 A 
ATOM     25  N   UNL     1      49.645   4.568  18.902  0.00  0.00    +0.000 NA
ATOM     26  C   UNL     1      48.722   4.895  19.832  0.00  0.00    +0.000 A 
ATOM     27  C   UNL     1      47.932   6.024  19.749  0.00  0.00    +0.000 A 
ATOM     28  F   UNL     1      47.030   6.301  20.699  0.00  0.00    +0.000 F 
ATOM     29  C   UNL     1      48.084   6.879  18.664  0.00  0.00    +0.000 A 
ENDBRANCH  21  23
ENDBRANCH  16  17
ENDBRANCH   4  16
TORSDOF 5
ENDMDL
