MODEL 1
REMARK VINA RESULT:    -8.682      0.000      0.000
REMARK INTER + INTRA:         -12.510
REMARK INTER:                 -11.727
REMARK INTRA:                  -0.783
REMARK UNBOUND:                -0.783
REMARK  Name = 
REMARK  6 active torsions:
REMARK  status: ('A' for Active; 'I' for Inactive)
REMARK    1  A    between atoms: C_2  and  C_25
REMARK    2  A    between atoms: N_3  and  C_4
REMARK    3  A    between atoms: C_4  and  C_5
REMARK    4  A    between atoms: C_8  and  C_9
REMARK    5  A    between atoms: C_9  and  N_10
REMARK    6  A    between atoms: C_11  and  C_13
REMARK                            x       y       z     vdW  Elec       q    Type
REMARK                         _______ _______ _______ _____ _____    ______ ____
ROOT
ATOM      1  C   UNL     1      44.530   5.687  11.403  0.00  0.00    +0.000 C 
ATOM      2  C   UNL     1      44.115   7.167  11.443  0.00  0.00    +0.000 C 
ATOM      3  C   UNL     1      44.919   7.967  12.468  0.00  0.00    +0.000 C 
ATOM      4  C   UNL     1      46.433   7.846  12.236  0.00  0.00    +0.000 C 
ATOM      5  C   UNL     1      46.845   6.366  12.204  0.00  0.00    +0.000 C 
ATOM      6  C   UNL     1      46.045   5.565  11.179  0.00  0.00    +0.000 C 
ENDROOT
BRANCH   1   7
ATOM      7  C   UNL     1      43.777   4.921  10.302  0.00  0.00    +0.000 C 
BRANCH   7  10
ATOM      8  O   UNL     1      44.365   2.178   9.867  0.00  0.00    +0.000 OA
ATOM      9  C   UNL     1      44.880   3.027   9.157  0.00  0.00    +0.000 C 
ATOM     10  N   UNL     1      44.662   4.383   9.288  0.00  0.00    +0.000 N 
ATOM     11  H   UNL     1      44.952   5.004   8.547  0.00  0.00    +0.000 HD
BRANCH   9  12
ATOM     12  C   UNL     1      45.775   2.629   8.049  0.00  0.00    +0.000 A 
ATOM     13  C   UNL     1      46.089   3.481   6.987  0.00  0.00    +0.000 A 
ATOM     14  C   UNL     1      46.935   3.028   5.978  0.00  0.00    +0.000 A 
ATOM     15  C   UNL     1      47.441   1.741   6.070  0.00  0.00    +0.000 A 
ATOM     16  N   UNL     1      47.169   0.898   7.091  0.00  0.00    +0.000 NA
ATOM     17  C   UNL     1      46.350   1.366   8.067  0.00  0.00    +0.000 A 
ENDBRANCH   9  12
ENDBRANCH   7  10
ENDBRANCH   1   7
BRANCH   4  18
ATOM     18  C   UNL     1      47.244   8.587  13.316  0.00  0.00    +0.000 C 
BRANCH  18  19
ATOM     19  N   UNL     1      47.510   7.778  14.486  0.00  0.00    +0.000 N 
ATOM     20  C   UNL     1      48.763   7.309  14.794  0.00  0.00    +0.000 C 
ATOM     21  O   UNL     1      49.745   7.557  14.099  0.00  0.00    +0.000 OA
ATOM     22  H   UNL     1      46.708   7.419  14.993  0.00  0.00    +0.000 HD
BRANCH  20  23
ATOM     23  C   UNL     1      48.887   6.547  16.043  0.00  0.00    +0.000 A 
ATOM     24  C   UNL     1      49.719   7.016  17.051  0.00  0.00    +0.000 A 
ATOM     25  S   UNL     1      49.715   6.043  18.451  0.00  0.00    +0.000 S 
ATOM     26  C   UNL     1      48.640   4.931  17.741  0.00  0.00    +0.000 A 
ATOM     27  N   UNL     1      48.237   3.820  18.412  0.00  0.00    +0.000 NA
ATOM     28  C   UNL     1      47.454   3.045  17.743  0.00  0.00    +0.000 A 
ATOM     29  N   UNL     1      47.030   3.279  16.462  0.00  0.00    +0.000 N 
ATOM     30  C   UNL     1      47.374   4.415  15.759  0.00  0.00    +0.000 A 
ATOM     31  O   UNL     1      46.912   4.636  14.642  0.00  0.00    +0.000 OA
ATOM     32  C   UNL     1      48.275   5.306  16.460  0.00  0.00    +0.000 A 
ATOM     33  H   UNL     1      46.401   2.642  15.998  0.00  0.00    +0.000 HD
ENDBRANCH  20  23
ENDBRANCH  18  19
ENDBRANCH   4  18
TORSDOF 6
ENDMDL
MODEL 2
REMARK VINA RESULT:    -8.418      2.125      2.632
REMARK INTER + INTRA:         -12.154
REMARK INTER:                 -11.149
REMARK INTRA:                  -1.005
REMARK UNBOUND:                -0.783
REMARK  Name = 
REMARK  6 active torsions:
REMARK  status: ('A' for Active; 'I' for Inactive)
REMARK    1  A    between atoms: C_2  and  C_25
REMARK    2  A    between atoms: N_3  and  C_4
REMARK    3  A    between atoms: C_4  and  C_5
REMARK    4  A    between atoms: C_8  and  C_9
REMARK    5  A    between atoms: C_9  and  N_10
REMARK    6  A    between atoms: C_11  and  C_13
REMARK                            x       y       z     vdW  Elec       q    Type
REMARK                         _______ _______ _______ _____ _____    ______ ____
ROOT
ATOM      1  C   UNL     1      44.676   4.500  12.347  0.00  0.00    +0.000 C 
ATOM      2  C   UNL     1      44.938   5.842  11.643  0.00  0.00    +0.000 C 
ATOM      3  C   UNL     1      45.786   6.787  12.495  0.00  0.00    +0.000 C 
ATOM      4  C   UNL     1      47.113   6.143  12.924  0.00  0.00    +0.000 C 
ATOM      5  C   UNL     1      46.846   4.807  13.633  0.00  0.00    +0.000 C 
ATOM      6  C   UNL     1      46.002   3.859  12.784  0.00  0.00    +0.000 C 
ENDROOT
BRANCH   1   7
ATOM      7  C   UNL     1      43.903   3.530  11.438  0.00  0.00    +0.000 C 
BRANCH   7  10
ATOM      8  O   UNL     1      44.091   4.305   8.713  0.00  0.00    +0.000 OA
ATOM      9  C   UNL     1      44.765   3.374   9.125  0.00  0.00    +0.000 C 
ATOM     10  N   UNL     1      44.744   2.919  10.428  0.00  0.00    +0.000 N 
ATOM     11  H   UNL     1      45.468   2.291  10.743  0.00  0.00    +0.000 HD
BRANCH   9  12
ATOM     12  C   UNL     1      45.704   2.677   8.220  0.00  0.00    +0.000 A 
ATOM     13  C   UNL     1      46.343   3.317   7.154  0.00  0.00    +0.000 A 
ATOM     14  C   UNL     1      47.209   2.589   6.343  0.00  0.00    +0.000 A 
ATOM     15  C   UNL     1      47.409   1.248   6.630  0.00  0.00    +0.000 A 
ATOM     16  N   UNL     1      46.820   0.603   7.661  0.00  0.00    +0.000 NA
ATOM     17  C   UNL     1      45.987   1.337   8.443  0.00  0.00    +0.000 A 
ENDBRANCH   9  12
ENDBRANCH   7  10
ENDBRANCH   1   7
BRANCH   4  18
ATOM     18  C   UNL     1      47.931   7.067  13.847  0.00  0.00    +0.000 C 
BRANCH  18  19
ATOM     19  N   UNL     1      47.895   6.663  15.236  0.00  0.00    +0.000 N 
ATOM     20  C   UNL     1      49.031   6.428  15.970  0.00  0.00    +0.000 C 
ATOM     21  O   UNL     1      50.157   6.557  15.495  0.00  0.00    +0.000 OA
ATOM     22  H   UNL     1      46.994   6.390  15.616  0.00  0.00    +0.000 HD
BRANCH  20  23
ATOM     23  C   UNL     1      48.836   6.078  17.383  0.00  0.00    +0.000 A 
ATOM     24  C   UNL     1      49.130   4.792  17.815  0.00  0.00    +0.000 A 
ATOM     25  S   UNL     1      48.894   4.560  19.488  0.00  0.00    +0.000 S 
ATOM     26  C   UNL     1      48.340   6.158  19.686  0.00  0.00    +0.000 A 
ATOM     27  N   UNL     1      47.941   6.616  20.901  0.00  0.00    +0.000 NA
ATOM     28  C   UNL     1      47.509   7.830  20.901  0.00  0.00    +0.000 A 
ATOM     29  N   UNL     1      47.444   8.636  19.795  0.00  0.00    +0.000 N 
ATOM     30  C   UNL     1      47.881   8.231  18.551  0.00  0.00    +0.000 A 
ATOM     31  O   UNL     1      47.886   9.005  17.596  0.00  0.00    +0.000 OA
ATOM     32  C   UNL     1      48.352   6.863  18.495  0.00  0.00    +0.000 A 
ATOM     33  H   UNL     1      47.113   9.586  19.863  0.00  0.00    +0.000 HD
ENDBRANCH  20  23
ENDBRANCH  18  19
ENDBRANCH   4  18
TORSDOF 6
ENDMDL
MODEL 3
REMARK VINA RESULT:    -8.371      1.680      2.027
REMARK INTER + INTRA:         -12.090
REMARK INTER:                 -11.350
REMARK INTRA:                  -0.740
REMARK UNBOUND:                -0.783
REMARK  Name = 
REMARK  6 active torsions:
REMARK  status: ('A' for Active; 'I' for Inactive)
REMARK    1  A    between atoms: C_2  and  C_25
REMARK    2  A    between atoms: N_3  and  C_4
REMARK    3  A    between atoms: C_4  and  C_5
REMARK    4  A    between atoms: C_8  and  C_9
REMARK    5  A    between atoms: C_9  and  N_10
REMARK    6  A    between atoms: C_11  and  C_13
REMARK                            x       y       z     vdW  Elec       q    Type
REMARK                         _______ _______ _______ _____ _____    ______ ____
ROOT
ATOM      1  C   UNL     1      45.030   4.683  12.387  0.00  0.00    +0.000 C 
ATOM      2  C   UNL     1      45.500   5.782  11.421  0.00  0.00    +0.000 C 
ATOM      3  C   UNL     1      46.331   6.855  12.124  0.00  0.00    +0.000 C 
ATOM      4  C   UNL     1      47.532   6.256  12.872  0.00  0.00    +0.000 C 
ATOM      5  C   UNL     1      47.058   5.162  13.842  0.00  0.00    +0.000 C 
ATOM      6  C   UNL     1      46.229   4.088  13.141  0.00  0.00    +0.000 C 
ENDROOT
BRANCH   1   7
ATOM      7  C   UNL     1      44.276   3.566  11.644  0.00  0.00    +0.000 C 
BRANCH   7  10
ATOM      8  O   UNL     1      43.942   4.128   8.881  0.00  0.00    +0.000 OA
ATOM      9  C   UNL     1      44.805   3.342   9.239  0.00  0.00    +0.000 C 
ATOM     10  N   UNL     1      45.045   3.000  10.554  0.00  0.00    +0.000 N 
ATOM     11  H   UNL     1      45.897   2.512  10.789  0.00  0.00    +0.000 HD
BRANCH   9  12
ATOM     12  C   UNL     1      45.700   2.715   8.242  0.00  0.00    +0.000 A 
ATOM     13  C   UNL     1      46.243   3.419   7.164  0.00  0.00    +0.000 A 
ATOM     14  C   UNL     1      47.072   2.755   6.265  0.00  0.00    +0.000 A 
ATOM     15  C   UNL     1      47.332   1.410   6.478  0.00  0.00    +0.000 A 
ATOM     16  N   UNL     1      46.834   0.704   7.518  0.00  0.00    +0.000 NA
ATOM     17  C   UNL     1      46.037   1.377   8.386  0.00  0.00    +0.000 A 
ENDBRANCH   9  12
ENDBRANCH   7  10
ENDBRANCH   1   7
BRANCH   4  18
ATOM     18  C   UNL     1      48.324   7.328  13.645  0.00  0.00    +0.000 C 
BRANCH  18  19
ATOM     19  N   UNL     1      48.153   7.239  15.080  0.00  0.00    +0.000 N 
ATOM     20  C   UNL     1      49.184   6.934  15.932  0.00  0.00    +0.000 C 
ATOM     21  O   UNL     1      50.327   6.727  15.532  0.00  0.00    +0.000 OA
ATOM     22  H   UNL     1      47.202   7.244  15.434  0.00  0.00    +0.000 HD
BRANCH  20  23
ATOM     23  C   UNL     1      48.869   6.936  17.367  0.00  0.00    +0.000 A 
ATOM     24  C   UNL     1      48.519   8.127  17.989  0.00  0.00    +0.000 A 
ATOM     25  S   UNL     1      48.138   7.951  19.642  0.00  0.00    +0.000 S 
ATOM     26  C   UNL     1      48.478   6.283  19.598  0.00  0.00    +0.000 A 
ATOM     27  N   UNL     1      48.374   5.518  20.715  0.00  0.00    +0.000 NA
ATOM     28  C   UNL     1      48.698   4.281  20.550  0.00  0.00    +0.000 A 
ATOM     29  N   UNL     1      49.113   3.735  19.365  0.00  0.00    +0.000 N 
ATOM     30  C   UNL     1      49.190   4.461  18.195  0.00  0.00    +0.000 A 
ATOM     31  O   UNL     1      49.487   3.923  17.130  0.00  0.00    +0.000 OA
ATOM     32  C   UNL     1      48.860   5.864  18.335  0.00  0.00    +0.000 A 
ATOM     33  H   UNL     1      49.336   2.753  19.294  0.00  0.00    +0.000 HD
ENDBRANCH  20  23
ENDBRANCH  18  19
ENDBRANCH   4  18
TORSDOF 6
ENDMDL
MODEL 4
REMARK VINA RESULT:    -7.869      1.852      2.485
REMARK INTER + INTRA:         -11.413
REMARK INTER:                 -10.557
REMARK INTRA:                  -0.855
REMARK UNBOUND:                -0.783
REMARK  Name = 
REMARK  6 active torsions:
REMARK  status: ('A' for Active; 'I' for Inactive)
REMARK    1  A    between atoms: C_2  and  C_25
REMARK    2  A    between atoms: N_3  and  C_4
REMARK    3  A    between atoms: C_4  and  C_5
REMARK    4  A    between atoms: C_8  and  C_9
REMARK    5  A    between atoms: C_9  and  N_10
REMARK    6  A    between atoms: C_11  and  C_13
REMARK                            x       y       z     vdW  Elec       q    Type
REMARK                         _______ _______ _______ _____ _____    ______ ____
ROOT
ATOM      1  C   UNL     1      44.527   5.475  11.718  0.00  0.00    +0.000 C 
ATOM      2  C   UNL     1      45.154   6.741  11.112  0.00  0.00    +0.000 C 
ATOM      3  C   UNL     1      45.951   7.543  12.140  0.00  0.00    +0.000 C 
ATOM      4  C   UNL     1      47.031   6.690  12.825  0.00  0.00    +0.000 C 
ATOM      5  C   UNL     1      46.399   5.430  13.437  0.00  0.00    +0.000 C 
ATOM      6  C   UNL     1      45.603   4.626  12.411  0.00  0.00    +0.000 C 
ENDROOT
BRANCH   1   7
ATOM      7  C   UNL     1      43.809   4.635  10.649  0.00  0.00    +0.000 C 
BRANCH   7  10
ATOM      8  O   UNL     1      44.325   1.959   9.850  0.00  0.00    +0.000 OA
ATOM      9  C   UNL     1      44.875   2.881   9.268  0.00  0.00    +0.000 C 
ATOM     10  N   UNL     1      44.694   4.213   9.581  0.00  0.00    +0.000 N 
ATOM     11  H   UNL     1      45.012   4.920   8.934  0.00  0.00    +0.000 HD
BRANCH   9  12
ATOM     12  C   UNL     1      45.775   2.610   8.126  0.00  0.00    +0.000 A 
ATOM     13  C   UNL     1      46.048   3.558   7.137  0.00  0.00    +0.000 A 
ATOM     14  C   UNL     1      46.902   3.223   6.089  0.00  0.00    +0.000 A 
ATOM     15  C   UNL     1      47.456   1.953   6.072  0.00  0.00    +0.000 A 
ATOM     16  N   UNL     1      47.225   1.018   7.021  0.00  0.00    +0.000 NA
ATOM     17  C   UNL     1      46.397   1.373   8.037  0.00  0.00    +0.000 A 
ENDBRANCH   9  12
ENDBRANCH   7  10
ENDBRANCH   1   7
BRANCH   4  18
ATOM     18  C   UNL     1      47.780   7.478  13.917  0.00  0.00    +0.000 C 
BRANCH  18  19
ATOM     19  N   UNL     1      48.348   6.630  14.944  0.00  0.00    +0.000 N 
ATOM     20  C   UNL     1      48.735   7.109  16.171  0.00  0.00    +0.000 C 
ATOM     21  O   UNL     1      48.613   8.291  16.482  0.00  0.00    +0.000 OA
ATOM     22  H   UNL     1      48.613   5.689  14.673  0.00  0.00    +0.000 HD
BRANCH  20  23
ATOM     23  C   UNL     1      49.243   6.117  17.129  0.00  0.00    +0.000 A 
ATOM     24  C   UNL     1      48.355   5.473  17.980  0.00  0.00    +0.000 A 
ATOM     25  S   UNL     1      49.095   4.320  18.996  0.00  0.00    +0.000 S 
ATOM     26  C   UNL     1      50.637   4.679  18.370  0.00  0.00    +0.000 A 
ATOM     27  N   UNL     1      51.746   4.049  18.836  0.00  0.00    +0.000 NA
ATOM     28  C   UNL     1      52.851   4.443  18.302  0.00  0.00    +0.000 A 
ATOM     29  N   UNL     1      52.951   5.410  17.337  0.00  0.00    +0.000 N 
ATOM     30  C   UNL     1      51.850   6.043  16.800  0.00  0.00    +0.000 A 
ATOM     31  O   UNL     1      51.966   6.847  15.877  0.00  0.00    +0.000 OA
ATOM     32  C   UNL     1      50.585   5.652  17.387  0.00  0.00    +0.000 A 
ATOM     33  H   UNL     1      53.845   5.662  16.945  0.00  0.00    +0.000 HD
ENDBRANCH  20  23
ENDBRANCH  18  19
ENDBRANCH   4  18
TORSDOF 6
ENDMDL
MODEL 5
REMARK VINA RESULT:    -7.329      2.957      4.454
REMARK INTER + INTRA:         -10.684
REMARK INTER:                  -9.912
REMARK INTRA:                  -0.772
REMARK UNBOUND:                -0.783
REMARK  Name = 
REMARK  6 active torsions:
REMARK  status: ('A' for Active; 'I' for Inactive)
REMARK    1  A    between atoms: C_2  and  C_25
REMARK    2  A    between atoms: N_3  and  C_4
REMARK    3  A    between atoms: C_4  and  C_5
REMARK    4  A    between atoms: C_8  and  C_9
REMARK    5  A    between atoms: C_9  and  N_10
REMARK    6  A    between atoms: C_11  and  C_13
REMARK                            x       y       z     vdW  Elec       q    Type
REMARK                         _______ _______ _______ _____ _____    ______ ____
ROOT
ATOM      1  C   UNL     1      44.384   5.109  11.704  0.00  0.00    +0.000 C 
ATOM      2  C   UNL     1      45.211   6.354  11.346  0.00  0.00    +0.000 C 
ATOM      3  C   UNL     1      46.072   6.834  12.515  0.00  0.00    +0.000 C 
ATOM      4  C   UNL     1      46.988   5.723  13.050  0.00  0.00    +0.000 C 
ATOM      5  C   UNL     1      46.156   4.483  13.414  0.00  0.00    +0.000 C 
ATOM      6  C   UNL     1      45.297   4.000  12.247  0.00  0.00    +0.000 C 
ENDROOT
BRANCH   1   7
ATOM      7  C   UNL     1      43.598   4.588  10.489  0.00  0.00    +0.000 C 
BRANCH   7  10
ATOM      8  O   UNL     1      45.456   5.146   8.415  0.00  0.00    +0.000 OA
ATOM      9  C   UNL     1      45.227   3.988   8.727  0.00  0.00    +0.000 C 
ATOM     10  N   UNL     1      44.342   3.612   9.717  0.00  0.00    +0.000 N 
ATOM     11  H   UNL     1      44.358   2.662  10.059  0.00  0.00    +0.000 HD
BRANCH   9  12
ATOM     12  C   UNL     1      45.943   2.881   8.057  0.00  0.00    +0.000 A 
ATOM     13  C   UNL     1      46.766   3.077   6.944  0.00  0.00    +0.000 A 
ATOM     14  C   UNL     1      47.400   1.981   6.365  0.00  0.00    +0.000 A 
ATOM     15  C   UNL     1      47.194   0.730   6.923  0.00  0.00    +0.000 A 
ATOM     16  N   UNL     1      46.418   0.508   8.008  0.00  0.00    +0.000 NA
ATOM     17  C   UNL     1      45.818   1.594   8.560  0.00  0.00    +0.000 A 
ENDBRANCH   9  12
ENDBRANCH   7  10
ENDBRANCH   1   7
BRANCH   4  18
ATOM     18  C   UNL     1      47.797   6.184  14.278  0.00  0.00    +0.000 C 
BRANCH  18  19
ATOM     19  N   UNL     1      49.036   6.846  13.929  0.00  0.00    +0.000 N 
ATOM     20  C   UNL     1      49.729   7.635  14.813  0.00  0.00    +0.000 C 
ATOM     21  O   UNL     1      49.347   7.822  15.965  0.00  0.00    +0.000 OA
ATOM     22  H   UNL     1      49.299   6.849  12.950  0.00  0.00    +0.000 HD
BRANCH  20  23
ATOM     23  C   UNL     1      50.999   8.195  14.332  0.00  0.00    +0.000 A 
ATOM     24  C   UNL     1      52.101   8.215  15.176  0.00  0.00    +0.000 A 
ATOM     25  S   UNL     1      53.507   8.853  14.452  0.00  0.00    +0.000 S 
ATOM     26  C   UNL     1      52.679   9.174  13.000  0.00  0.00    +0.000 A 
ATOM     27  N   UNL     1      53.311   9.757  11.948  0.00  0.00    +0.000 NA
ATOM     28  C   UNL     1      52.557   9.977  10.926  0.00  0.00    +0.000 A 
ATOM     29  N   UNL     1      51.226   9.664  10.855  0.00  0.00    +0.000 N 
ATOM     30  C   UNL     1      50.554   9.030  11.878  0.00  0.00    +0.000 A 
ATOM     31  O   UNL     1      49.380   8.688  11.753  0.00  0.00    +0.000 OA
ATOM     32  C   UNL     1      51.353   8.783  13.061  0.00  0.00    +0.000 A 
ATOM     33  H   UNL     1      50.693   9.846  10.018  0.00  0.00    +0.000 HD
ENDBRANCH  20  23
ENDBRANCH  18  19
ENDBRANCH   4  18
TORSDOF 6
ENDMDL
MODEL 6
REMARK VINA RESULT:    -7.258      2.621      3.991
REMARK INTER + INTRA:         -10.588
REMARK INTER:                  -9.694
REMARK INTRA:                  -0.893
REMARK UNBOUND:                -0.783
REMARK  Name = 
REMARK  6 active torsions:
REMARK  status: ('A' for Active; 'I' for Inactive)
REMARK    1  A    between atoms: C_2  and  C_25
REMARK    2  A    between atoms: N_3  and  C_4
REMARK    3  A    between atoms: C_4  and  C_5
REMARK    4  A    between atoms: C_8  and  C_9
REMARK    5  A    between atoms: C_9  and  N_10
REMARK    6  A    between atoms: C_11  and  C_13
REMARK                            x       y       z     vdW  Elec       q    Type
REMARK                         _______ _______ _______ _____ _____    ______ ____
ROOT
ATOM      1  C   UNL     1      44.498   5.128  11.688  0.00  0.00    +0.000 C 
ATOM      2  C   UNL     1      45.449   6.336  11.680  0.00  0.00    +0.000 C 
ATOM      3  C   UNL     1      46.172   6.513  13.015  0.00  0.00    +0.000 C 
ATOM      4  C   UNL     1      46.928   5.243  13.435  0.00  0.00    +0.000 C 
ATOM      5  C   UNL     1      45.972   4.040  13.449  0.00  0.00    +0.000 C 
ATOM      6  C   UNL     1      45.250   3.859  12.116  0.00  0.00    +0.000 C 
ENDROOT
BRANCH   1   7
ATOM      7  C   UNL     1      43.852   4.912  10.309  0.00  0.00    +0.000 C 
BRANCH   7  10
ATOM      8  O   UNL     1      45.916   5.276   8.395  0.00  0.00    +0.000 OA
ATOM      9  C   UNL     1      45.505   4.152   8.634  0.00  0.00    +0.000 C 
ATOM     10  N   UNL     1      44.505   3.869   9.542  0.00  0.00    +0.000 N 
ATOM     11  H   UNL     1      44.362   2.915   9.838  0.00  0.00    +0.000 HD
BRANCH   9  12
ATOM     12  C   UNL     1      46.105   2.980   7.960  0.00  0.00    +0.000 A 
ATOM     13  C   UNL     1      46.877   3.088   6.799  0.00  0.00    +0.000 A 
ATOM     14  C   UNL     1      47.401   1.936   6.221  0.00  0.00    +0.000 A 
ATOM     15  C   UNL     1      47.140   0.717   6.826  0.00  0.00    +0.000 A 
ATOM     16  N   UNL     1      46.410   0.579   7.956  0.00  0.00    +0.000 NA
ATOM     17  C   UNL     1      45.918   1.718   8.506  0.00  0.00    +0.000 A 
ENDBRANCH   9  12
ENDBRANCH   7  10
ENDBRANCH   1   7
BRANCH   4  18
ATOM     18  C   UNL     1      47.591   5.396  14.818  0.00  0.00    +0.000 C 
BRANCH  18  19
ATOM     19  N   UNL     1      47.979   6.758  15.116  0.00  0.00    +0.000 N 
ATOM     20  C   UNL     1      48.719   7.093  16.223  0.00  0.00    +0.000 C 
ATOM     21  O   UNL     1      49.109   6.253  17.030  0.00  0.00    +0.000 OA
ATOM     22  H   UNL     1      47.545   7.495  14.569  0.00  0.00    +0.000 HD
BRANCH  20  23
ATOM     23  C   UNL     1      49.083   8.509  16.362  0.00  0.00    +0.000 A 
ATOM     24  C   UNL     1      48.222   9.374  17.025  0.00  0.00    +0.000 A 
ATOM     25  S   UNL     1      48.811  10.971  17.141  0.00  0.00    +0.000 S 
ATOM     26  C   UNL     1      50.215  10.574  16.264  0.00  0.00    +0.000 A 
ATOM     27  N   UNL     1      51.153  11.515  15.981  0.00  0.00    +0.000 NA
ATOM     28  C   UNL     1      52.146  11.088  15.278  0.00  0.00    +0.000 A 
ATOM     29  N   UNL     1      52.291   9.801  14.834  0.00  0.00    +0.000 N 
ATOM     30  C   UNL     1      51.390   8.801  15.136  0.00  0.00    +0.000 A 
ATOM     31  O   UNL     1      51.590   7.639  14.792  0.00  0.00    +0.000 OA
ATOM     32  C   UNL     1      50.242   9.238  15.903  0.00  0.00    +0.000 A 
ATOM     33  H   UNL     1      53.102   9.523  14.302  0.00  0.00    +0.000 HD
ENDBRANCH  20  23
ENDBRANCH  18  19
ENDBRANCH   4  18
TORSDOF 6
ENDMDL
MODEL 7
REMARK VINA RESULT:    -6.984      3.417      8.635
REMARK INTER + INTRA:         -10.217
REMARK INTER:                  -9.282
REMARK INTRA:                  -0.936
REMARK UNBOUND:                -0.783
REMARK  Name = 
REMARK  6 active torsions:
REMARK  status: ('A' for Active; 'I' for Inactive)
REMARK    1  A    between atoms: C_2  and  C_25
REMARK    2  A    between atoms: N_3  and  C_4
REMARK    3  A    between atoms: C_4  and  C_5
REMARK    4  A    between atoms: C_8  and  C_9
REMARK    5  A    between atoms: C_9  and  N_10
REMARK    6  A    between atoms: C_11  and  C_13
REMARK                            x       y       z     vdW  Elec       q    Type
REMARK                         _______ _______ _______ _____ _____    ______ ____
ROOT
ATOM      1  C   UNL     1      50.140   7.006  15.125  0.00  0.00    +0.000 C 
ATOM      2  C   UNL     1      50.282   8.340  14.374  0.00  0.00    +0.000 C 
ATOM      3  C   UNL     1      49.502   8.351  13.059  0.00  0.00    +0.000 C 
ATOM      4  C   UNL     1      48.018   8.012  13.266  0.00  0.00    +0.000 C 
ATOM      5  C   UNL     1      47.881   6.674  14.010  0.00  0.00    +0.000 C 
ATOM      6  C   UNL     1      48.657   6.662  15.325  0.00  0.00    +0.000 C 
ENDROOT
BRANCH   1   7
ATOM      7  C   UNL     1      50.854   7.049  16.487  0.00  0.00    +0.000 C 
BRANCH   7  10
ATOM      8  O   UNL     1      49.760   4.907  17.997  0.00  0.00    +0.000 OA
ATOM      9  C   UNL     1      50.894   4.817  17.553  0.00  0.00    +0.000 C 
ATOM     10  N   UNL     1      51.516   5.801  16.812  0.00  0.00    +0.000 N 
ATOM     11  H   UNL     1      52.362   5.578  16.308  0.00  0.00    +0.000 HD
BRANCH   9  12
ATOM     12  C   UNL     1      51.681   3.583  17.766  0.00  0.00    +0.000 A 
ATOM     13  C   UNL     1      52.947   3.587  18.358  0.00  0.00    +0.000 A 
ATOM     14  C   UNL     1      53.628   2.383  18.517  0.00  0.00    +0.000 A 
ATOM     15  C   UNL     1      53.016   1.218  18.083  0.00  0.00    +0.000 A 
ATOM     16  N   UNL     1      51.787   1.178  17.520  0.00  0.00    +0.000 NA
ATOM     17  C   UNL     1      51.139   2.363  17.385  0.00  0.00    +0.000 A 
ENDBRANCH   9  12
ENDBRANCH   7  10
ENDBRANCH   1   7
BRANCH   4  18
ATOM     18  C   UNL     1      47.250   7.945  11.932  0.00  0.00    +0.000 C 
BRANCH  18  19
ATOM     19  N   UNL     1      46.595   6.673  11.713  0.00  0.00    +0.000 N 
ATOM     20  C   UNL     1      45.232   6.548  11.611  0.00  0.00    +0.000 C 
ATOM     21  O   UNL     1      44.477   7.514  11.688  0.00  0.00    +0.000 OA
ATOM     22  H   UNL     1      47.164   5.837  11.805  0.00  0.00    +0.000 HD
BRANCH  20  23
ATOM     23  C   UNL     1      44.718   5.200  11.334  0.00  0.00    +0.000 A 
ATOM     24  C   UNL     1      43.941   4.555  12.288  0.00  0.00    +0.000 A 
ATOM     25  S   UNL     1      43.385   3.021  11.794  0.00  0.00    +0.000 S 
ATOM     26  C   UNL     1      44.206   3.141  10.308  0.00  0.00    +0.000 A 
ATOM     27  N   UNL     1      44.166   2.129   9.402  0.00  0.00    +0.000 NA
ATOM     28  C   UNL     1      44.863   2.336   8.338  0.00  0.00    +0.000 A 
ATOM     29  N   UNL     1      45.596   3.466   8.091  0.00  0.00    +0.000 N 
ATOM     30  C   UNL     1      45.629   4.537   8.958  0.00  0.00    +0.000 A 
ATOM     31  O   UNL     1      46.229   5.571   8.671  0.00  0.00    +0.000 OA
ATOM     32  C   UNL     1      44.881   4.343  10.183  0.00  0.00    +0.000 A 
ATOM     33  H   UNL     1      46.106   3.576   7.228  0.00  0.00    +0.000 HD
ENDBRANCH  20  23
ENDBRANCH  18  19
ENDBRANCH   4  18
TORSDOF 6
ENDMDL
MODEL 8
REMARK VINA RESULT:    -6.834      5.018      7.520
REMARK INTER + INTRA:         -10.014
REMARK INTER:                  -9.144
REMARK INTRA:                  -0.870
REMARK UNBOUND:                -0.783
REMARK  Name = 
REMARK  6 active torsions:
REMARK  status: ('A' for Active; 'I' for Inactive)
REMARK    1  A    between atoms: C_2  and  C_25
REMARK    2  A    between atoms: N_3  and  C_4
REMARK    3  A    between atoms: C_4  and  C_5
REMARK    4  A    between atoms: C_8  and  C_9
REMARK    5  A    between atoms: C_9  and  N_10
REMARK    6  A    between atoms: C_11  and  C_13
REMARK                            x       y       z     vdW  Elec       q    Type
REMARK                         _______ _______ _______ _____ _____    ______ ____
ROOT
ATOM      1  C   UNL     1      50.720   9.044  11.786  0.00  0.00    +0.000 C 
ATOM      2  C   UNL     1      50.148   7.677  11.380  0.00  0.00    +0.000 C 
ATOM      3  C   UNL     1      48.897   7.311  12.179  0.00  0.00    +0.000 C 
ATOM      4  C   UNL     1      47.811   8.394  12.077  0.00  0.00    +0.000 C 
ATOM      5  C   UNL     1      48.385   9.757  12.491  0.00  0.00    +0.000 C 
ATOM      6  C   UNL     1      49.634  10.126  11.693  0.00  0.00    +0.000 C 
ENDROOT
BRANCH   1   7
ATOM      7  C   UNL     1      51.921   9.435  10.907  0.00  0.00    +0.000 C 
BRANCH   7  10
ATOM      8  O   UNL     1      53.444   9.724   8.529  0.00  0.00    +0.000 OA
ATOM      9  C   UNL     1      53.080   8.614   8.882  0.00  0.00    +0.000 C 
ATOM     10  N   UNL     1      52.335   8.368  10.018  0.00  0.00    +0.000 N 
ATOM     11  H   UNL     1      52.248   7.421  10.356  0.00  0.00    +0.000 HD
BRANCH   9  12
ATOM     12  C   UNL     1      53.462   7.419   8.099  0.00  0.00    +0.000 A 
ATOM     13  C   UNL     1      54.792   7.031   7.911  0.00  0.00    +0.000 A 
ATOM     14  C   UNL     1      55.070   5.897   7.154  0.00  0.00    +0.000 A 
ATOM     15  C   UNL     1      54.008   5.188   6.615  0.00  0.00    +0.000 A 
ATOM     16  N   UNL     1      52.711   5.527   6.789  0.00  0.00    +0.000 NA
ATOM     17  C   UNL     1      52.465   6.631   7.540  0.00  0.00    +0.000 A 
ENDBRANCH   9  12
ENDBRANCH   7  10
ENDBRANCH   1   7
BRANCH   4  18
ATOM     18  C   UNL     1      46.583   8.062  12.946  0.00  0.00    +0.000 C 
BRANCH  18  19
ATOM     19  N   UNL     1      46.016   6.761  12.660  0.00  0.00    +0.000 N 
ATOM     20  C   UNL     1      45.004   6.577  11.751  0.00  0.00    +0.000 C 
ATOM     21  O   UNL     1      44.519   7.507  11.111  0.00  0.00    +0.000 OA
ATOM     22  H   UNL     1      46.273   5.998  13.277  0.00  0.00    +0.000 HD
BRANCH  20  23
ATOM     23  C   UNL     1      44.571   5.191  11.528  0.00  0.00    +0.000 A 
ATOM     24  C   UNL     1      43.851   4.532  12.515  0.00  0.00    +0.000 A 
ATOM     25  S   UNL     1      43.384   2.950  12.083  0.00  0.00    +0.000 S 
ATOM     26  C   UNL     1      44.173   3.071  10.579  0.00  0.00    +0.000 A 
ATOM     27  N   UNL     1      44.181   2.028   9.708  0.00  0.00    +0.000 NA
ATOM     28  C   UNL     1      44.847   2.241   8.624  0.00  0.00    +0.000 A 
ATOM     29  N   UNL     1      45.504   3.406   8.328  0.00  0.00    +0.000 N 
ATOM     30  C   UNL     1      45.484   4.506   9.159  0.00  0.00    +0.000 A 
ATOM     31  O   UNL     1      46.013   5.564   8.827  0.00  0.00    +0.000 OA
ATOM     32  C   UNL     1      44.769   4.307  10.402  0.00  0.00    +0.000 A 
ATOM     33  H   UNL     1      45.993   3.518   7.453  0.00  0.00    +0.000 HD
ENDBRANCH  20  23
ENDBRANCH  18  19
ENDBRANCH   4  18
TORSDOF 6
ENDMDL
MODEL 9
REMARK VINA RESULT:    -6.830      2.492      3.487
REMARK INTER + INTRA:         -10.009
REMARK INTER:                  -9.297
REMARK INTRA:                  -0.711
REMARK UNBOUND:                -0.783
REMARK  Name = 
REMARK  6 active torsions:
REMARK  status: ('A' for Active; 'I' for Inactive)
REMARK    1  A    between atoms: C_2  and  C_25
REMARK    2  A    between atoms: N_3  and  C_4
REMARK    3  A    between atoms: C_4  and  C_5
REMARK    4  A    between atoms: C_8  and  C_9
REMARK    5  A    between atoms: C_9  and  N_10
REMARK    6  A    between atoms: C_11  and  C_13
REMARK                            x       y       z     vdW  Elec       q    Type
REMARK                         _______ _______ _______ _____ _____    ______ ____
ROOT
ATOM      1  C   UNL     1      45.449   6.204  11.179  0.00  0.00    +0.000 C 
ATOM      2  C   UNL     1      46.243   5.450  12.257  0.00  0.00    +0.000 C 
ATOM      3  C   UNL     1      47.298   6.332  12.924  0.00  0.00    +0.000 C 
ATOM      4  C   UNL     1      46.690   7.615  13.511  0.00  0.00    +0.000 C 
ATOM      5  C   UNL     1      45.904   8.370  12.427  0.00  0.00    +0.000 C 
ATOM      6  C   UNL     1      44.847   7.491  11.761  0.00  0.00    +0.000 C 
ENDROOT
BRANCH   1   7
ATOM      7  C   UNL     1      44.332   5.328  10.586  0.00  0.00    +0.000 C 
BRANCH   7  10
ATOM      8  O   UNL     1      46.130   5.392   8.389  0.00  0.00    +0.000 OA
ATOM      9  C   UNL     1      45.720   4.319   8.805  0.00  0.00    +0.000 C 
ATOM     10  N   UNL     1      44.844   4.181   9.862  0.00  0.00    +0.000 N 
ATOM     11  H   UNL     1      44.713   3.271  10.279  0.00  0.00    +0.000 HD
BRANCH   9  12
ATOM     12  C   UNL     1      46.188   3.056   8.194  0.00  0.00    +0.000 A 
ATOM     13  C   UNL     1      47.060   3.022   7.102  0.00  0.00    +0.000 A 
ATOM     14  C   UNL     1      47.448   1.791   6.579  0.00  0.00    +0.000 A 
ATOM     15  C   UNL     1      46.955   0.639   7.170  0.00  0.00    +0.000 A 
ATOM     16  N   UNL     1      46.122   0.637   8.236  0.00  0.00    +0.000 NA
ATOM     17  C   UNL     1      45.766   1.849   8.733  0.00  0.00    +0.000 A 
ENDBRANCH   9  12
ENDBRANCH   7  10
ENDBRANCH   1   7
BRANCH   4  18
ATOM     18  C   UNL     1      47.765   8.541  14.112  0.00  0.00    +0.000 C 
BRANCH  18  19
ATOM     19  N   UNL     1      48.895   7.822  14.660  0.00  0.00    +0.000 N 
ATOM     20  C   UNL     1      49.170   7.784  16.004  0.00  0.00    +0.000 C 
ATOM     21  O   UNL     1      48.465   8.352  16.834  0.00  0.00    +0.000 OA
ATOM     22  H   UNL     1      49.588   7.478  14.002  0.00  0.00    +0.000 HD
BRANCH  20  23
ATOM     23  C   UNL     1      50.321   6.967  16.413  0.00  0.00    +0.000 A 
ATOM     24  C   UNL     1      50.144   5.960  17.352  0.00  0.00    +0.000 A 
ATOM     25  S   UNL     1      51.564   5.075  17.683  0.00  0.00    +0.000 S 
ATOM     26  C   UNL     1      52.478   6.042  16.621  0.00  0.00    +0.000 A 
ATOM     27  N   UNL     1      53.809   5.830  16.452  0.00  0.00    +0.000 NA
ATOM     28  C   UNL     1      54.386   6.658  15.650  0.00  0.00    +0.000 A 
ATOM     29  N   UNL     1      53.752   7.680  14.994  0.00  0.00    +0.000 N 
ATOM     30  C   UNL     1      52.395   7.905  15.098  0.00  0.00    +0.000 A 
ATOM     31  O   UNL     1      51.842   8.778  14.434  0.00  0.00    +0.000 OA
ATOM     32  C   UNL     1      51.707   7.015  16.009  0.00  0.00    +0.000 A 
ATOM     33  H   UNL     1      54.256   8.284  14.363  0.00  0.00    +0.000 HD
ENDBRANCH  20  23
ENDBRANCH  18  19
ENDBRANCH   4  18
TORSDOF 6
ENDMDL
