MODEL 1
REMARK VINA RESULT:    -7.101      0.000      0.000
REMARK INTER + INTRA:         -11.245
REMARK INTER:                 -10.421
REMARK INTRA:                  -0.824
REMARK UNBOUND:                -0.824
REMARK  Name = 
REMARK  9 active torsions:
REMARK  status: ('A' for Active; 'I' for Inactive)
REMARK    1  A    between atoms: N_1  and  C_2
REMARK    2  A    between atoms: C_2  and  C_3
REMARK    3  A    between atoms: C_3  and  N_4
REMARK    4  A    between atoms: N_4  and  C_5
REMARK    5  A    between atoms: C_5  and  C_6
REMARK    6  A    between atoms: C_5  and  C_20
REMARK    7  A    between atoms: C_9  and  C_10
REMARK    8  A    between atoms: C_10  and  N_11
REMARK    9  A    between atoms: C_14  and  O_15
REMARK                            x       y       z     vdW  Elec       q    Type
REMARK                         _______ _______ _______ _____ _____    ______ ____
ROOT
ATOM      1  C   UNL     1      45.305   6.867  11.382  0.00  0.00    +0.000 C 
ENDROOT
BRANCH   1   2
ATOM      2  C   UNL     1      44.909   5.406  11.447  0.00  0.00    +0.000 A 
ATOM      3  C   UNL     1      44.248   4.794  12.505  0.00  0.00    +0.000 A 
ATOM      4  S   UNL     1      43.660   3.234  12.132  0.00  0.00    +0.000 S 
ATOM      5  C   UNL     1      44.266   3.324  10.547  0.00  0.00    +0.000 A 
ATOM      6  N   UNL     1      44.001   2.355   9.634  0.00  0.00    +0.000 NA
ATOM      7  C   UNL     1      44.503   2.577   8.463  0.00  0.00    +0.000 A 
ATOM      8  N   UNL     1      45.287   3.658   8.140  0.00  0.00    +0.000 N 
ATOM      9  C   UNL     1      45.623   4.644   9.041  0.00  0.00    +0.000 A 
ATOM     10  O   UNL     1      46.367   5.562   8.743  0.00  0.00    +0.000 OA
ATOM     11  C   UNL     1      44.991   4.482  10.340  0.00  0.00    +0.000 A 
ATOM     12  H   UNL     1      45.686   3.752   7.218  0.00  0.00    +0.000 HD
ENDBRANCH   1   2
BRANCH   1  13
ATOM     13  C   UNL     1      46.544   7.106  12.217  0.00  0.00    +0.000 A 
ATOM     14  C   UNL     1      46.499   8.065  13.238  0.00  0.00    +0.000 A 
ATOM     15  C   UNL     1      47.468   8.080  14.238  0.00  0.00    +0.000 A 
ATOM     16  C   UNL     1      48.502   7.150  14.190  0.00  0.00    +0.000 A 
ATOM     17  N   UNL     1      48.647   6.297  13.142  0.00  0.00    +0.000 NA
ATOM     18  C   UNL     1      47.671   6.292  12.192  0.00  0.00    +0.000 A 
BRANCH  16  19
ATOM     19  C   UNL     1      49.453   7.013  15.382  0.00  0.00    +0.000 C 
BRANCH  19  20
ATOM     20  N   UNL     1      49.222   5.898  16.330  0.00  0.00    +0.000 NA
ATOM     21  C   UNL     1      48.060   5.089  15.956  0.00  0.00    +0.000 C 
ATOM     22  C   UNL     1      47.696   4.011  16.972  0.00  0.00    +0.000 C 
ATOM     23  C   UNL     1      47.593   4.581  18.380  0.00  0.00    +0.000 C 
ATOM     24  C   UNL     1      48.881   5.310  18.740  0.00  0.00    +0.000 C 
ATOM     25  C   UNL     1      49.234   6.384  17.710  0.00  0.00    +0.000 C 
BRANCH  23  26
ATOM     26  O   UNL     1      46.453   5.432  18.498  0.00  0.00    +0.000 OA
ATOM     27  H   UNL     1      45.882   5.102  19.215  0.00  0.00    +0.000 HD
ENDBRANCH  23  26
ENDBRANCH  19  20
ENDBRANCH  16  19
ENDBRANCH   1  13
BRANCH   1  28
ATOM     28  N   UNL     1      44.131   7.663  11.793  0.00  0.00    +0.000 NA
ATOM     29  H   UNL     1      43.333   7.023  11.753  0.00  0.00    +0.000 HD
BRANCH  28  30
ATOM     30  C   UNL     1      43.797   8.778  10.898  0.00  0.00    +0.000 C 
BRANCH  30  31
ATOM     31  C   UNL     1      44.120  10.179  11.454  0.00  0.00    +0.000 C 
BRANCH  31  32
ATOM     32  N   UNL     1      42.975  10.763  12.162  0.00  0.00    +0.000 NA
ATOM     33  H   UNL     1      42.425  11.310  11.499  0.00  0.00    +0.000 HD
ATOM     34  H   UNL     1      43.320  11.434  12.850  0.00  0.00    +0.000 HD
ENDBRANCH  31  32
ENDBRANCH  30  31
ENDBRANCH  28  30
ENDBRANCH   1  28
TORSDOF 9
ENDMDL
MODEL 2
REMARK VINA RESULT:    -6.822      3.434      8.197
REMARK INTER + INTRA:         -10.836
REMARK INTER:                 -10.637
REMARK INTRA:                  -0.199
REMARK UNBOUND:                -0.824
REMARK  Name = 
REMARK  9 active torsions:
REMARK  status: ('A' for Active; 'I' for Inactive)
REMARK    1  A    between atoms: N_1  and  C_2
REMARK    2  A    between atoms: C_2  and  C_3
REMARK    3  A    between atoms: C_3  and  N_4
REMARK    4  A    between atoms: N_4  and  C_5
REMARK    5  A    between atoms: C_5  and  C_6
REMARK    6  A    between atoms: C_5  and  C_20
REMARK    7  A    between atoms: C_9  and  C_10
REMARK    8  A    between atoms: C_10  and  N_11
REMARK    9  A    between atoms: C_14  and  O_15
REMARK                            x       y       z     vdW  Elec       q    Type
REMARK                         _______ _______ _______ _____ _____    ______ ____
ROOT
ATOM      1  C   UNL     1      48.352   4.916  17.169  0.00  0.00    +0.000 C 
ENDROOT
BRANCH   1   2
ATOM      2  C   UNL     1      49.842   4.741  17.377  0.00  0.00    +0.000 A 
ATOM      3  C   UNL     1      50.713   5.717  17.845  0.00  0.00    +0.000 A 
ATOM      4  S   UNL     1      52.250   5.110  18.277  0.00  0.00    +0.000 S 
ATOM      5  C   UNL     1      51.804   3.525  17.855  0.00  0.00    +0.000 A 
ATOM      6  N   UNL     1      52.627   2.472  18.095  0.00  0.00    +0.000 NA
ATOM      7  C   UNL     1      52.139   1.326  17.749  0.00  0.00    +0.000 A 
ATOM      8  N   UNL     1      50.921   1.147  17.139  0.00  0.00    +0.000 N 
ATOM      9  C   UNL     1      50.070   2.185  16.832  0.00  0.00    +0.000 A 
ATOM     10  O   UNL     1      49.020   2.003  16.239  0.00  0.00    +0.000 OA
ATOM     11  C   UNL     1      50.540   3.478  17.300  0.00  0.00    +0.000 A 
ATOM     12  H   UNL     1      50.614   0.229  16.852  0.00  0.00    +0.000 HD
ENDBRANCH   1   2
BRANCH   1  13
ATOM     13  C   UNL     1      48.060   5.190  15.709  0.00  0.00    +0.000 A 
ATOM     14  C   UNL     1      47.158   4.359  15.031  0.00  0.00    +0.000 A 
ATOM     15  C   UNL     1      46.598   4.761  13.821  0.00  0.00    +0.000 A 
ATOM     16  C   UNL     1      46.973   5.987  13.278  0.00  0.00    +0.000 A 
ATOM     17  N   UNL     1      47.943   6.751  13.844  0.00  0.00    +0.000 NA
ATOM     18  C   UNL     1      48.456   6.342  15.038  0.00  0.00    +0.000 A 
BRANCH  16  19
ATOM     19  C   UNL     1      46.220   6.540  12.066  0.00  0.00    +0.000 C 
BRANCH  19  20
ATOM     20  N   UNL     1      44.970   5.857  11.655  0.00  0.00    +0.000 NA
ATOM     21  C   UNL     1      44.082   5.604  12.792  0.00  0.00    +0.000 C 
ATOM     22  C   UNL     1      42.843   4.783  12.446  0.00  0.00    +0.000 C 
ATOM     23  C   UNL     1      43.206   3.516  11.685  0.00  0.00    +0.000 C 
ATOM     24  C   UNL     1      44.033   3.869  10.455  0.00  0.00    +0.000 C 
ATOM     25  C   UNL     1      45.268   4.695  10.818  0.00  0.00    +0.000 C 
BRANCH  23  26
ATOM     26  O   UNL     1      43.889   2.594  12.534  0.00  0.00    +0.000 OA
ATOM     27  H   UNL     1      44.850   2.724  12.437  0.00  0.00    +0.000 HD
ENDBRANCH  23  26
ENDBRANCH  19  20
ENDBRANCH  16  19
ENDBRANCH   1  13
BRANCH   1  28
ATOM     28  N   UNL     1      47.897   5.977  18.090  0.00  0.00    +0.000 NA
ATOM     29  H   UNL     1      48.748   6.435  18.429  0.00  0.00    +0.000 HD
BRANCH  28  30
ATOM     30  C   UNL     1      47.196   5.497  19.288  0.00  0.00    +0.000 C 
BRANCH  30  31
ATOM     31  C   UNL     1      48.082   5.323  20.536  0.00  0.00    +0.000 C 
BRANCH  31  32
ATOM     32  N   UNL     1      48.477   3.924  20.734  0.00  0.00    +0.000 NA
ATOM     33  H   UNL     1      48.971   3.847  21.624  0.00  0.00    +0.000 HD
ATOM     34  H   UNL     1      49.161   3.669  20.020  0.00  0.00    +0.000 HD
ENDBRANCH  31  32
ENDBRANCH  30  31
ENDBRANCH  28  30
ENDBRANCH   1  28
TORSDOF 9
ENDMDL
MODEL 3
REMARK VINA RESULT:    -6.453      3.758      8.399
REMARK INTER + INTRA:         -10.295
REMARK INTER:                  -9.718
REMARK INTRA:                  -0.577
REMARK UNBOUND:                -0.824
REMARK  Name = 
REMARK  9 active torsions:
REMARK  status: ('A' for Active; 'I' for Inactive)
REMARK    1  A    between atoms: N_1  and  C_2
REMARK    2  A    between atoms: C_2  and  C_3
REMARK    3  A    between atoms: C_3  and  N_4
REMARK    4  A    between atoms: N_4  and  C_5
REMARK    5  A    between atoms: C_5  and  C_6
REMARK    6  A    between atoms: C_5  and  C_20
REMARK    7  A    between atoms: C_9  and  C_10
REMARK    8  A    between atoms: C_10  and  N_11
REMARK    9  A    between atoms: C_14  and  O_15
REMARK                            x       y       z     vdW  Elec       q    Type
REMARK                         _______ _______ _______ _____ _____    ______ ____
ROOT
ATOM      1  C   UNL     1      49.124   4.357  18.020  0.00  0.00    +0.000 C 
ENDROOT
BRANCH   1   2
ATOM      2  C   UNL     1      50.631   4.208  18.079  0.00  0.00    +0.000 A 
ATOM      3  C   UNL     1      51.515   5.144  18.602  0.00  0.00    +0.000 A 
ATOM      4  S   UNL     1      53.098   4.540  18.821  0.00  0.00    +0.000 S 
ATOM      5  C   UNL     1      52.656   3.010  18.229  0.00  0.00    +0.000 A 
ATOM      6  N   UNL     1      53.521   1.964  18.258  0.00  0.00    +0.000 NA
ATOM      7  C   UNL     1      53.032   0.857  17.803  0.00  0.00    +0.000 A 
ATOM      8  N   UNL     1      51.771   0.717  17.276  0.00  0.00    +0.000 N 
ATOM      9  C   UNL     1      50.872   1.756  17.181  0.00  0.00    +0.000 A 
ATOM     10  O   UNL     1      49.781   1.616  16.657  0.00  0.00    +0.000 OA
ATOM     11  C   UNL     1      51.350   2.991  17.778  0.00  0.00    +0.000 A 
ATOM     12  H   UNL     1      51.463  -0.166  16.895  0.00  0.00    +0.000 HD
ENDBRANCH   1   2
BRANCH   1  13
ATOM     13  C   UNL     1      48.691   4.685  16.607  0.00  0.00    +0.000 A 
ATOM     14  C   UNL     1      47.676   3.921  16.015  0.00  0.00    +0.000 A 
ATOM     15  C   UNL     1      47.012   4.386  14.882  0.00  0.00    +0.000 A 
ATOM     16  C   UNL     1      47.393   5.604  14.327  0.00  0.00    +0.000 A 
ATOM     17  N   UNL     1      48.460   6.300  14.799  0.00  0.00    +0.000 NA
ATOM     18  C   UNL     1      49.075   5.832  15.920  0.00  0.00    +0.000 A 
BRANCH  16  19
ATOM     19  C   UNL     1      46.544   6.228  13.217  0.00  0.00    +0.000 C 
BRANCH  19  20
ATOM     20  N   UNL     1      45.543   5.369  12.542  0.00  0.00    +0.000 NA
ATOM     21  C   UNL     1      45.606   5.493  11.083  0.00  0.00    +0.000 C 
ATOM     22  C   UNL     1      44.509   4.733  10.344  0.00  0.00    +0.000 C 
ATOM     23  C   UNL     1      43.131   5.053  10.906  0.00  0.00    +0.000 C 
ATOM     24  C   UNL     1      43.110   4.792  12.407  0.00  0.00    +0.000 C 
ATOM     25  C   UNL     1      44.219   5.557  13.133  0.00  0.00    +0.000 C 
BRANCH  23  26
ATOM     26  O   UNL     1      42.758   6.396  10.598  0.00  0.00    +0.000 OA
ATOM     27  H   UNL     1      43.494   6.992  10.828  0.00  0.00    +0.000 HD
ENDBRANCH  23  26
ENDBRANCH  19  20
ENDBRANCH  16  19
ENDBRANCH   1  13
BRANCH   1  28
ATOM     28  N   UNL     1      48.738   5.367  19.024  0.00  0.00    +0.000 NA
ATOM     29  H   UNL     1      48.717   4.874  19.922  0.00  0.00    +0.000 HD
BRANCH  28  30
ATOM     30  C   UNL     1      47.394   5.932  18.846  0.00  0.00    +0.000 C 
BRANCH  30  31
ATOM     31  C   UNL     1      47.262   7.424  19.210  0.00  0.00    +0.000 C 
BRANCH  31  32
ATOM     32  N   UNL     1      47.544   8.293  18.062  0.00  0.00    +0.000 NA
ATOM     33  H   UNL     1      46.886   9.074  18.073  0.00  0.00    +0.000 HD
ATOM     34  H   UNL     1      47.343   7.780  17.202  0.00  0.00    +0.000 HD
ENDBRANCH  31  32
ENDBRANCH  30  31
ENDBRANCH  28  30
ENDBRANCH   1  28
TORSDOF 9
ENDMDL
MODEL 4
REMARK VINA RESULT:    -6.346      3.298      8.627
REMARK INTER + INTRA:         -10.138
REMARK INTER:                  -9.276
REMARK INTRA:                  -0.862
REMARK UNBOUND:                -0.824
REMARK  Name = 
REMARK  9 active torsions:
REMARK  status: ('A' for Active; 'I' for Inactive)
REMARK    1  A    between atoms: N_1  and  C_2
REMARK    2  A    between atoms: C_2  and  C_3
REMARK    3  A    between atoms: C_3  and  N_4
REMARK    4  A    between atoms: N_4  and  C_5
REMARK    5  A    between atoms: C_5  and  C_6
REMARK    6  A    between atoms: C_5  and  C_20
REMARK    7  A    between atoms: C_9  and  C_10
REMARK    8  A    between atoms: C_10  and  N_11
REMARK    9  A    between atoms: C_14  and  O_15
REMARK                            x       y       z     vdW  Elec       q    Type
REMARK                         _______ _______ _______ _____ _____    ______ ____
ROOT
ATOM      1  C   UNL     1      49.029   5.881  17.158  0.00  0.00    +0.000 C 
ENDROOT
BRANCH   1   2
ATOM      2  C   UNL     1      50.532   5.790  16.989  0.00  0.00    +0.000 A 
ATOM      3  C   UNL     1      51.369   6.837  16.623  0.00  0.00    +0.000 A 
ATOM      4  S   UNL     1      53.028   6.494  16.844  0.00  0.00    +0.000 S 
ATOM      5  C   UNL     1      52.685   4.939  17.436  0.00  0.00    +0.000 A 
ATOM      6  N   UNL     1      53.664   4.140  17.932  0.00  0.00    +0.000 NA
ATOM      7  C   UNL     1      53.246   3.000  18.375  0.00  0.00    +0.000 A 
ATOM      8  N   UNL     1      51.942   2.569  18.319  0.00  0.00    +0.000 N 
ATOM      9  C   UNL     1      50.921   3.321  17.784  0.00  0.00    +0.000 A 
ATOM     10  O   UNL     1      49.784   2.891  17.696  0.00  0.00    +0.000 OA
ATOM     11  C   UNL     1      51.335   4.651  17.371  0.00  0.00    +0.000 A 
ATOM     12  H   UNL     1      51.686   1.647  18.642  0.00  0.00    +0.000 HD
ENDBRANCH   1   2
BRANCH   1  13
ATOM     13  C   UNL     1      48.341   5.578  15.844  0.00  0.00    +0.000 A 
ATOM     14  C   UNL     1      47.535   4.436  15.748  0.00  0.00    +0.000 A 
ATOM     15  C   UNL     1      46.623   4.300  14.705  0.00  0.00    +0.000 A 
ATOM     16  C   UNL     1      46.547   5.299  13.739  0.00  0.00    +0.000 A 
ATOM     17  N   UNL     1      47.407   6.350  13.730  0.00  0.00    +0.000 NA
ATOM     18  C   UNL     1      48.273   6.468  14.776  0.00  0.00    +0.000 A 
BRANCH  16  19
ATOM     19  C   UNL     1      45.416   5.271  12.708  0.00  0.00    +0.000 C 
BRANCH  19  20
ATOM     20  N   UNL     1      45.686   4.636  11.397  0.00  0.00    +0.000 NA
ATOM     21  C   UNL     1      45.733   5.617  10.309  0.00  0.00    +0.000 C 
ATOM     22  C   UNL     1      45.873   5.003   8.920  0.00  0.00    +0.000 C 
ATOM     23  C   UNL     1      44.843   3.908   8.686  0.00  0.00    +0.000 C 
ATOM     24  C   UNL     1      44.930   2.867   9.794  0.00  0.00    +0.000 C 
ATOM     25  C   UNL     1      44.793   3.499  11.180  0.00  0.00    +0.000 C 
BRANCH  23  26
ATOM     26  O   UNL     1      43.531   4.462   8.584  0.00  0.00    +0.000 OA
ATOM     27  H   UNL     1      42.946   4.016   9.223  0.00  0.00    +0.000 HD
ENDBRANCH  23  26
ENDBRANCH  19  20
ENDBRANCH  16  19
ENDBRANCH   1  13
BRANCH   1  28
ATOM     28  N   UNL     1      48.725   7.215  17.710  0.00  0.00    +0.000 NA
ATOM     29  H   UNL     1      49.622   7.705  17.768  0.00  0.00    +0.000 HD
BRANCH  28  30
ATOM     30  C   UNL     1      48.183   7.209  19.076  0.00  0.00    +0.000 C 
BRANCH  30  31
ATOM     31  C   UNL     1      47.619   5.855  19.547  0.00  0.00    +0.000 C 
BRANCH  31  32
ATOM     32  N   UNL     1      46.324   5.556  18.926  0.00  0.00    +0.000 NA
ATOM     33  H   UNL     1      45.624   6.196  19.303  0.00  0.00    +0.000 HD
ATOM     34  H   UNL     1      46.026   4.624  19.216  0.00  0.00    +0.000 HD
ENDBRANCH  31  32
ENDBRANCH  30  31
ENDBRANCH  28  30
ENDBRANCH   1  28
TORSDOF 9
ENDMDL
MODEL 5
REMARK VINA RESULT:    -6.083      2.516      7.541
REMARK INTER + INTRA:          -9.751
REMARK INTER:                  -8.903
REMARK INTRA:                  -0.848
REMARK UNBOUND:                -0.824
REMARK  Name = 
REMARK  9 active torsions:
REMARK  status: ('A' for Active; 'I' for Inactive)
REMARK    1  A    between atoms: N_1  and  C_2
REMARK    2  A    between atoms: C_2  and  C_3
REMARK    3  A    between atoms: C_3  and  N_4
REMARK    4  A    between atoms: N_4  and  C_5
REMARK    5  A    between atoms: C_5  and  C_6
REMARK    6  A    between atoms: C_5  and  C_20
REMARK    7  A    between atoms: C_9  and  C_10
REMARK    8  A    between atoms: C_10  and  N_11
REMARK    9  A    between atoms: C_14  and  O_15
REMARK                            x       y       z     vdW  Elec       q    Type
REMARK                         _______ _______ _______ _____ _____    ______ ____
ROOT
ATOM      1  C   UNL     1      49.125   7.351  15.115  0.00  0.00    +0.000 C 
ENDROOT
BRANCH   1   2
ATOM      2  C   UNL     1      48.617   6.249  16.022  0.00  0.00    +0.000 A 
ATOM      3  C   UNL     1      47.787   5.203  15.636  0.00  0.00    +0.000 A 
ATOM      4  S   UNL     1      47.669   3.960  16.801  0.00  0.00    +0.000 S 
ATOM      5  C   UNL     1      48.722   4.773  17.858  0.00  0.00    +0.000 A 
ATOM      6  N   UNL     1      49.153   4.196  19.009  0.00  0.00    +0.000 NA
ATOM      7  C   UNL     1      49.975   4.924  19.692  0.00  0.00    +0.000 A 
ATOM      8  N   UNL     1      50.365   6.196  19.350  0.00  0.00    +0.000 N 
ATOM      9  C   UNL     1      49.921   6.843  18.219  0.00  0.00    +0.000 A 
ATOM     10  O   UNL     1      50.238   7.993  17.969  0.00  0.00    +0.000 OA
ATOM     11  C   UNL     1      49.077   6.017  17.372  0.00  0.00    +0.000 A 
ATOM     12  H   UNL     1      50.975   6.731  19.950  0.00  0.00    +0.000 HD
ENDBRANCH   1   2
BRANCH   1  13
ATOM     13  C   UNL     1      48.176   7.543  13.951  0.00  0.00    +0.000 A 
ATOM     14  C   UNL     1      48.252   6.664  12.862  0.00  0.00    +0.000 A 
ATOM     15  C   UNL     1      47.205   6.577  11.949  0.00  0.00    +0.000 A 
ATOM     16  C   UNL     1      46.095   7.401  12.114  0.00  0.00    +0.000 A 
ATOM     17  N   UNL     1      46.052   8.355  13.080  0.00  0.00    +0.000 NA
ATOM     18  C   UNL     1      47.081   8.401  13.971  0.00  0.00    +0.000 A 
BRANCH  16  19
ATOM     19  C   UNL     1      44.851   7.176  11.251  0.00  0.00    +0.000 C 
BRANCH  19  20
ATOM     20  N   UNL     1      44.065   5.939  11.474  0.00  0.00    +0.000 NA
ATOM     21  C   UNL     1      44.045   5.546  12.885  0.00  0.00    +0.000 C 
ATOM     22  C   UNL     1      43.365   4.206  13.151  0.00  0.00    +0.000 C 
ATOM     23  C   UNL     1      43.906   3.114  12.240  0.00  0.00    +0.000 C 
ATOM     24  C   UNL     1      43.790   3.547  10.784  0.00  0.00    +0.000 C 
ATOM     25  C   UNL     1      44.472   4.894  10.535  0.00  0.00    +0.000 C 
BRANCH  23  26
ATOM     26  O   UNL     1      45.252   2.786  12.587  0.00  0.00    +0.000 OA
ATOM     27  H   UNL     1      45.672   2.327  11.837  0.00  0.00    +0.000 HD
ENDBRANCH  23  26
ENDBRANCH  19  20
ENDBRANCH  16  19
ENDBRANCH   1  13
BRANCH   1  28
ATOM     28  N   UNL     1      50.505   7.002  14.723  0.00  0.00    +0.000 NA
ATOM     29  H   UNL     1      50.841   6.350  15.437  0.00  0.00    +0.000 HD
BRANCH  28  30
ATOM     30  C   UNL     1      51.451   8.126  14.730  0.00  0.00    +0.000 C 
BRANCH  30  31
ATOM     31  C   UNL     1      51.648   8.819  13.368  0.00  0.00    +0.000 C 
BRANCH  31  32
ATOM     32  N   UNL     1      51.605   7.863  12.256  0.00  0.00    +0.000 NA
ATOM     33  H   UNL     1      51.440   6.929  12.634  0.00  0.00    +0.000 HD
ATOM     34  H   UNL     1      52.528   7.822  11.821  0.00  0.00    +0.000 HD
ENDBRANCH  31  32
ENDBRANCH  30  31
ENDBRANCH  28  30
ENDBRANCH   1  28
TORSDOF 9
ENDMDL
MODEL 6
REMARK VINA RESULT:    -5.908      3.526      8.853
REMARK INTER + INTRA:          -9.495
REMARK INTER:                  -8.693
REMARK INTRA:                  -0.802
REMARK UNBOUND:                -0.824
REMARK  Name = 
REMARK  9 active torsions:
REMARK  status: ('A' for Active; 'I' for Inactive)
REMARK    1  A    between atoms: N_1  and  C_2
REMARK    2  A    between atoms: C_2  and  C_3
REMARK    3  A    between atoms: C_3  and  N_4
REMARK    4  A    between atoms: N_4  and  C_5
REMARK    5  A    between atoms: C_5  and  C_6
REMARK    6  A    between atoms: C_5  and  C_20
REMARK    7  A    between atoms: C_9  and  C_10
REMARK    8  A    between atoms: C_10  and  N_11
REMARK    9  A    between atoms: C_14  and  O_15
REMARK                            x       y       z     vdW  Elec       q    Type
REMARK                         _______ _______ _______ _____ _____    ______ ____
ROOT
ATOM      1  C   UNL     1      49.263   5.712  17.481  0.00  0.00    +0.000 C 
ENDROOT
BRANCH   1   2
ATOM      2  C   UNL     1      48.606   6.604  18.515  0.00  0.00    +0.000 A 
ATOM      3  C   UNL     1      47.792   6.171  19.554  0.00  0.00    +0.000 A 
ATOM      4  S   UNL     1      47.484   7.375  20.726  0.00  0.00    +0.000 S 
ATOM      5  C   UNL     1      48.429   8.512  19.888  0.00  0.00    +0.000 A 
ATOM      6  N   UNL     1      48.693   9.736  20.413  0.00  0.00    +0.000 NA
ATOM      7  C   UNL     1      49.451  10.478  19.674  0.00  0.00    +0.000 A 
ATOM      8  N   UNL     1      49.927  10.123  18.435  0.00  0.00    +0.000 N 
ATOM      9  C   UNL     1      49.651   8.913  17.839  0.00  0.00    +0.000 A 
ATOM     10  O   UNL     1      50.039   8.646  16.715  0.00  0.00    +0.000 OA
ATOM     11  C   UNL     1      48.887   8.011  18.684  0.00  0.00    +0.000 A 
ATOM     12  H   UNL     1      50.478  10.766  17.888  0.00  0.00    +0.000 HD
ENDBRANCH   1   2
BRANCH   1  13
ATOM     13  C   UNL     1      48.267   5.351  16.399  0.00  0.00    +0.000 A 
ATOM     14  C   UNL     1      48.262   6.091  15.208  0.00  0.00    +0.000 A 
ATOM     15  C   UNL     1      47.627   5.596  14.072  0.00  0.00    +0.000 A 
ATOM     16  C   UNL     1      46.968   4.372  14.145  0.00  0.00    +0.000 A 
ATOM     17  N   UNL     1      46.841   3.699  15.318  0.00  0.00    +0.000 NA
ATOM     18  C   UNL     1      47.492   4.196  16.406  0.00  0.00    +0.000 A 
BRANCH  16  19
ATOM     19  C   UNL     1      46.447   3.716  12.864  0.00  0.00    +0.000 C 
BRANCH  19  20
ATOM     20  N   UNL     1      45.022   3.920  12.509  0.00  0.00    +0.000 NA
ATOM     21  C   UNL     1      44.827   4.036  11.062  0.00  0.00    +0.000 C 
ATOM     22  C   UNL     1      43.399   4.383  10.650  0.00  0.00    +0.000 C 
ATOM     23  C   UNL     1      42.872   5.587  11.418  0.00  0.00    +0.000 C 
ATOM     24  C   UNL     1      43.004   5.345  12.916  0.00  0.00    +0.000 C 
ATOM     25  C   UNL     1      44.440   4.995  13.312  0.00  0.00    +0.000 C 
BRANCH  23  26
ATOM     26  O   UNL     1      43.546   6.779  11.014  0.00  0.00    +0.000 OA
ATOM     27  H   UNL     1      43.050   7.551  11.339  0.00  0.00    +0.000 HD
ENDBRANCH  23  26
ENDBRANCH  19  20
ENDBRANCH  16  19
ENDBRANCH   1  13
BRANCH   1  28
ATOM     28  N   UNL     1      49.834   4.552  18.193  0.00  0.00    +0.000 NA
ATOM     29  H   UNL     1      50.291   4.934  19.026  0.00  0.00    +0.000 HD
BRANCH  28  30
ATOM     30  C   UNL     1      50.880   3.829  17.458  0.00  0.00    +0.000 C 
BRANCH  30  31
ATOM     31  C   UNL     1      50.711   2.297  17.423  0.00  0.00    +0.000 C 
BRANCH  31  32
ATOM     32  N   UNL     1      50.006   1.852  16.217  0.00  0.00    +0.000 NA
ATOM     33  H   UNL     1      50.470   2.252  15.400  0.00  0.00    +0.000 HD
ATOM     34  H   UNL     1      49.066   2.251  16.218  0.00  0.00    +0.000 HD
ENDBRANCH  31  32
ENDBRANCH  30  31
ENDBRANCH  28  30
ENDBRANCH   1  28
TORSDOF 9
ENDMDL
MODEL 7
REMARK VINA RESULT:    -5.844      3.666      8.273
REMARK INTER + INTRA:          -9.400
REMARK INTER:                  -8.569
REMARK INTRA:                  -0.831
REMARK UNBOUND:                -0.824
REMARK  Name = 
REMARK  9 active torsions:
REMARK  status: ('A' for Active; 'I' for Inactive)
REMARK    1  A    between atoms: N_1  and  C_2
REMARK    2  A    between atoms: C_2  and  C_3
REMARK    3  A    between atoms: C_3  and  N_4
REMARK    4  A    between atoms: N_4  and  C_5
REMARK    5  A    between atoms: C_5  and  C_6
REMARK    6  A    between atoms: C_5  and  C_20
REMARK    7  A    between atoms: C_9  and  C_10
REMARK    8  A    between atoms: C_10  and  N_11
REMARK    9  A    between atoms: C_14  and  O_15
REMARK                            x       y       z     vdW  Elec       q    Type
REMARK                         _______ _______ _______ _____ _____    ______ ____
ROOT
ATOM      1  C   UNL     1      49.703   5.342  18.077  0.00  0.00    +0.000 C 
ENDROOT
BRANCH   1   2
ATOM      2  C   UNL     1      51.103   4.787  17.912  0.00  0.00    +0.000 A 
ATOM      3  C   UNL     1      52.282   5.486  18.141  0.00  0.00    +0.000 A 
ATOM      4  S   UNL     1      53.669   4.490  18.187  0.00  0.00    +0.000 S 
ATOM      5  C   UNL     1      52.743   3.093  17.906  0.00  0.00    +0.000 A 
ATOM      6  N   UNL     1      53.301   1.856  17.948  0.00  0.00    +0.000 NA
ATOM      7  C   UNL     1      52.466   0.890  17.746  0.00  0.00    +0.000 A 
ATOM      8  N   UNL     1      51.132   1.055  17.457  0.00  0.00    +0.000 N 
ATOM      9  C   UNL     1      50.529   2.289  17.358  0.00  0.00    +0.000 A 
ATOM     10  O   UNL     1      49.357   2.408  17.044  0.00  0.00    +0.000 OA
ATOM     11  C   UNL     1      51.414   3.395  17.681  0.00  0.00    +0.000 A 
ATOM     12  H   UNL     1      50.541   0.260  17.265  0.00  0.00    +0.000 HD
ENDBRANCH   1   2
BRANCH   1  13
ATOM     13  C   UNL     1      49.236   5.964  16.778  0.00  0.00    +0.000 A 
ATOM     14  C   UNL     1      49.967   7.029  16.235  0.00  0.00    +0.000 A 
ATOM     15  C   UNL     1      49.793   7.399  14.904  0.00  0.00    +0.000 A 
ATOM     16  C   UNL     1      48.859   6.717  14.129  0.00  0.00    +0.000 A 
ATOM     17  N   UNL     1      48.043   5.772  14.663  0.00  0.00    +0.000 NA
ATOM     18  C   UNL     1      48.251   5.417  15.962  0.00  0.00    +0.000 A 
BRANCH  16  19
ATOM     19  C   UNL     1      48.802   6.966  12.620  0.00  0.00    +0.000 C 
BRANCH  19  20
ATOM     20  N   UNL     1      47.497   7.340  12.026  0.00  0.00    +0.000 NA
ATOM     21  C   UNL     1      46.757   8.280  12.872  0.00  0.00    +0.000 C 
ATOM     22  C   UNL     1      45.349   8.593  12.374  0.00  0.00    +0.000 C 
ATOM     23  C   UNL     1      44.566   7.322  12.075  0.00  0.00    +0.000 C 
ATOM     24  C   UNL     1      45.347   6.448  11.102  0.00  0.00    +0.000 C 
ATOM     25  C   UNL     1      46.757   6.147  11.613  0.00  0.00    +0.000 C 
BRANCH  23  26
ATOM     26  O   UNL     1      44.257   6.623  13.281  0.00  0.00    +0.000 OA
ATOM     27  H   UNL     1      44.789   5.808  13.323  0.00  0.00    +0.000 HD
ENDBRANCH  23  26
ENDBRANCH  19  20
ENDBRANCH  16  19
ENDBRANCH   1  13
BRANCH   1  28
ATOM     28  N   UNL     1      49.727   6.273  19.222  0.00  0.00    +0.000 NA
ATOM     29  H   UNL     1      50.025   5.716  20.028  0.00  0.00    +0.000 HD
BRANCH  28  30
ATOM     30  C   UNL     1      48.421   6.838  19.586  0.00  0.00    +0.000 C 
BRANCH  30  31
ATOM     31  C   UNL     1      47.353   5.803  19.988  0.00  0.00    +0.000 C 
BRANCH  31  32
ATOM     32  N   UNL     1      46.338   5.631  18.944  0.00  0.00    +0.000 NA
ATOM     33  H   UNL     1      46.561   4.793  18.405  0.00  0.00    +0.000 HD
ATOM     34  H   UNL     1      46.409   6.406  18.283  0.00  0.00    +0.000 HD
ENDBRANCH  31  32
ENDBRANCH  30  31
ENDBRANCH  28  30
ENDBRANCH   1  28
TORSDOF 9
ENDMDL
MODEL 8
REMARK VINA RESULT:    -5.837      3.517      7.854
REMARK INTER + INTRA:          -9.391
REMARK INTER:                  -8.308
REMARK INTRA:                  -1.084
REMARK UNBOUND:                -0.824
REMARK  Name = 
REMARK  9 active torsions:
REMARK  status: ('A' for Active; 'I' for Inactive)
REMARK    1  A    between atoms: N_1  and  C_2
REMARK    2  A    between atoms: C_2  and  C_3
REMARK    3  A    between atoms: C_3  and  N_4
REMARK    4  A    between atoms: N_4  and  C_5
REMARK    5  A    between atoms: C_5  and  C_6
REMARK    6  A    between atoms: C_5  and  C_20
REMARK    7  A    between atoms: C_9  and  C_10
REMARK    8  A    between atoms: C_10  and  N_11
REMARK    9  A    between atoms: C_14  and  O_15
REMARK                            x       y       z     vdW  Elec       q    Type
REMARK                         _______ _______ _______ _____ _____    ______ ____
ROOT
ATOM      1  C   UNL     1      48.938   7.327  15.142  0.00  0.00    +0.000 C 
ENDROOT
BRANCH   1   2
ATOM      2  C   UNL     1      49.393   8.692  15.617  0.00  0.00    +0.000 A 
ATOM      3  C   UNL     1      48.874   9.384  16.704  0.00  0.00    +0.000 A 
ATOM      4  S   UNL     1      49.817  10.729  17.171  0.00  0.00    +0.000 S 
ATOM      5  C   UNL     1      50.950  10.432  15.939  0.00  0.00    +0.000 A 
ATOM      6  N   UNL     1      52.097  11.153  15.846  0.00  0.00    +0.000 NA
ATOM      7  C   UNL     1      52.875  10.791  14.879  0.00  0.00    +0.000 A 
ATOM      8  N   UNL     1      52.582   9.806  13.966  0.00  0.00    +0.000 N 
ATOM      9  C   UNL     1      51.413   9.078  13.989  0.00  0.00    +0.000 A 
ATOM     10  O   UNL     1      51.155   8.249  13.134  0.00  0.00    +0.000 OA
ATOM     11  C   UNL     1      50.561   9.386  15.125  0.00  0.00    +0.000 A 
ATOM     12  H   UNL     1      53.212   9.600  13.205  0.00  0.00    +0.000 HD
ENDBRANCH   1   2
BRANCH   1  13
ATOM     13  C   UNL     1      48.032   7.472  13.938  0.00  0.00    +0.000 A 
ATOM     14  C   UNL     1      48.077   6.495  12.935  0.00  0.00    +0.000 A 
ATOM     15  C   UNL     1      47.048   6.391  12.002  0.00  0.00    +0.000 A 
ATOM     16  C   UNL     1      45.990   7.294  12.061  0.00  0.00    +0.000 A 
ATOM     17  N   UNL     1      45.985   8.332  12.936  0.00  0.00    +0.000 NA
ATOM     18  C   UNL     1      46.994   8.394  13.849  0.00  0.00    +0.000 A 
BRANCH  16  19
ATOM     19  C   UNL     1      44.755   7.069  11.185  0.00  0.00    +0.000 C 
BRANCH  19  20
ATOM     20  N   UNL     1      43.974   5.826  11.390  0.00  0.00    +0.000 NA
ATOM     21  C   UNL     1      43.881   5.463  12.807  0.00  0.00    +0.000 C 
ATOM     22  C   UNL     1      43.204   4.119  13.063  0.00  0.00    +0.000 C 
ATOM     23  C   UNL     1      43.809   3.016  12.206  0.00  0.00    +0.000 C 
ATOM     24  C   UNL     1      43.767   3.418  10.738  0.00  0.00    +0.000 C 
ATOM     25  C   UNL     1      44.445   4.768  10.498  0.00  0.00    +0.000 C 
BRANCH  23  26
ATOM     26  O   UNL     1      45.137   2.714  12.633  0.00  0.00    +0.000 OA
ATOM     27  H   UNL     1      45.629   2.321  11.891  0.00  0.00    +0.000 HD
ENDBRANCH  23  26
ENDBRANCH  19  20
ENDBRANCH  16  19
ENDBRANCH   1  13
BRANCH   1  28
ATOM     28  N   UNL     1      48.316   6.642  16.292  0.00  0.00    +0.000 NA
ATOM     29  H   UNL     1      48.802   6.993  17.122  0.00  0.00    +0.000 HD
BRANCH  28  30
ATOM     30  C   UNL     1      48.491   5.184  16.311  0.00  0.00    +0.000 C 
BRANCH  30  31
ATOM     31  C   UNL     1      47.226   4.371  15.975  0.00  0.00    +0.000 C 
BRANCH  31  32
ATOM     32  N   UNL     1      47.424   3.511  14.803  0.00  0.00    +0.000 NA
ATOM     33  H   UNL     1      46.924   2.634  14.953  0.00  0.00    +0.000 HD
ATOM     34  H   UNL     1      48.411   3.256  14.744  0.00  0.00    +0.000 HD
ENDBRANCH  31  32
ENDBRANCH  30  31
ENDBRANCH  28  30
ENDBRANCH   1  28
TORSDOF 9
ENDMDL
MODEL 9
REMARK VINA RESULT:    -5.799      3.078      7.960
REMARK INTER + INTRA:          -9.335
REMARK INTER:                  -8.166
REMARK INTRA:                  -1.170
REMARK UNBOUND:                -0.824
REMARK  Name = 
REMARK  9 active torsions:
REMARK  status: ('A' for Active; 'I' for Inactive)
REMARK    1  A    between atoms: N_1  and  C_2
REMARK    2  A    between atoms: C_2  and  C_3
REMARK    3  A    between atoms: C_3  and  N_4
REMARK    4  A    between atoms: N_4  and  C_5
REMARK    5  A    between atoms: C_5  and  C_6
REMARK    6  A    between atoms: C_5  and  C_20
REMARK    7  A    between atoms: C_9  and  C_10
REMARK    8  A    between atoms: C_10  and  N_11
REMARK    9  A    between atoms: C_14  and  O_15
REMARK                            x       y       z     vdW  Elec       q    Type
REMARK                         _______ _______ _______ _____ _____    ______ ____
ROOT
ATOM      1  C   UNL     1      50.360   8.019  15.452  0.00  0.00    +0.000 C 
ENDROOT
BRANCH   1   2
ATOM      2  C   UNL     1      49.781   8.143  16.847  0.00  0.00    +0.000 A 
ATOM      3  C   UNL     1      49.827   9.281  17.642  0.00  0.00    +0.000 A 
ATOM      4  S   UNL     1      48.805   9.200  19.009  0.00  0.00    +0.000 S 
ATOM      5  C   UNL     1      48.266   7.645  18.583  0.00  0.00    +0.000 A 
ATOM      6  N   UNL     1      47.273   7.029  19.273  0.00  0.00    +0.000 NA
ATOM      7  C   UNL     1      46.950   5.865  18.813  0.00  0.00    +0.000 A 
ATOM      8  N   UNL     1      47.567   5.243  17.754  0.00  0.00    +0.000 N 
ATOM      9  C   UNL     1      48.609   5.805  17.051  0.00  0.00    +0.000 A 
ATOM     10  O   UNL     1      49.176   5.208  16.153  0.00  0.00    +0.000 OA
ATOM     11  C   UNL     1      48.931   7.158  17.474  0.00  0.00    +0.000 A 
ATOM     12  H   UNL     1      47.298   4.313  17.470  0.00  0.00    +0.000 HD
ENDBRANCH   1   2
BRANCH   1  13
ATOM     13  C   UNL     1      49.246   7.995  14.428  0.00  0.00    +0.000 A 
ATOM     14  C   UNL     1      49.313   7.074  13.374  0.00  0.00    +0.000 A 
ATOM     15  C   UNL     1      48.180   6.775  12.622  0.00  0.00    +0.000 A 
ATOM     16  C   UNL     1      46.985   7.429  12.912  0.00  0.00    +0.000 A 
ATOM     17  N   UNL     1      46.922   8.422  13.837  0.00  0.00    +0.000 NA
ATOM     18  C   UNL     1      48.041   8.676  14.570  0.00  0.00    +0.000 A 
BRANCH  16  19
ATOM     19  C   UNL     1      45.688   6.967  12.243  0.00  0.00    +0.000 C 
BRANCH  19  20
ATOM     20  N   UNL     1      45.623   5.573  11.743  0.00  0.00    +0.000 NA
ATOM     21  C   UNL     1      44.897   5.478  10.474  0.00  0.00    +0.000 C 
ATOM     22  C   UNL     1      44.683   4.049   9.984  0.00  0.00    +0.000 C 
ATOM     23  C   UNL     1      44.092   3.166  11.073  0.00  0.00    +0.000 C 
ATOM     24  C   UNL     1      44.963   3.228  12.321  0.00  0.00    +0.000 C 
ATOM     25  C   UNL     1      45.171   4.667  12.798  0.00  0.00    +0.000 C 
BRANCH  23  26
ATOM     26  O   UNL     1      42.743   3.540  11.351  0.00  0.00    +0.000 OA
ATOM     27  H   UNL     1      42.318   2.838  11.876  0.00  0.00    +0.000 HD
ENDBRANCH  23  26
ENDBRANCH  19  20
ENDBRANCH  16  19
ENDBRANCH   1  13
BRANCH   1  28
ATOM     28  N   UNL     1      51.226   6.824  15.436  0.00  0.00    +0.000 NA
ATOM     29  H   UNL     1      50.805   6.165  16.097  0.00  0.00    +0.000 HD
BRANCH  28  30
ATOM     30  C   UNL     1      52.598   7.048  15.912  0.00  0.00    +0.000 C 
BRANCH  30  31
ATOM     31  C   UNL     1      53.030   6.159  17.094  0.00  0.00    +0.000 C 
BRANCH  31  32
ATOM     32  N   UNL     1      52.122   5.023  17.285  0.00  0.00    +0.000 NA
ATOM     33  H   UNL     1      51.945   4.590  16.378  0.00  0.00    +0.000 HD
ATOM     34  H   UNL     1      51.217   5.374  17.601  0.00  0.00    +0.000 HD
ENDBRANCH  31  32
ENDBRANCH  30  31
ENDBRANCH  28  30
ENDBRANCH   1  28
TORSDOF 9
ENDMDL
