MODEL 1
REMARK VINA RESULT:    -8.250      0.000      0.000
REMARK INTER + INTRA:         -11.520
REMARK INTER:                 -10.661
REMARK INTRA:                  -0.859
REMARK UNBOUND:                -0.859
REMARK  Name = 
REMARK  6 active torsions:
REMARK  status: ('A' for Active; 'I' for Inactive)
REMARK    1  A    between atoms: C_1  and  C_2
REMARK    2  A    between atoms: C_2  and  N_3
REMARK    3  A    between atoms: C_2  and  C_16
REMARK    4  A    between atoms: C_4  and  C_6
REMARK    5  A    between atoms: C_19  and  C_20
REMARK    6  A    between atoms: C_20  and  N_21
REMARK                            x       y       z     vdW  Elec       q    Type
REMARK                         _______ _______ _______ _____ _____    ______ ____
ROOT
ATOM      1  C   UNL     1      48.181   9.237  13.222  0.00  0.00    +0.000 C 
ATOM      2  C   UNL     1      48.005   7.791  13.701  0.00  0.00    +0.000 C 
ENDROOT
BRANCH   2   3
ATOM      3  C   UNL     1      46.726   7.204  13.086  0.00  0.00    +0.000 A 
ATOM      4  C   UNL     1      46.000   7.902  12.117  0.00  0.00    +0.000 A 
ATOM      5  C   UNL     1      44.915   7.281  11.487  0.00  0.00    +0.000 A 
ATOM      6  C   UNL     1      44.563   5.975  11.828  0.00  0.00    +0.000 A 
ATOM      7  C   UNL     1      45.310   5.376  12.837  0.00  0.00    +0.000 A 
ATOM      8  N   UNL     1      46.367   5.952  13.466  0.00  0.00    +0.000 NA
BRANCH   6   9
ATOM      9  C   UNL     1      43.456   5.229  11.130  0.00  0.00    +0.000 C 
BRANCH   9  10
ATOM     10  N   UNL     1      43.889   4.623   9.889  0.00  0.00    +0.000 N 
ATOM     11  C   UNL     1      44.368   3.335   9.894  0.00  0.00    +0.000 C 
ATOM     12  O   UNL     1      44.470   2.681  10.926  0.00  0.00    +0.000 OA
ATOM     13  N   UNL     1      44.702   2.838   8.640  0.00  0.00    +0.000 N 
ATOM     14  C   UNL     1      45.068   1.428   8.497  0.00  0.00    +0.000 C 
ATOM     15  C   UNL     1      46.529   1.275   8.076  0.00  0.00    +0.000 C 
ATOM     16  C   UNL     1      46.834   2.105   6.828  0.00  0.00    +0.000 C 
ATOM     17  C   UNL     1      46.406   3.558   7.019  0.00  0.00    +0.000 C 
ATOM     18  C   UNL     1      44.943   3.656   7.452  0.00  0.00    +0.000 C 
ATOM     19  H   UNL     1      43.315   4.830   9.086  0.00  0.00    +0.000 HD
ENDBRANCH   9  10
ENDBRANCH   6   9
ENDBRANCH   2   3
BRANCH   2  20
ATOM     20  N   UNL     1      48.000   7.690  15.159  0.00  0.00    +0.000 N 
ATOM     21  C   UNL     1      49.019   7.100  15.876  0.00  0.00    +0.000 C 
ATOM     22  O   UNL     1      50.042   6.672  15.355  0.00  0.00    +0.000 OA
ATOM     23  H   UNL     1      47.073   7.662  15.578  0.00  0.00    +0.000 HD
BRANCH  21  24
ATOM     24  C   UNL     1      48.848   7.073  17.335  0.00  0.00    +0.000 A 
ATOM     25  C   UNL     1      48.680   8.257  18.038  0.00  0.00    +0.000 A 
ATOM     26  S   UNL     1      48.476   8.034  19.719  0.00  0.00    +0.000 S 
ATOM     27  C   UNL     1      48.660   6.350  19.573  0.00  0.00    +0.000 A 
ATOM     28  N   UNL     1      48.637   5.542  20.666  0.00  0.00    +0.000 NA
ATOM     29  C   UNL     1      48.824   4.291  20.410  0.00  0.00    +0.000 A 
ATOM     30  N   UNL     1      49.015   3.770  19.154  0.00  0.00    +0.000 N 
ATOM     31  C   UNL     1      48.989   4.541  18.018  0.00  0.00    +0.000 A 
ATOM     32  O   UNL     1      49.068   4.036  16.904  0.00  0.00    +0.000 OA
ATOM     33  C   UNL     1      48.830   5.961  18.256  0.00  0.00    +0.000 A 
ATOM     34  H   UNL     1      49.128   2.778  19.016  0.00  0.00    +0.000 HD
ENDBRANCH  21  24
ENDBRANCH   2  20
TORSDOF 5
ENDMDL
MODEL 2
REMARK VINA RESULT:    -8.088      1.605      2.361
REMARK INTER + INTRA:         -11.311
REMARK INTER:                 -10.310
REMARK INTRA:                  -1.001
REMARK UNBOUND:                -0.859
REMARK  Name = 
REMARK  6 active torsions:
REMARK  status: ('A' for Active; 'I' for Inactive)
REMARK    1  A    between atoms: C_1  and  C_2
REMARK    2  A    between atoms: C_2  and  N_3
REMARK    3  A    between atoms: C_2  and  C_16
REMARK    4  A    between atoms: C_4  and  C_6
REMARK    5  A    between atoms: C_19  and  C_20
REMARK    6  A    between atoms: C_20  and  N_21
REMARK                            x       y       z     vdW  Elec       q    Type
REMARK                         _______ _______ _______ _____ _____    ______ ____
ROOT
ATOM      1  C   UNL     1      49.370   7.738  13.718  0.00  0.00    +0.000 C 
ATOM      2  C   UNL     1      48.566   6.560  14.281  0.00  0.00    +0.000 C 
ENDROOT
BRANCH   2   3
ATOM      3  C   UNL     1      47.302   6.356  13.433  0.00  0.00    +0.000 A 
ATOM      4  C   UNL     1      47.163   6.956  12.179  0.00  0.00    +0.000 A 
ATOM      5  C   UNL     1      46.057   6.644  11.381  0.00  0.00    +0.000 A 
ATOM      6  C   UNL     1      45.098   5.740  11.840  0.00  0.00    +0.000 A 
ATOM      7  C   UNL     1      45.291   5.230  13.121  0.00  0.00    +0.000 A 
ATOM      8  N   UNL     1      46.354   5.514  13.916  0.00  0.00    +0.000 NA
BRANCH   6   9
ATOM      9  C   UNL     1      43.928   5.306  10.997  0.00  0.00    +0.000 C 
BRANCH   9  10
ATOM     10  N   UNL     1      44.336   4.662   9.767  0.00  0.00    +0.000 N 
ATOM     11  C   UNL     1      44.671   3.329   9.780  0.00  0.00    +0.000 C 
ATOM     12  O   UNL     1      44.664   2.663  10.810  0.00  0.00    +0.000 OA
ATOM     13  N   UNL     1      44.994   2.803   8.535  0.00  0.00    +0.000 N 
ATOM     14  C   UNL     1      45.209   1.362   8.394  0.00  0.00    +0.000 C 
ATOM     15  C   UNL     1      46.659   1.052   8.024  0.00  0.00    +0.000 C 
ATOM     16  C   UNL     1      47.097   1.847   6.794  0.00  0.00    +0.000 C 
ATOM     17  C   UNL     1      46.823   3.338   6.980  0.00  0.00    +0.000 C 
ATOM     18  C   UNL     1      45.366   3.594   7.362  0.00  0.00    +0.000 C 
ATOM     19  H   UNL     1      43.818   4.933   8.946  0.00  0.00    +0.000 HD
ENDBRANCH   9  10
ENDBRANCH   6   9
ENDBRANCH   2   3
BRANCH   2  20
ATOM     20  N   UNL     1      48.247   6.737  15.696  0.00  0.00    +0.000 N 
ATOM     21  C   UNL     1      48.980   6.159  16.710  0.00  0.00    +0.000 C 
ATOM     22  O   UNL     1      49.996   5.505  16.512  0.00  0.00    +0.000 OA
ATOM     23  H   UNL     1      47.264   6.915  15.889  0.00  0.00    +0.000 HD
BRANCH  21  24
ATOM     24  C   UNL     1      48.513   6.430  18.077  0.00  0.00    +0.000 A 
ATOM     25  C   UNL     1      48.425   5.397  18.999  0.00  0.00    +0.000 A 
ATOM     26  S   UNL     1      47.883   5.897  20.540  0.00  0.00    +0.000 S 
ATOM     27  C   UNL     1      47.695   7.503  20.013  0.00  0.00    +0.000 A 
ATOM     28  N   UNL     1      47.212   8.464  20.843  0.00  0.00    +0.000 NA
ATOM     29  C   UNL     1      47.089   9.628  20.299  0.00  0.00    +0.000 A 
ATOM     30  N   UNL     1      47.424   9.923  19.001  0.00  0.00    +0.000 N 
ATOM     31  C   UNL     1      47.969   8.997  18.145  0.00  0.00    +0.000 A 
ATOM     32  O   UNL     1      48.346   9.313  17.022  0.00  0.00    +0.000 OA
ATOM     33  C   UNL     1      48.082   7.662  18.693  0.00  0.00    +0.000 A 
ATOM     34  H   UNL     1      47.331  10.861  18.641  0.00  0.00    +0.000 HD
ENDBRANCH  21  24
ENDBRANCH   2  20
TORSDOF 5
ENDMDL
MODEL 3
REMARK VINA RESULT:    -7.257      3.985      9.184
REMARK INTER + INTRA:         -10.237
REMARK INTER:                  -9.155
REMARK INTRA:                  -1.082
REMARK UNBOUND:                -0.859
REMARK  Name = 
REMARK  6 active torsions:
REMARK  status: ('A' for Active; 'I' for Inactive)
REMARK    1  A    between atoms: C_1  and  C_2
REMARK    2  A    between atoms: C_2  and  N_3
REMARK    3  A    between atoms: C_2  and  C_16
REMARK    4  A    between atoms: C_4  and  C_6
REMARK    5  A    between atoms: C_19  and  C_20
REMARK    6  A    between atoms: C_20  and  N_21
REMARK                            x       y       z     vdW  Elec       q    Type
REMARK                         _______ _______ _______ _____ _____    ______ ____
ROOT
ATOM      1  C   UNL     1      49.292   7.335  13.312  0.00  0.00    +0.000 C 
ATOM      2  C   UNL     1      47.997   6.743  13.880  0.00  0.00    +0.000 C 
ENDROOT
BRANCH   2   3
ATOM      3  C   UNL     1      48.315   5.964  15.164  0.00  0.00    +0.000 A 
ATOM      4  C   UNL     1      47.545   4.865  15.557  0.00  0.00    +0.000 A 
ATOM      5  C   UNL     1      47.941   4.102  16.661  0.00  0.00    +0.000 A 
ATOM      6  C   UNL     1      49.098   4.440  17.364  0.00  0.00    +0.000 A 
ATOM      7  C   UNL     1      49.774   5.577  16.934  0.00  0.00    +0.000 A 
ATOM      8  N   UNL     1      49.415   6.336  15.867  0.00  0.00    +0.000 NA
BRANCH   6   9
ATOM      9  C   UNL     1      49.617   3.613  18.511  0.00  0.00    +0.000 C 
BRANCH   9  10
ATOM     10  N   UNL     1      51.032   3.332  18.400  0.00  0.00    +0.000 N 
ATOM     11  C   UNL     1      51.447   2.150  17.836  0.00  0.00    +0.000 C 
ATOM     12  O   UNL     1      50.654   1.301  17.442  0.00  0.00    +0.000 OA
ATOM     13  N   UNL     1      52.825   2.012  17.731  0.00  0.00    +0.000 N 
ATOM     14  C   UNL     1      53.383   0.872  17.002  0.00  0.00    +0.000 C 
ATOM     15  C   UNL     1      54.152  -0.061  17.936  0.00  0.00    +0.000 C 
ATOM     16  C   UNL     1      55.200   0.706  18.742  0.00  0.00    +0.000 C 
ATOM     17  C   UNL     1      54.573   1.901  19.458  0.00  0.00    +0.000 C 
ATOM     18  C   UNL     1      53.805   2.794  18.484  0.00  0.00    +0.000 C 
ATOM     19  H   UNL     1      51.608   4.119  18.142  0.00  0.00    +0.000 HD
ENDBRANCH   9  10
ENDBRANCH   6   9
ENDBRANCH   2   3
BRANCH   2  20
ATOM     20  N   UNL     1      47.295   5.913  12.904  0.00  0.00    +0.000 N 
ATOM     21  C   UNL     1      46.358   6.416  12.025  0.00  0.00    +0.000 C 
ATOM     22  O   UNL     1      46.086   7.607  11.947  0.00  0.00    +0.000 OA
ATOM     23  H   UNL     1      47.189   4.939  13.174  0.00  0.00    +0.000 HD
BRANCH  21  24
ATOM     24  C   UNL     1      45.738   5.440  11.118  0.00  0.00    +0.000 A 
ATOM     25  C   UNL     1      45.841   5.605   9.744  0.00  0.00    +0.000 A 
ATOM     26  S   UNL     1      45.079   4.369   8.845  0.00  0.00    +0.000 S 
ATOM     27  C   UNL     1      44.539   3.597  10.261  0.00  0.00    +0.000 A 
ATOM     28  N   UNL     1      43.772   2.476  10.204  0.00  0.00    +0.000 NA
ATOM     29  C   UNL     1      43.406   2.019  11.354  0.00  0.00    +0.000 A 
ATOM     30  N   UNL     1      43.753   2.573  12.561  0.00  0.00    +0.000 N 
ATOM     31  C   UNL     1      44.572   3.670  12.668  0.00  0.00    +0.000 A 
ATOM     32  O   UNL     1      44.941   4.085  13.761  0.00  0.00    +0.000 OA
ATOM     33  C   UNL     1      44.971   4.250  11.402  0.00  0.00    +0.000 A 
ATOM     34  H   UNL     1      43.457   2.152  13.428  0.00  0.00    +0.000 HD
ENDBRANCH  21  24
ENDBRANCH   2  20
TORSDOF 5
ENDMDL
MODEL 4
REMARK VINA RESULT:    -7.206      3.239      8.566
REMARK INTER + INTRA:         -10.171
REMARK INTER:                  -9.240
REMARK INTRA:                  -0.931
REMARK UNBOUND:                -0.859
REMARK  Name = 
REMARK  6 active torsions:
REMARK  status: ('A' for Active; 'I' for Inactive)
REMARK    1  A    between atoms: C_1  and  C_2
REMARK    2  A    between atoms: C_2  and  N_3
REMARK    3  A    between atoms: C_2  and  C_16
REMARK    4  A    between atoms: C_4  and  C_6
REMARK    5  A    between atoms: C_19  and  C_20
REMARK    6  A    between atoms: C_20  and  N_21
REMARK                            x       y       z     vdW  Elec       q    Type
REMARK                         _______ _______ _______ _____ _____    ______ ____
ROOT
ATOM      1  C   UNL     1      49.477   8.471  11.387  0.00  0.00    +0.000 C 
ATOM      2  C   UNL     1      48.159   8.172  12.109  0.00  0.00    +0.000 C 
ENDROOT
BRANCH   2   3
ATOM      3  C   UNL     1      48.434   7.963  13.605  0.00  0.00    +0.000 A 
ATOM      4  C   UNL     1      48.304   9.011  14.521  0.00  0.00    +0.000 A 
ATOM      5  C   UNL     1      48.437   8.753  15.890  0.00  0.00    +0.000 A 
ATOM      6  C   UNL     1      48.700   7.456  16.334  0.00  0.00    +0.000 A 
ATOM      7  C   UNL     1      48.864   6.486  15.350  0.00  0.00    +0.000 A 
ATOM      8  N   UNL     1      48.740   6.706  14.016  0.00  0.00    +0.000 NA
BRANCH   6   9
ATOM      9  C   UNL     1      48.777   7.103  17.796  0.00  0.00    +0.000 C 
BRANCH   9  10
ATOM     10  N   UNL     1      49.146   5.721  18.016  0.00  0.00    +0.000 N 
ATOM     11  C   UNL     1      50.463   5.398  18.239  0.00  0.00    +0.000 C 
ATOM     12  O   UNL     1      51.352   6.242  18.231  0.00  0.00    +0.000 OA
ATOM     13  N   UNL     1      50.692   4.051  18.493  0.00  0.00    +0.000 N 
ATOM     14  C   UNL     1      52.026   3.612  18.904  0.00  0.00    +0.000 C 
ATOM     15  C   UNL     1      52.664   2.710  17.847  0.00  0.00    +0.000 C 
ATOM     16  C   UNL     1      51.736   1.552  17.478  0.00  0.00    +0.000 C 
ATOM     17  C   UNL     1      50.351   2.062  17.087  0.00  0.00    +0.000 C 
ATOM     18  C   UNL     1      49.764   2.968  18.169  0.00  0.00    +0.000 C 
ATOM     19  H   UNL     1      48.506   5.190  18.586  0.00  0.00    +0.000 HD
ENDBRANCH   9  10
ENDBRANCH   6   9
ENDBRANCH   2   3
BRANCH   2  20
ATOM     20  N   UNL     1      47.455   7.033  11.524  0.00  0.00    +0.000 N 
ATOM     21  C   UNL     1      46.083   6.980  11.397  0.00  0.00    +0.000 C 
ATOM     22  O   UNL     1      45.347   7.910  11.703  0.00  0.00    +0.000 OA
ATOM     23  H   UNL     1      47.938   6.143  11.620  0.00  0.00    +0.000 HD
BRANCH  21  24
ATOM     24  C   UNL     1      45.539   5.754  10.798  0.00  0.00    +0.000 A 
ATOM     25  C   UNL     1      45.702   5.511   9.441  0.00  0.00    +0.000 A 
ATOM     26  S   UNL     1      45.024   4.033   8.922  0.00  0.00    +0.000 S 
ATOM     27  C   UNL     1      44.440   3.690  10.482  0.00  0.00    +0.000 A 
ATOM     28  N   UNL     1      43.713   2.569  10.731  0.00  0.00    +0.000 NA
ATOM     29  C   UNL     1      43.305   2.456  11.951  0.00  0.00    +0.000 A 
ATOM     30  N   UNL     1      43.576   3.356  12.952  0.00  0.00    +0.000 N 
ATOM     31  C   UNL     1      44.355   4.471  12.758  0.00  0.00    +0.000 A 
ATOM     32  O   UNL     1      44.657   5.205  13.692  0.00  0.00    +0.000 OA
ATOM     33  C   UNL     1      44.796   4.669  11.394  0.00  0.00    +0.000 A 
ATOM     34  H   UNL     1      43.252   3.197  13.893  0.00  0.00    +0.000 HD
ENDBRANCH  21  24
ENDBRANCH   2  20
TORSDOF 5
ENDMDL
MODEL 5
REMARK VINA RESULT:    -6.923      3.322      9.218
REMARK INTER + INTRA:          -9.806
REMARK INTER:                  -8.829
REMARK INTRA:                  -0.977
REMARK UNBOUND:                -0.859
REMARK  Name = 
REMARK  6 active torsions:
REMARK  status: ('A' for Active; 'I' for Inactive)
REMARK    1  A    between atoms: C_1  and  C_2
REMARK    2  A    between atoms: C_2  and  N_3
REMARK    3  A    between atoms: C_2  and  C_16
REMARK    4  A    between atoms: C_4  and  C_6
REMARK    5  A    between atoms: C_19  and  C_20
REMARK    6  A    between atoms: C_20  and  N_21
REMARK                            x       y       z     vdW  Elec       q    Type
REMARK                         _______ _______ _______ _____ _____    ______ ____
ROOT
ATOM      1  C   UNL     1      48.511   8.094  11.023  0.00  0.00    +0.000 C 
ATOM      2  C   UNL     1      47.612   7.687  12.196  0.00  0.00    +0.000 C 
ENDROOT
BRANCH   2   3
ATOM      3  C   UNL     1      48.468   7.528  13.461  0.00  0.00    +0.000 A 
ATOM      4  C   UNL     1      48.068   6.695  14.510  0.00  0.00    +0.000 A 
ATOM      5  C   UNL     1      48.933   6.475  15.587  0.00  0.00    +0.000 A 
ATOM      6  C   UNL     1      50.187   7.087  15.612  0.00  0.00    +0.000 A 
ATOM      7  C   UNL     1      50.482   7.938  14.552  0.00  0.00    +0.000 A 
ATOM      8  N   UNL     1      49.663   8.171  13.493  0.00  0.00    +0.000 NA
BRANCH   6   9
ATOM      9  C   UNL     1      51.190   6.827  16.704  0.00  0.00    +0.000 C 
BRANCH   9  10
ATOM     10  N   UNL     1      51.111   5.479  17.225  0.00  0.00    +0.000 N 
ATOM     11  C   UNL     1      52.258   4.842  17.634  0.00  0.00    +0.000 C 
ATOM     12  O   UNL     1      53.362   5.367  17.548  0.00  0.00    +0.000 OA
ATOM     13  N   UNL     1      52.056   3.574  18.166  0.00  0.00    +0.000 N 
ATOM     14  C   UNL     1      53.176   2.864  18.783  0.00  0.00    +0.000 C 
ATOM     15  C   UNL     1      53.543   1.611  17.989  0.00  0.00    +0.000 C 
ATOM     16  C   UNL     1      52.319   0.722  17.765  0.00  0.00    +0.000 C 
ATOM     17  C   UNL     1      51.171   1.517  17.148  0.00  0.00    +0.000 C 
ATOM     18  C   UNL     1      50.852   2.766  17.970  0.00  0.00    +0.000 C 
ATOM     19  H   UNL     1      50.320   5.294  17.822  0.00  0.00    +0.000 HD
ENDBRANCH   9  10
ENDBRANCH   6   9
ENDBRANCH   2   3
BRANCH   2  20
ATOM     20  N   UNL     1      46.843   6.478  11.908  0.00  0.00    +0.000 N 
ATOM     21  C   UNL     1      45.471   6.474  11.776  0.00  0.00    +0.000 C 
ATOM     22  O   UNL     1      44.791   7.491  11.824  0.00  0.00    +0.000 OA
ATOM     23  H   UNL     1      47.272   5.616  12.234  0.00  0.00    +0.000 HD
BRANCH  21  24
ATOM     24  C   UNL     1      44.855   5.169  11.498  0.00  0.00    +0.000 A 
ATOM     25  C   UNL     1      44.086   4.542  12.468  0.00  0.00    +0.000 A 
ATOM     26  S   UNL     1      43.434   3.045  11.965  0.00  0.00    +0.000 S 
ATOM     27  C   UNL     1      44.202   3.157  10.452  0.00  0.00    +0.000 A 
ATOM     28  N   UNL     1      44.095   2.162   9.533  0.00  0.00    +0.000 NA
ATOM     29  C   UNL     1      44.759   2.365   8.445  0.00  0.00    +0.000 A 
ATOM     30  N   UNL     1      45.508   3.485   8.184  0.00  0.00    +0.000 N 
ATOM     31  C   UNL     1      45.597   4.540   9.059  0.00  0.00    +0.000 A 
ATOM     32  O   UNL     1      46.196   5.566   8.759  0.00  0.00    +0.000 OA
ATOM     33  C   UNL     1      44.909   4.339  10.318  0.00  0.00    +0.000 A 
ATOM     34  H   UNL     1      45.982   3.598   7.301  0.00  0.00    +0.000 HD
ENDBRANCH  21  24
ENDBRANCH   2  20
TORSDOF 5
ENDMDL
MODEL 6
REMARK VINA RESULT:    -6.913      3.684      9.192
REMARK INTER + INTRA:          -9.793
REMARK INTER:                  -8.889
REMARK INTRA:                  -0.903
REMARK UNBOUND:                -0.859
REMARK  Name = 
REMARK  6 active torsions:
REMARK  status: ('A' for Active; 'I' for Inactive)
REMARK    1  A    between atoms: C_1  and  C_2
REMARK    2  A    between atoms: C_2  and  N_3
REMARK    3  A    between atoms: C_2  and  C_16
REMARK    4  A    between atoms: C_4  and  C_6
REMARK    5  A    between atoms: C_19  and  C_20
REMARK    6  A    between atoms: C_20  and  N_21
REMARK                            x       y       z     vdW  Elec       q    Type
REMARK                         _______ _______ _______ _____ _____    ______ ____
ROOT
ATOM      1  C   UNL     1      46.858   3.062  17.698  0.00  0.00    +0.000 C 
ATOM      2  C   UNL     1      47.663   3.419  16.444  0.00  0.00    +0.000 C 
ENDROOT
BRANCH   2   3
ATOM      3  C   UNL     1      49.027   3.990  16.862  0.00  0.00    +0.000 A 
ATOM      4  C   UNL     1      50.017   3.174  17.415  0.00  0.00    +0.000 A 
ATOM      5  C   UNL     1      51.289   3.702  17.663  0.00  0.00    +0.000 A 
ATOM      6  C   UNL     1      51.563   5.036  17.358  0.00  0.00    +0.000 A 
ATOM      7  C   UNL     1      50.504   5.787  16.858  0.00  0.00    +0.000 A 
ATOM      8  N   UNL     1      49.260   5.303  16.607  0.00  0.00    +0.000 NA
BRANCH   6   9
ATOM      9  C   UNL     1      52.932   5.639  17.530  0.00  0.00    +0.000 C 
BRANCH   9  10
ATOM     10  N   UNL     1      53.342   6.426  16.386  0.00  0.00    +0.000 N 
ATOM     11  C   UNL     1      53.461   7.789  16.508  0.00  0.00    +0.000 C 
ATOM     12  O   UNL     1      53.204   8.375  17.555  0.00  0.00    +0.000 OA
ATOM     13  N   UNL     1      53.913   8.434  15.364  0.00  0.00    +0.000 N 
ATOM     14  C   UNL     1      54.235   9.861  15.420  0.00  0.00    +0.000 C 
ATOM     15  C   UNL     1      53.281  10.679  14.550  0.00  0.00    +0.000 C 
ATOM     16  C   UNL     1      53.227  10.131  13.124  0.00  0.00    +0.000 C 
ATOM     17  C   UNL     1      52.918   8.635  13.124  0.00  0.00    +0.000 C 
ATOM     18  C   UNL     1      53.890   7.865  14.017  0.00  0.00    +0.000 C 
ATOM     19  H   UNL     1      54.065   6.014  15.817  0.00  0.00    +0.000 HD
ENDBRANCH   9  10
ENDBRANCH   6   9
ENDBRANCH   2   3
BRANCH   2  20
ATOM     20  N   UNL     1      46.939   4.335  15.566  0.00  0.00    +0.000 N 
ATOM     21  C   UNL     1      46.889   4.182  14.196  0.00  0.00    +0.000 C 
ATOM     22  O   UNL     1      47.390   3.230  13.611  0.00  0.00    +0.000 OA
ATOM     23  H   UNL     1      46.855   5.285  15.921  0.00  0.00    +0.000 HD
BRANCH  21  24
ATOM     24  C   UNL     1      46.126   5.201  13.462  0.00  0.00    +0.000 A 
ATOM     25  C   UNL     1      46.608   6.499  13.371  0.00  0.00    +0.000 A 
ATOM     26  S   UNL     1      45.603   7.542  12.466  0.00  0.00    +0.000 S 
ATOM     27  C   UNL     1      44.461   6.308  12.210  0.00  0.00    +0.000 A 
ATOM     28  N   UNL     1      43.308   6.546  11.530  0.00  0.00    +0.000 NA
ATOM     29  C   UNL     1      42.519   5.529  11.443  0.00  0.00    +0.000 A 
ATOM     30  N   UNL     1      42.787   4.285  11.960  0.00  0.00    +0.000 N 
ATOM     31  C   UNL     1      43.963   3.986  12.603  0.00  0.00    +0.000 A 
ATOM     32  O   UNL     1      44.214   2.843  12.970  0.00  0.00    +0.000 OA
ATOM     33  C   UNL     1      44.862   5.108  12.770  0.00  0.00    +0.000 A 
ATOM     34  H   UNL     1      42.141   3.521  11.834  0.00  0.00    +0.000 HD
ENDBRANCH  21  24
ENDBRANCH   2  20
TORSDOF 5
ENDMDL
MODEL 7
REMARK VINA RESULT:    -6.757      3.915      5.797
REMARK INTER + INTRA:          -9.591
REMARK INTER:                  -8.602
REMARK INTRA:                  -0.989
REMARK UNBOUND:                -0.859
REMARK  Name = 
REMARK  6 active torsions:
REMARK  status: ('A' for Active; 'I' for Inactive)
REMARK    1  A    between atoms: C_1  and  C_2
REMARK    2  A    between atoms: C_2  and  N_3
REMARK    3  A    between atoms: C_2  and  C_16
REMARK    4  A    between atoms: C_4  and  C_6
REMARK    5  A    between atoms: C_19  and  C_20
REMARK    6  A    between atoms: C_20  and  N_21
REMARK                            x       y       z     vdW  Elec       q    Type
REMARK                         _______ _______ _______ _____ _____    ______ ____
ROOT
ATOM      1  C   UNL     1      48.399   3.304  18.039  0.00  0.00    +0.000 C 
ATOM      2  C   UNL     1      49.425   4.422  17.820  0.00  0.00    +0.000 C 
ENDROOT
BRANCH   2   3
ATOM      3  C   UNL     1      48.989   5.286  16.628  0.00  0.00    +0.000 A 
ATOM      4  C   UNL     1      49.661   6.467  16.303  0.00  0.00    +0.000 A 
ATOM      5  C   UNL     1      49.317   7.159  15.136  0.00  0.00    +0.000 A 
ATOM      6  C   UNL     1      48.308   6.670  14.306  0.00  0.00    +0.000 A 
ATOM      7  C   UNL     1      47.659   5.516  14.733  0.00  0.00    +0.000 A 
ATOM      8  N   UNL     1      47.971   4.823  15.859  0.00  0.00    +0.000 NA
BRANCH   6   9
ATOM      9  C   UNL     1      47.948   7.328  13.000  0.00  0.00    +0.000 C 
BRANCH   9  10
ATOM     10  N   UNL     1      47.016   6.542  12.219  0.00  0.00    +0.000 N 
ATOM     11  C   UNL     1      45.673   6.828  12.277  0.00  0.00    +0.000 C 
ATOM     12  O   UNL     1      45.225   7.716  12.994  0.00  0.00    +0.000 OA
ATOM     13  N   UNL     1      44.880   6.047  11.445  0.00  0.00    +0.000 N 
ATOM     14  C   UNL     1      43.459   6.363  11.298  0.00  0.00    +0.000 C 
ATOM     15  C   UNL     1      42.581   5.250  11.868  0.00  0.00    +0.000 C 
ATOM     16  C   UNL     1      42.958   3.892  11.276  0.00  0.00    +0.000 C 
ATOM     17  C   UNL     1      44.454   3.624  11.429  0.00  0.00    +0.000 C 
ATOM     18  C   UNL     1      45.287   4.771  10.857  0.00  0.00    +0.000 C 
ATOM     19  H   UNL     1      47.330   6.298  11.292  0.00  0.00    +0.000 HD
ENDBRANCH   9  10
ENDBRANCH   6   9
ENDBRANCH   2   3
BRANCH   2  20
ATOM     20  N   UNL     1      50.779   3.901  17.644  0.00  0.00    +0.000 N 
ATOM     21  C   UNL     1      51.756   4.005  18.611  0.00  0.00    +0.000 C 
ATOM     22  O   UNL     1      51.552   4.483  19.720  0.00  0.00    +0.000 OA
ATOM     23  H   UNL     1      51.095   3.863  16.678  0.00  0.00    +0.000 HD
BRANCH  21  24
ATOM     24  C   UNL     1      53.067   3.438  18.265  0.00  0.00    +0.000 A 
ATOM     25  C   UNL     1      54.214   4.210  18.389  0.00  0.00    +0.000 A 
ATOM     26  S   UNL     1      55.646   3.384  17.962  0.00  0.00    +0.000 S 
ATOM     27  C   UNL     1      54.778   1.982  17.545  0.00  0.00    +0.000 A 
ATOM     28  N   UNL     1      55.409   0.885  17.049  0.00  0.00    +0.000 NA
ATOM     29  C   UNL     1      54.623  -0.092  16.742  0.00  0.00    +0.000 A 
ATOM     30  N   UNL     1      53.260  -0.077  16.903  0.00  0.00    +0.000 N 
ATOM     31  C   UNL     1      52.587   0.988  17.453  0.00  0.00    +0.000 A 
ATOM     32  O   UNL     1      51.382   0.935  17.671  0.00  0.00    +0.000 OA
ATOM     33  C   UNL     1      53.420   2.129  17.769  0.00  0.00    +0.000 A 
ATOM     34  H   UNL     1      52.701  -0.883  16.670  0.00  0.00    +0.000 HD
ENDBRANCH  21  24
ENDBRANCH   2  20
TORSDOF 5
ENDMDL
MODEL 8
REMARK VINA RESULT:    -6.446      4.718      8.365
REMARK INTER + INTRA:          -9.190
REMARK INTER:                  -8.302
REMARK INTRA:                  -0.887
REMARK UNBOUND:                -0.859
REMARK  Name = 
REMARK  6 active torsions:
REMARK  status: ('A' for Active; 'I' for Inactive)
REMARK    1  A    between atoms: C_1  and  C_2
REMARK    2  A    between atoms: C_2  and  N_3
REMARK    3  A    between atoms: C_2  and  C_16
REMARK    4  A    between atoms: C_4  and  C_6
REMARK    5  A    between atoms: C_19  and  C_20
REMARK    6  A    between atoms: C_20  and  N_21
REMARK                            x       y       z     vdW  Elec       q    Type
REMARK                         _______ _______ _______ _____ _____    ______ ____
ROOT
ATOM      1  C   UNL     1      45.285   9.410  12.331  0.00  0.00    +0.000 C 
ATOM      2  C   UNL     1      45.992   8.130  12.789  0.00  0.00    +0.000 C 
ENDROOT
BRANCH   2   3
ATOM      3  C   UNL     1      47.497   8.252  12.510  0.00  0.00    +0.000 A 
ATOM      4  C   UNL     1      48.015   9.321  11.774  0.00  0.00    +0.000 A 
ATOM      5  C   UNL     1      49.401   9.468  11.651  0.00  0.00    +0.000 A 
ATOM      6  C   UNL     1      50.258   8.550  12.259  0.00  0.00    +0.000 A 
ATOM      7  C   UNL     1      49.655   7.490  12.929  0.00  0.00    +0.000 A 
ATOM      8  N   UNL     1      48.314   7.321  13.065  0.00  0.00    +0.000 NA
BRANCH   6   9
ATOM      9  C   UNL     1      51.756   8.699  12.227  0.00  0.00    +0.000 C 
BRANCH   9  10
ATOM     10  N   UNL     1      52.341   8.181  11.008  0.00  0.00    +0.000 N 
ATOM     11  C   UNL     1      52.723   9.052  10.016  0.00  0.00    +0.000 C 
ATOM     12  O   UNL     1      52.560  10.263  10.113  0.00  0.00    +0.000 OA
ATOM     13  N   UNL     1      53.321   8.449   8.917  0.00  0.00    +0.000 N 
ATOM     14  C   UNL     1      53.915   9.282   7.871  0.00  0.00    +0.000 C 
ATOM     15  C   UNL     1      53.163   9.134   6.549  0.00  0.00    +0.000 C 
ATOM     16  C   UNL     1      53.038   7.664   6.147  0.00  0.00    +0.000 C 
ATOM     17  C   UNL     1      52.442   6.835   7.282  0.00  0.00    +0.000 C 
ATOM     18  C   UNL     1      53.221   7.028   8.583  0.00  0.00    +0.000 C 
ATOM     19  H   UNL     1      52.983   7.414  11.131  0.00  0.00    +0.000 HD
ENDBRANCH   9  10
ENDBRANCH   6   9
ENDBRANCH   2   3
BRANCH   2  20
ATOM     20  N   UNL     1      45.423   6.934  12.172  0.00  0.00    +0.000 N 
ATOM     21  C   UNL     1      45.413   5.701  12.788  0.00  0.00    +0.000 C 
ATOM     22  O   UNL     1      45.820   5.520  13.930  0.00  0.00    +0.000 OA
ATOM     23  H   UNL     1      45.439   6.934  11.155  0.00  0.00    +0.000 HD
BRANCH  21  24
ATOM     24  C   UNL     1      44.811   4.602  12.020  0.00  0.00    +0.000 A 
ATOM     25  C   UNL     1      44.001   3.671  12.656  0.00  0.00    +0.000 A 
ATOM     26  S   UNL     1      43.374   2.478  11.607  0.00  0.00    +0.000 S 
ATOM     27  C   UNL     1      44.207   3.132  10.276  0.00  0.00    +0.000 A 
ATOM     28  N   UNL     1      44.140   2.551   9.050  0.00  0.00    +0.000 NA
ATOM     29  C   UNL     1      44.850   3.134   8.143  0.00  0.00    +0.000 A 
ATOM     30  N   UNL     1      45.608   4.259   8.348  0.00  0.00    +0.000 N 
ATOM     31  C   UNL     1      45.659   4.912   9.555  0.00  0.00    +0.000 A 
ATOM     32  O   UNL     1      46.269   5.968   9.683  0.00  0.00    +0.000 OA
ATOM     33  C   UNL     1      44.917   4.269  10.620  0.00  0.00    +0.000 A 
ATOM     34  H   UNL     1      46.120   4.685   7.590  0.00  0.00    +0.000 HD
ENDBRANCH  21  24
ENDBRANCH   2  20
TORSDOF 5
ENDMDL
MODEL 9
REMARK VINA RESULT:    -6.243      3.667      9.534
REMARK INTER + INTRA:          -8.928
REMARK INTER:                  -7.882
REMARK INTRA:                  -1.045
REMARK UNBOUND:                -0.859
REMARK  Name = 
REMARK  6 active torsions:
REMARK  status: ('A' for Active; 'I' for Inactive)
REMARK    1  A    between atoms: C_1  and  C_2
REMARK    2  A    between atoms: C_2  and  N_3
REMARK    3  A    between atoms: C_2  and  C_16
REMARK    4  A    between atoms: C_4  and  C_6
REMARK    5  A    between atoms: C_19  and  C_20
REMARK    6  A    between atoms: C_20  and  N_21
REMARK                            x       y       z     vdW  Elec       q    Type
REMARK                         _______ _______ _______ _____ _____    ______ ____
ROOT
ATOM      1  C   UNL     1      46.248   3.749  13.294  0.00  0.00    +0.000 C 
ATOM      2  C   UNL     1      47.155   4.949  13.591  0.00  0.00    +0.000 C 
ENDROOT
BRANCH   2   3
ATOM      3  C   UNL     1      47.525   4.950  15.081  0.00  0.00    +0.000 A 
ATOM      4  C   UNL     1      46.959   4.033  15.971  0.00  0.00    +0.000 A 
ATOM      5  C   UNL     1      47.416   3.980  17.293  0.00  0.00    +0.000 A 
ATOM      6  C   UNL     1      48.429   4.841  17.716  0.00  0.00    +0.000 A 
ATOM      7  C   UNL     1      48.898   5.755  16.778  0.00  0.00    +0.000 A 
ATOM      8  N   UNL     1      48.475   5.829  15.490  0.00  0.00    +0.000 NA
BRANCH   6   9
ATOM      9  C   UNL     1      49.014   4.779  19.103  0.00  0.00    +0.000 C 
BRANCH   9  10
ATOM     10  N   UNL     1      50.338   4.192  19.123  0.00  0.00    +0.000 N 
ATOM     11  C   UNL     1      51.406   4.945  19.549  0.00  0.00    +0.000 C 
ATOM     12  O   UNL     1      51.284   6.116  19.890  0.00  0.00    +0.000 OA
ATOM     13  N   UNL     1      52.616   4.264  19.578  0.00  0.00    +0.000 N 
ATOM     14  C   UNL     1      53.792   4.908  20.165  0.00  0.00    +0.000 C 
ATOM     15  C   UNL     1      54.866   5.169  19.110  0.00  0.00    +0.000 C 
ATOM     16  C   UNL     1      55.203   3.893  18.338  0.00  0.00    +0.000 C 
ATOM     17  C   UNL     1      53.941   3.246  17.773  0.00  0.00    +0.000 C 
ATOM     18  C   UNL     1      52.895   3.018  18.863  0.00  0.00    +0.000 C 
ATOM     19  H   UNL     1      50.379   3.234  19.432  0.00  0.00    +0.000 HD
ENDBRANCH   9  10
ENDBRANCH   6   9
ENDBRANCH   2   3
BRANCH   2  20
ATOM     20  N   UNL     1      46.548   6.213  13.183  0.00  0.00    +0.000 N 
ATOM     21  C   UNL     1      47.216   7.163  12.439  0.00  0.00    +0.000 C 
ATOM     22  O   UNL     1      48.348   6.997  12.004  0.00  0.00    +0.000 OA
ATOM     23  H   UNL     1      45.818   6.553  13.805  0.00  0.00    +0.000 HD
BRANCH  21  24
ATOM     24  C   UNL     1      46.460   8.384  12.126  0.00  0.00    +0.000 A 
ATOM     25  C   UNL     1      47.038   9.630  12.325  0.00  0.00    +0.000 A 
ATOM     26  S   UNL     1      46.024  10.933  11.890  0.00  0.00    +0.000 S 
ATOM     27  C   UNL     1      44.757   9.880  11.470  0.00  0.00    +0.000 A 
ATOM     28  N   UNL     1      43.555  10.355  11.050  0.00  0.00    +0.000 NA
ATOM     29  C   UNL     1      42.676   9.444  10.800  0.00  0.00    +0.000 A 
ATOM     30  N   UNL     1      42.897   8.094  10.915  0.00  0.00    +0.000 N 
ATOM     31  C   UNL     1      44.112   7.567  11.280  0.00  0.00    +0.000 A 
ATOM     32  O   UNL     1      44.306   6.357  11.283  0.00  0.00    +0.000 OA
ATOM     33  C   UNL     1      45.119   8.552  11.619  0.00  0.00    +0.000 A 
ATOM     34  H   UNL     1      42.177   7.429  10.678  0.00  0.00    +0.000 HD
ENDBRANCH  21  24
ENDBRANCH   2  20
TORSDOF 5
ENDMDL
