MODEL 1
REMARK VINA RESULT:    -7.239      0.000      0.000
REMARK INTER + INTRA:          -9.442
REMARK INTER:                  -8.932
REMARK INTRA:                  -0.510
REMARK UNBOUND:                -0.510
REMARK  Name = 
REMARK  6 active torsions:
REMARK  status: ('A' for Active; 'I' for Inactive)
REMARK    1  A    between atoms: C_1  and  C_2
REMARK    2  A    between atoms: C_9  and  C_10
REMARK    3  A    between atoms: C_10  and  N_11
REMARK    4  A    between atoms: N_11  and  C_12
REMARK    5  A    between atoms: C_15  and  C_16
REMARK    6  A    between atoms: C_25  and  C_26
REMARK                            x       y       z     vdW  Elec       q    Type
REMARK                         _______ _______ _______ _____ _____    ______ ____
ROOT
ATOM      1  C   UNL     1      47.943   7.429  13.570  0.00  0.00    +0.000 C 
ATOM      2  C   UNL     1      48.937   6.678  12.710  0.00  0.00    +0.000 C 
ATOM      3  C   UNL     1      48.658   8.108  12.397  0.00  0.00    +0.000 C 
ENDROOT
BRANCH   1  12
ATOM      4  C   UNL     1      46.959   5.764  19.180  0.00  0.00    +0.000 C 
ATOM      5  C   UNL     1      48.338   5.187  19.494  0.00  0.00    +0.000 C 
ATOM      6  C   UNL     1      49.515   6.134  19.159  0.00  0.00    +0.000 C 
ATOM      7  N   UNL     1      49.794   6.165  17.723  0.00  0.00    +0.000 N 
ATOM      8  C   UNL     1      49.245   7.193  16.988  0.00  0.00    +0.000 A 
ATOM      9  N   UNL     1      49.000   8.385  17.551  0.00  0.00    +0.000 NA
ATOM     10  C   UNL     1      48.484   9.348  16.766  0.00  0.00    +0.000 A 
ATOM     11  C   UNL     1      48.159   9.158  15.445  0.00  0.00    +0.000 A 
ATOM     12  C   UNL     1      48.390   7.895  14.950  0.00  0.00    +0.000 A 
ATOM     13  N   UNL     1      48.975   6.948  15.706  0.00  0.00    +0.000 NA
ATOM     14  C   UNL     1      49.882   4.839  17.090  0.00  0.00    +0.000 C 
ATOM     15  C   UNL     1      48.677   3.953  17.463  0.00  0.00    +0.000 C 
ATOM     16  C   UNL     1      48.890   2.525  16.971  0.00  0.00    +0.000 C 
ATOM     17  O   UNL     1      48.500   3.888  18.891  0.00  0.00    +0.000 OA
ENDBRANCH   1  12
BRANCH   1  18
ATOM     18  N   UNL     1      46.475   7.401  13.393  0.00  0.00    +0.000 N 
ATOM     19  H   UNL     1      45.967   7.866  14.147  0.00  0.00    +0.000 HD
BRANCH  18  20
ATOM     20  C   UNL     1      45.767   6.314  12.861  0.00  0.00    +0.000 A 
ATOM     21  C   UNL     1      45.355   6.358  11.522  0.00  0.00    +0.000 A 
ATOM     22  C   UNL     1      44.748   5.251  10.933  0.00  0.00    +0.000 A 
ATOM     23  C   UNL     1      44.580   4.113  11.707  0.00  0.00    +0.000 A 
ATOM     24  N   UNL     1      44.979   4.014  13.007  0.00  0.00    +0.000 NA
ATOM     25  C   UNL     1      45.569   5.111  13.533  0.00  0.00    +0.000 A 
BRANCH  23  26
ATOM     26  C   UNL     1      43.941   2.887  11.133  0.00  0.00    +0.000 C 
ATOM     27  N   UNL     1      44.551   2.409  10.006  0.00  0.00    +0.000 N 
ATOM     28  O   UNL     1      42.957   2.345  11.627  0.00  0.00    +0.000 OA
ATOM     29  H   UNL     1      45.365   2.895   9.638  0.00  0.00    +0.000 HD
ATOM     30  H   UNL     1      44.197   1.582   9.544  0.00  0.00    +0.000 HD
ENDBRANCH  23  26
ENDBRANCH  18  20
ENDBRANCH   1  18
TORSDOF 4
ENDMDL
MODEL 2
REMARK VINA RESULT:    -6.056      1.976      3.234
REMARK INTER + INTRA:          -7.982
REMARK INTER:                  -7.984
REMARK INTRA:                   0.002
REMARK UNBOUND:                -0.510
REMARK  Name = 
REMARK  6 active torsions:
REMARK  status: ('A' for Active; 'I' for Inactive)
REMARK    1  A    between atoms: C_1  and  C_2
REMARK    2  A    between atoms: C_9  and  C_10
REMARK    3  A    between atoms: C_10  and  N_11
REMARK    4  A    between atoms: N_11  and  C_12
REMARK    5  A    between atoms: C_15  and  C_16
REMARK    6  A    between atoms: C_25  and  C_26
REMARK                            x       y       z     vdW  Elec       q    Type
REMARK                         _______ _______ _______ _____ _____    ______ ____
ROOT
ATOM      1  C   UNL     1      47.463   5.961  14.079  0.00  0.00    +0.000 C 
ATOM      2  C   UNL     1      48.662   6.339  13.235  0.00  0.00    +0.000 C 
ATOM      3  C   UNL     1      48.058   7.372  14.123  0.00  0.00    +0.000 C 
ENDROOT
BRANCH   1  12
ATOM      4  C   UNL     1      52.086   4.708  17.583  0.00  0.00    +0.000 C 
ATOM      5  C   UNL     1      51.664   5.506  18.815  0.00  0.00    +0.000 C 
ATOM      6  C   UNL     1      50.223   5.218  19.296  0.00  0.00    +0.000 C 
ATOM      7  N   UNL     1      49.226   5.883  18.457  0.00  0.00    +0.000 N 
ATOM      8  C   UNL     1      48.641   5.143  17.452  0.00  0.00    +0.000 A 
ATOM      9  N   UNL     1      48.496   3.815  17.574  0.00  0.00    +0.000 NA
ATOM     10  C   UNL     1      47.895   3.161  16.563  0.00  0.00    +0.000 A 
ATOM     11  C   UNL     1      47.470   3.773  15.409  0.00  0.00    +0.000 A 
ATOM     12  C   UNL     1      47.699   5.128  15.334  0.00  0.00    +0.000 A 
ATOM     13  N   UNL     1      48.231   5.802  16.370  0.00  0.00    +0.000 NA
ATOM     14  C   UNL     1      49.504   7.303  18.189  0.00  0.00    +0.000 C 
ATOM     15  C   UNL     1      50.954   7.515  17.709  0.00  0.00    +0.000 C 
ATOM     16  C   UNL     1      51.282   9.004  17.639  0.00  0.00    +0.000 C 
ATOM     17  O   UNL     1      51.896   6.915  18.618  0.00  0.00    +0.000 OA
ENDBRANCH   1  12
BRANCH   1  18
ATOM     18  N   UNL     1      46.061   5.956  13.611  0.00  0.00    +0.000 N 
ATOM     19  H   UNL     1      45.379   5.979  14.372  0.00  0.00    +0.000 HD
BRANCH  18  20
ATOM     20  C   UNL     1      45.604   5.227  12.504  0.00  0.00    +0.000 A 
ATOM     21  C   UNL     1      45.645   5.819  11.234  0.00  0.00    +0.000 A 
ATOM     22  C   UNL     1      45.302   5.084  10.101  0.00  0.00    +0.000 A 
ATOM     23  C   UNL     1      44.936   3.758  10.272  0.00  0.00    +0.000 A 
ATOM     24  N   UNL     1      44.897   3.132  11.483  0.00  0.00    +0.000 NA
ATOM     25  C   UNL     1      45.244   3.883  12.552  0.00  0.00    +0.000 A 
BRANCH  23  26
ATOM     26  C   UNL     1      44.563   2.911   9.096  0.00  0.00    +0.000 C 
ATOM     27  N   UNL     1      44.249   3.619   7.969  0.00  0.00    +0.000 N 
ATOM     28  O   UNL     1      44.543   1.685   9.127  0.00  0.00    +0.000 OA
ATOM     29  H   UNL     1      44.283   4.636   7.995  0.00  0.00    +0.000 HD
ATOM     30  H   UNL     1      43.986   3.139   7.119  0.00  0.00    +0.000 HD
ENDBRANCH  23  26
ENDBRANCH  18  20
ENDBRANCH   1  18
TORSDOF 4
ENDMDL
MODEL 3
REMARK VINA RESULT:    -6.024      1.818      2.150
REMARK INTER + INTRA:          -7.943
REMARK INTER:                  -7.954
REMARK INTRA:                   0.011
REMARK UNBOUND:                -0.510
REMARK  Name = 
REMARK  6 active torsions:
REMARK  status: ('A' for Active; 'I' for Inactive)
REMARK    1  A    between atoms: C_1  and  C_2
REMARK    2  A    between atoms: C_9  and  C_10
REMARK    3  A    between atoms: C_10  and  N_11
REMARK    4  A    between atoms: N_11  and  C_12
REMARK    5  A    between atoms: C_15  and  C_16
REMARK    6  A    between atoms: C_25  and  C_26
REMARK                            x       y       z     vdW  Elec       q    Type
REMARK                         _______ _______ _______ _____ _____    ______ ____
ROOT
ATOM      1  C   UNL     1      49.325   7.862  13.845  0.00  0.00    +0.000 C 
ATOM      2  C   UNL     1      49.207   9.264  13.285  0.00  0.00    +0.000 C 
ATOM      3  C   UNL     1      48.145   8.771  14.206  0.00  0.00    +0.000 C 
ENDROOT
BRANCH   1  12
ATOM      4  C   UNL     1      48.988   6.777  19.669  0.00  0.00    +0.000 C 
ATOM      5  C   UNL     1      49.430   5.315  19.658  0.00  0.00    +0.000 C 
ATOM      6  C   UNL     1      50.750   5.057  18.893  0.00  0.00    +0.000 C 
ATOM      7  N   UNL     1      50.550   5.065  17.444  0.00  0.00    +0.000 N 
ATOM      8  C   UNL     1      50.821   6.235  16.769  0.00  0.00    +0.000 A 
ATOM      9  N   UNL     1      51.747   7.092  17.225  0.00  0.00    +0.000 NA
ATOM     10  C   UNL     1      51.975   8.203  16.500  0.00  0.00    +0.000 A 
ATOM     11  C   UNL     1      51.284   8.519  15.357  0.00  0.00    +0.000 A 
ATOM     12  C   UNL     1      50.315   7.618  14.978  0.00  0.00    +0.000 A 
ATOM     13  N   UNL     1      50.131   6.469  15.654  0.00  0.00    +0.000 NA
ATOM     14  C   UNL     1      49.411   4.255  16.981  0.00  0.00    +0.000 C 
ATOM     15  C   UNL     1      48.131   4.568  17.782  0.00  0.00    +0.000 C 
ATOM     16  C   UNL     1      47.026   3.577  17.432  0.00  0.00    +0.000 C 
ATOM     17  O   UNL     1      48.364   4.460  19.199  0.00  0.00    +0.000 OA
ENDBRANCH   1  12
BRANCH   1  18
ATOM     18  N   UNL     1      48.893   6.630  13.150  0.00  0.00    +0.000 N 
ATOM     19  H   UNL     1      49.346   6.496  12.245  0.00  0.00    +0.000 HD
BRANCH  18  20
ATOM     20  C   UNL     1      47.582   6.133  13.173  0.00  0.00    +0.000 A 
ATOM     21  C   UNL     1      46.691   6.516  12.162  0.00  0.00    +0.000 A 
ATOM     22  C   UNL     1      45.417   5.954  12.093  0.00  0.00    +0.000 A 
ATOM     23  C   UNL     1      45.073   5.004  13.042  0.00  0.00    +0.000 A 
ATOM     24  N   UNL     1      45.910   4.586  14.034  0.00  0.00    +0.000 NA
ATOM     25  C   UNL     1      47.137   5.153  14.056  0.00  0.00    +0.000 A 
BRANCH  23  26
ATOM     26  C   UNL     1      43.723   4.358  13.021  0.00  0.00    +0.000 C 
ATOM     27  N   UNL     1      42.677   5.234  13.111  0.00  0.00    +0.000 N 
ATOM     28  O   UNL     1      43.557   3.146  12.925  0.00  0.00    +0.000 OA
ATOM     29  H   UNL     1      42.869   6.230  13.187  0.00  0.00    +0.000 HD
ATOM     30  H   UNL     1      41.724   4.897  13.102  0.00  0.00    +0.000 HD
ENDBRANCH  23  26
ENDBRANCH  18  20
ENDBRANCH   1  18
TORSDOF 4
ENDMDL
MODEL 4
REMARK VINA RESULT:    -5.820      3.310      7.616
REMARK INTER + INTRA:          -7.691
REMARK INTER:                  -7.200
REMARK INTRA:                  -0.491
REMARK UNBOUND:                -0.510
REMARK  Name = 
REMARK  6 active torsions:
REMARK  status: ('A' for Active; 'I' for Inactive)
REMARK    1  A    between atoms: C_1  and  C_2
REMARK    2  A    between atoms: C_9  and  C_10
REMARK    3  A    between atoms: C_10  and  N_11
REMARK    4  A    between atoms: N_11  and  C_12
REMARK    5  A    between atoms: C_15  and  C_16
REMARK    6  A    between atoms: C_25  and  C_26
REMARK                            x       y       z     vdW  Elec       q    Type
REMARK                         _______ _______ _______ _____ _____    ______ ____
ROOT
ATOM      1  C   UNL     1      48.595   5.233  17.377  0.00  0.00    +0.000 C 
ATOM      2  C   UNL     1      47.593   4.946  18.476  0.00  0.00    +0.000 C 
ATOM      3  C   UNL     1      47.908   6.365  18.149  0.00  0.00    +0.000 C 
ENDROOT
BRANCH   1  12
ATOM      4  C   UNL     1      46.185   8.745  13.246  0.00  0.00    +0.000 C 
ATOM      5  C   UNL     1      47.390   8.868  12.316  0.00  0.00    +0.000 C 
ATOM      6  C   UNL     1      48.023   7.515  11.914  0.00  0.00    +0.000 C 
ATOM      7  N   UNL     1      48.841   6.957  12.991  0.00  0.00    +0.000 N 
ATOM      8  C   UNL     1      48.259   6.017  13.813  0.00  0.00    +0.000 A 
ATOM      9  N   UNL     1      47.286   5.215  13.357  0.00  0.00    +0.000 NA
ATOM     10  C   UNL     1      46.780   4.305  14.209  0.00  0.00    +0.000 A 
ATOM     11  C   UNL     1      47.176   4.190  15.519  0.00  0.00    +0.000 A 
ATOM     12  C   UNL     1      48.143   5.079  15.930  0.00  0.00    +0.000 A 
ATOM     13  N   UNL     1      48.707   5.942  15.065  0.00  0.00    +0.000 NA
ATOM     14  C   UNL     1      49.783   7.911  13.599  0.00  0.00    +0.000 C 
ATOM     15  C   UNL     1      49.084   9.232  13.979  0.00  0.00    +0.000 C 
ATOM     16  C   UNL     1      50.110  10.275  14.411  0.00  0.00    +0.000 C 
ATOM     17  O   UNL     1      48.365   9.781  12.858  0.00  0.00    +0.000 OA
ENDBRANCH   1  12
BRANCH   1  18
ATOM     18  N   UNL     1      50.064   5.247  17.549  0.00  0.00    +0.000 N 
ATOM     19  H   UNL     1      50.531   5.954  16.979  0.00  0.00    +0.000 HD
BRANCH  18  20
ATOM     20  C   UNL     1      50.846   4.096  17.724  0.00  0.00    +0.000 A 
ATOM     21  C   UNL     1      50.345   2.860  17.292  0.00  0.00    +0.000 A 
ATOM     22  C   UNL     1      51.141   1.717  17.352  0.00  0.00    +0.000 A 
ATOM     23  C   UNL     1      52.434   1.849  17.835  0.00  0.00    +0.000 A 
ATOM     24  N   UNL     1      52.971   3.031  18.250  0.00  0.00    +0.000 NA
ATOM     25  C   UNL     1      52.165   4.113  18.168  0.00  0.00    +0.000 A 
BRANCH  23  26
ATOM     26  C   UNL     1      53.342   0.662  17.918  0.00  0.00    +0.000 C 
ATOM     27  N   UNL     1      53.386  -0.094  16.780  0.00  0.00    +0.000 N 
ATOM     28  O   UNL     1      53.999   0.385  18.916  0.00  0.00    +0.000 OA
ATOM     29  H   UNL     1      52.822   0.180  15.979  0.00  0.00    +0.000 HD
ATOM     30  H   UNL     1      53.973  -0.916  16.733  0.00  0.00    +0.000 HD
ENDBRANCH  23  26
ENDBRANCH  18  20
ENDBRANCH   1  18
TORSDOF 4
ENDMDL
MODEL 5
REMARK VINA RESULT:    -5.741      1.694      2.245
REMARK INTER + INTRA:          -7.593
REMARK INTER:                  -6.746
REMARK INTRA:                  -0.847
REMARK UNBOUND:                -0.510
REMARK  Name = 
REMARK  6 active torsions:
REMARK  status: ('A' for Active; 'I' for Inactive)
REMARK    1  A    between atoms: C_1  and  C_2
REMARK    2  A    between atoms: C_9  and  C_10
REMARK    3  A    between atoms: C_10  and  N_11
REMARK    4  A    between atoms: N_11  and  C_12
REMARK    5  A    between atoms: C_15  and  C_16
REMARK    6  A    between atoms: C_25  and  C_26
REMARK                            x       y       z     vdW  Elec       q    Type
REMARK                         _______ _______ _______ _____ _____    ______ ____
ROOT
ATOM      1  C   UNL     1      49.741   8.470  14.308  0.00  0.00    +0.000 C 
ATOM      2  C   UNL     1      51.082   7.798  14.099  0.00  0.00    +0.000 C 
ATOM      3  C   UNL     1      50.986   9.275  13.921  0.00  0.00    +0.000 C 
ENDROOT
BRANCH   1  12
ATOM      4  C   UNL     1      47.067   5.188  18.466  0.00  0.00    +0.000 C 
ATOM      5  C   UNL     1      48.241   5.041  19.433  0.00  0.00    +0.000 C 
ATOM      6  C   UNL     1      48.922   6.376  19.815  0.00  0.00    +0.000 C 
ATOM      7  N   UNL     1      49.792   6.867  18.747  0.00  0.00    +0.000 N 
ATOM      8  C   UNL     1      49.275   7.807  17.883  0.00  0.00    +0.000 A 
ATOM      9  N   UNL     1      48.325   8.663  18.288  0.00  0.00    +0.000 NA
ATOM     10  C   UNL     1      47.884   9.569  17.396  0.00  0.00    +0.000 A 
ATOM     11  C   UNL     1      48.320   9.628  16.095  0.00  0.00    +0.000 A 
ATOM     12  C   UNL     1      49.257   8.686  15.737  0.00  0.00    +0.000 A 
ATOM     13  N   UNL     1      49.759   7.825  16.642  0.00  0.00    +0.000 NA
ATOM     14  C   UNL     1      50.707   5.856  18.192  0.00  0.00    +0.000 C 
ATOM     15  C   UNL     1      49.961   4.556  17.830  0.00  0.00    +0.000 C 
ATOM     16  C   UNL     1      50.951   3.457  17.457  0.00  0.00    +0.000 C 
ATOM     17  O   UNL     1      49.189   4.071  18.945  0.00  0.00    +0.000 OA
ENDBRANCH   1  12
BRANCH   1  18
ATOM     18  N   UNL     1      48.671   8.566  13.291  0.00  0.00    +0.000 N 
ATOM     19  H   UNL     1      48.366   9.525  13.114  0.00  0.00    +0.000 HD
BRANCH  18  20
ATOM     20  C   UNL     1      47.628   7.638  13.156  0.00  0.00    +0.000 A 
ATOM     21  C   UNL     1      47.878   6.288  13.436  0.00  0.00    +0.000 A 
ATOM     22  C   UNL     1      46.838   5.360  13.418  0.00  0.00    +0.000 A 
ATOM     23  C   UNL     1      45.562   5.818  13.130  0.00  0.00    +0.000 A 
ATOM     24  N   UNL     1      45.266   7.122  12.869  0.00  0.00    +0.000 NA
ATOM     25  C   UNL     1      46.304   7.987  12.904  0.00  0.00    +0.000 A 
BRANCH  23  26
ATOM     26  C   UNL     1      44.401   4.874  13.102  0.00  0.00    +0.000 C 
ATOM     27  N   UNL     1      43.178   5.485  13.087  0.00  0.00    +0.000 N 
ATOM     28  O   UNL     1      44.524   3.653  13.087  0.00  0.00    +0.000 OA
ATOM     29  H   UNL     1      43.130   6.502  13.098  0.00  0.00    +0.000 HD
ATOM     30  H   UNL     1      42.330   4.935  13.064  0.00  0.00    +0.000 HD
ENDBRANCH  23  26
ENDBRANCH  18  20
ENDBRANCH   1  18
TORSDOF 4
ENDMDL
MODEL 6
REMARK VINA RESULT:    -5.573      2.382      4.347
REMARK INTER + INTRA:          -7.386
REMARK INTER:                  -7.031
REMARK INTRA:                  -0.355
REMARK UNBOUND:                -0.510
REMARK  Name = 
REMARK  6 active torsions:
REMARK  status: ('A' for Active; 'I' for Inactive)
REMARK    1  A    between atoms: C_1  and  C_2
REMARK    2  A    between atoms: C_9  and  C_10
REMARK    3  A    between atoms: C_10  and  N_11
REMARK    4  A    between atoms: N_11  and  C_12
REMARK    5  A    between atoms: C_15  and  C_16
REMARK    6  A    between atoms: C_25  and  C_26
REMARK                            x       y       z     vdW  Elec       q    Type
REMARK                         _______ _______ _______ _____ _____    ______ ____
ROOT
ATOM      1  C   UNL     1      47.804   4.225  16.184  0.00  0.00    +0.000 C 
ATOM      2  C   UNL     1      46.935   3.338  17.050  0.00  0.00    +0.000 C 
ATOM      3  C   UNL     1      48.325   2.897  16.744  0.00  0.00    +0.000 C 
ENDROOT
BRANCH   1  12
ATOM      4  C   UNL     1      52.443   7.749  15.055  0.00  0.00    +0.000 C 
ATOM      5  C   UNL     1      51.683   8.988  14.587  0.00  0.00    +0.000 C 
ATOM      6  C   UNL     1      50.569   9.454  15.555  0.00  0.00    +0.000 C 
ATOM      7  N   UNL     1      49.375   8.615  15.453  0.00  0.00    +0.000 N 
ATOM      8  C   UNL     1      49.230   7.596  16.369  0.00  0.00    +0.000 A 
ATOM      9  N   UNL     1      49.756   7.699  17.598  0.00  0.00    +0.000 NA
ATOM     10  C   UNL     1      49.555   6.675  18.448  0.00  0.00    +0.000 A 
ATOM     11  C   UNL     1      48.885   5.526  18.106  0.00  0.00    +0.000 A 
ATOM     12  C   UNL     1      48.418   5.471  16.813  0.00  0.00    +0.000 A 
ATOM     13  N   UNL     1      48.549   6.520  15.980  0.00  0.00    +0.000 NA
ATOM     14  C   UNL     1      48.918   8.368  14.075  0.00  0.00    +0.000 C 
ATOM     15  C   UNL     1      50.077   7.903  13.170  0.00  0.00    +0.000 C 
ATOM     16  C   UNL     1      49.630   7.856  11.712  0.00  0.00    +0.000 C 
ATOM     17  O   UNL     1      51.192   8.812  13.243  0.00  0.00    +0.000 OA
ENDBRANCH   1  12
BRANCH   1  18
ATOM     18  N   UNL     1      47.791   4.244  14.705  0.00  0.00    +0.000 N 
ATOM     19  H   UNL     1      48.609   4.701  14.298  0.00  0.00    +0.000 HD
BRANCH  18  20
ATOM     20  C   UNL     1      46.636   4.426  13.931  0.00  0.00    +0.000 A 
ATOM     21  C   UNL     1      46.182   5.728  13.680  0.00  0.00    +0.000 A 
ATOM     22  C   UNL     1      45.103   5.947  12.825  0.00  0.00    +0.000 A 
ATOM     23  C   UNL     1      44.512   4.844  12.229  0.00  0.00    +0.000 A 
ATOM     24  N   UNL     1      44.927   3.561  12.427  0.00  0.00    +0.000 NA
ATOM     25  C   UNL     1      45.981   3.398  13.258  0.00  0.00    +0.000 A 
BRANCH  23  26
ATOM     26  C   UNL     1      43.354   5.011  11.295  0.00  0.00    +0.000 C 
ATOM     27  N   UNL     1      43.666   4.838   9.975  0.00  0.00    +0.000 N 
ATOM     28  O   UNL     1      42.217   5.274  11.671  0.00  0.00    +0.000 OA
ATOM     29  H   UNL     1      44.625   4.618   9.715  0.00  0.00    +0.000 HD
ATOM     30  H   UNL     1      42.952   4.926   9.264  0.00  0.00    +0.000 HD
ENDBRANCH  23  26
ENDBRANCH  18  20
ENDBRANCH   1  18
TORSDOF 4
ENDMDL
MODEL 7
REMARK VINA RESULT:    -5.553      2.248      3.778
REMARK INTER + INTRA:          -7.362
REMARK INTER:                  -7.087
REMARK INTRA:                  -0.275
REMARK UNBOUND:                -0.510
REMARK  Name = 
REMARK  6 active torsions:
REMARK  status: ('A' for Active; 'I' for Inactive)
REMARK    1  A    between atoms: C_1  and  C_2
REMARK    2  A    between atoms: C_9  and  C_10
REMARK    3  A    between atoms: C_10  and  N_11
REMARK    4  A    between atoms: N_11  and  C_12
REMARK    5  A    between atoms: C_15  and  C_16
REMARK    6  A    between atoms: C_25  and  C_26
REMARK                            x       y       z     vdW  Elec       q    Type
REMARK                         _______ _______ _______ _____ _____    ______ ____
ROOT
ATOM      1  C   UNL     1      47.621   4.541  16.594  0.00  0.00    +0.000 C 
ATOM      2  C   UNL     1      47.040   3.221  17.054  0.00  0.00    +0.000 C 
ATOM      3  C   UNL     1      48.511   3.317  16.838  0.00  0.00    +0.000 C 
ENDROOT
BRANCH   1  12
ATOM      4  C   UNL     1      52.113   7.069  19.533  0.00  0.00    +0.000 C 
ATOM      5  C   UNL     1      52.123   8.421  18.821  0.00  0.00    +0.000 C 
ATOM      6  C   UNL     1      50.743   9.117  18.760  0.00  0.00    +0.000 C 
ATOM      7  N   UNL     1      49.880   8.524  17.739  0.00  0.00    +0.000 N 
ATOM      8  C   UNL     1      48.967   7.575  18.148  0.00  0.00    +0.000 A 
ATOM      9  N   UNL     1      48.455   7.604  19.386  0.00  0.00    +0.000 NA
ATOM     10  C   UNL     1      47.552   6.659  19.708  0.00  0.00    +0.000 A 
ATOM     11  C   UNL     1      47.169   5.654  18.854  0.00  0.00    +0.000 A 
ATOM     12  C   UNL     1      47.775   5.659  17.619  0.00  0.00    +0.000 A 
ATOM     13  N   UNL     1      48.622   6.641  17.262  0.00  0.00    +0.000 NA
ATOM     14  C   UNL     1      50.523   8.336  16.429  0.00  0.00    +0.000 C 
ATOM     15  C   UNL     1      51.889   7.633  16.565  0.00  0.00    +0.000 C 
ATOM     16  C   UNL     1      52.628   7.637  15.230  0.00  0.00    +0.000 C 
ATOM     17  O   UNL     1      52.730   8.309  17.518  0.00  0.00    +0.000 OA
ENDBRANCH   1  12
BRANCH   1  18
ATOM     18  N   UNL     1      47.674   5.003  15.190  0.00  0.00    +0.000 N 
ATOM     19  H   UNL     1      48.044   5.950  15.089  0.00  0.00    +0.000 HD
BRANCH  18  20
ATOM     20  C   UNL     1      46.703   4.700  14.225  0.00  0.00    +0.000 A 
ATOM     21  C   UNL     1      45.937   5.740  13.680  0.00  0.00    +0.000 A 
ATOM     22  C   UNL     1      45.042   5.488  12.642  0.00  0.00    +0.000 A 
ATOM     23  C   UNL     1      44.948   4.190  12.165  0.00  0.00    +0.000 A 
ATOM     24  N   UNL     1      45.683   3.149  12.649  0.00  0.00    +0.000 NA
ATOM     25  C   UNL     1      46.543   3.442  13.651  0.00  0.00    +0.000 A 
BRANCH  23  26
ATOM     26  C   UNL     1      44.011   3.853  11.047  0.00  0.00    +0.000 C 
ATOM     27  N   UNL     1      43.827   4.863  10.143  0.00  0.00    +0.000 N 
ATOM     28  O   UNL     1      43.454   2.766  10.938  0.00  0.00    +0.000 OA
ATOM     29  H   UNL     1      44.314   5.746  10.279  0.00  0.00    +0.000 HD
ATOM     30  H   UNL     1      43.215   4.734   9.349  0.00  0.00    +0.000 HD
ENDBRANCH  23  26
ENDBRANCH  18  20
ENDBRANCH   1  18
TORSDOF 4
ENDMDL
MODEL 8
REMARK VINA RESULT:    -5.491      2.794      4.945
REMARK INTER + INTRA:          -7.285
REMARK INTER:                  -6.880
REMARK INTRA:                  -0.405
REMARK UNBOUND:                -0.510
REMARK  Name = 
REMARK  6 active torsions:
REMARK  status: ('A' for Active; 'I' for Inactive)
REMARK    1  A    between atoms: C_1  and  C_2
REMARK    2  A    between atoms: C_9  and  C_10
REMARK    3  A    between atoms: C_10  and  N_11
REMARK    4  A    between atoms: N_11  and  C_12
REMARK    5  A    between atoms: C_15  and  C_16
REMARK    6  A    between atoms: C_25  and  C_26
REMARK                            x       y       z     vdW  Elec       q    Type
REMARK                         _______ _______ _______ _____ _____    ______ ____
ROOT
ATOM      1  C   UNL     1      47.992   3.462  16.772  0.00  0.00    +0.000 C 
ATOM      2  C   UNL     1      47.085   4.350  17.598  0.00  0.00    +0.000 C 
ATOM      3  C   UNL     1      46.882   2.875  17.651  0.00  0.00    +0.000 C 
ENDROOT
BRANCH   1  12
ATOM      4  C   UNL     1      53.228   6.226  16.382  0.00  0.00    +0.000 C 
ATOM      5  C   UNL     1      53.349   6.696  17.831  0.00  0.00    +0.000 C 
ATOM      6  C   UNL     1      53.134   5.580  18.881  0.00  0.00    +0.000 C 
ATOM      7  N   UNL     1      51.718   5.256  19.047  0.00  0.00    +0.000 N 
ATOM      8  C   UNL     1      51.224   4.177  18.346  0.00  0.00    +0.000 A 
ATOM      9  N   UNL     1      52.016   3.143  18.029  0.00  0.00    +0.000 NA
ATOM     10  C   UNL     1      51.459   2.114  17.364  0.00  0.00    +0.000 A 
ATOM     11  C   UNL     1      50.147   2.094  16.960  0.00  0.00    +0.000 A 
ATOM     12  C   UNL     1      49.408   3.211  17.275  0.00  0.00    +0.000 A 
ATOM     13  N   UNL     1      49.936   4.211  18.005  0.00  0.00    +0.000 NA
ATOM     14  C   UNL     1      50.839   6.425  19.215  0.00  0.00    +0.000 C 
ATOM     15  C   UNL     1      51.104   7.491  18.133  0.00  0.00    +0.000 C 
ATOM     16  C   UNL     1      50.338   8.773  18.447  0.00  0.00    +0.000 C 
ATOM     17  O   UNL     1      52.501   7.836  18.073  0.00  0.00    +0.000 OA
ENDBRANCH   1  12
BRANCH   1  18
ATOM     18  N   UNL     1      47.799   3.148  15.340  0.00  0.00    +0.000 N 
ATOM     19  H   UNL     1      48.582   2.636  14.928  0.00  0.00    +0.000 HD
BRANCH  18  20
ATOM     20  C   UNL     1      47.180   4.009  14.422  0.00  0.00    +0.000 A 
ATOM     21  C   UNL     1      47.589   5.348  14.361  0.00  0.00    +0.000 A 
ATOM     22  C   UNL     1      47.072   6.200  13.387  0.00  0.00    +0.000 A 
ATOM     23  C   UNL     1      46.160   5.677  12.483  0.00  0.00    +0.000 A 
ATOM     24  N   UNL     1      45.745   4.379  12.490  0.00  0.00    +0.000 NA
ATOM     25  C   UNL     1      46.278   3.589  13.448  0.00  0.00    +0.000 A 
BRANCH  23  26
ATOM     26  C   UNL     1      45.572   6.537  11.408  0.00  0.00    +0.000 C 
ATOM     27  N   UNL     1      45.374   5.894  10.218  0.00  0.00    +0.000 N 
ATOM     28  O   UNL     1      45.284   7.718  11.571  0.00  0.00    +0.000 OA
ATOM     29  H   UNL     1      45.628   4.913  10.135  0.00  0.00    +0.000 HD
ATOM     30  H   UNL     1      44.978   6.388   9.429  0.00  0.00    +0.000 HD
ENDBRANCH  23  26
ENDBRANCH  18  20
ENDBRANCH   1  18
TORSDOF 4
ENDMDL
MODEL 9
REMARK VINA RESULT:    -5.012      3.273      7.489
REMARK INTER + INTRA:          -6.694
REMARK INTER:                  -6.449
REMARK INTRA:                  -0.245
REMARK UNBOUND:                -0.510
REMARK  Name = 
REMARK  6 active torsions:
REMARK  status: ('A' for Active; 'I' for Inactive)
REMARK    1  A    between atoms: C_1  and  C_2
REMARK    2  A    between atoms: C_9  and  C_10
REMARK    3  A    between atoms: C_10  and  N_11
REMARK    4  A    between atoms: N_11  and  C_12
REMARK    5  A    between atoms: C_15  and  C_16
REMARK    6  A    between atoms: C_25  and  C_26
REMARK                            x       y       z     vdW  Elec       q    Type
REMARK                         _______ _______ _______ _____ _____    ______ ____
ROOT
ATOM      1  C   UNL     1      48.661   4.621  16.942  0.00  0.00    +0.000 C 
ATOM      2  C   UNL     1      47.801   3.821  15.987  0.00  0.00    +0.000 C 
ATOM      3  C   UNL     1      47.163   4.415  17.195  0.00  0.00    +0.000 C 
ENDROOT
BRANCH   1  12
ATOM      4  C   UNL     1      50.193   7.392  11.924  0.00  0.00    +0.000 C 
ATOM      5  C   UNL     1      48.936   8.239  11.735  0.00  0.00    +0.000 C 
ATOM      6  C   UNL     1      48.529   9.058  12.983  0.00  0.00    +0.000 C 
ATOM      7  N   UNL     1      47.881   8.223  13.993  0.00  0.00    +0.000 N 
ATOM      8  C   UNL     1      48.662   7.743  15.022  0.00  0.00    +0.000 A 
ATOM      9  N   UNL     1      49.735   8.427  15.446  0.00  0.00    +0.000 NA
ATOM     10  C   UNL     1      50.437   7.910  16.470  0.00  0.00    +0.000 A 
ATOM     11  C   UNL     1      50.138   6.708  17.065  0.00  0.00    +0.000 A 
ATOM     12  C   UNL     1      49.055   6.039  16.545  0.00  0.00    +0.000 A 
ATOM     13  N   UNL     1      48.302   6.583  15.571  0.00  0.00    +0.000 NA
ATOM     14  C   UNL     1      46.821   7.345  13.471  0.00  0.00    +0.000 C 
ATOM     15  C   UNL     1      47.298   6.557  12.234  0.00  0.00    +0.000 C 
ATOM     16  C   UNL     1      46.129   5.819  11.588  0.00  0.00    +0.000 C 
ATOM     17  O   UNL     1      47.847   7.438  11.236  0.00  0.00    +0.000 OA
ENDBRANCH   1  12
BRANCH   1  18
ATOM     18  N   UNL     1      49.497   4.045  18.018  0.00  0.00    +0.000 N 
ATOM     19  H   UNL     1      49.645   4.684  18.801  0.00  0.00    +0.000 HD
BRANCH  18  20
ATOM     20  C   UNL     1      50.598   3.206  17.794  0.00  0.00    +0.000 A 
ATOM     21  C   UNL     1      51.868   3.622  18.216  0.00  0.00    +0.000 A 
ATOM     22  C   UNL     1      52.963   2.766  18.109  0.00  0.00    +0.000 A 
ATOM     23  C   UNL     1      52.749   1.499  17.589  0.00  0.00    +0.000 A 
ATOM     24  N   UNL     1      51.531   1.042  17.182  0.00  0.00    +0.000 NA
ATOM     25  C   UNL     1      50.498   1.905  17.310  0.00  0.00    +0.000 A 
BRANCH  23  26
ATOM     26  C   UNL     1      53.881   0.529  17.453  0.00  0.00    +0.000 C 
ATOM     27  N   UNL     1      54.857   0.921  16.579  0.00  0.00    +0.000 N 
ATOM     28  O   UNL     1      53.941  -0.528  18.072  0.00  0.00    +0.000 OA
ATOM     29  H   UNL     1      54.760   1.809  16.091  0.00  0.00    +0.000 HD
ATOM     30  H   UNL     1      55.666   0.336  16.419  0.00  0.00    +0.000 HD
ENDBRANCH  23  26
ENDBRANCH  18  20
ENDBRANCH   1  18
TORSDOF 4
ENDMDL
