MODEL 1
REMARK VINA RESULT:    -8.608      0.000      0.000
REMARK INTER + INTRA:         -12.826
REMARK INTER:                 -12.130
REMARK INTRA:                  -0.696
REMARK UNBOUND:                -0.696
REMARK  Name = 
REMARK  9 active torsions:
REMARK  status: ('A' for Active; 'I' for Inactive)
REMARK    1  A    between atoms: C_1  and  C_2
REMARK    2  A    between atoms: C_2  and  C_3
REMARK    3  A    between atoms: C_6  and  N_7
REMARK    4  A    between atoms: N_7  and  C_8
REMARK    5  A    between atoms: C_12  and  C_13
REMARK    6  A    between atoms: C_13  and  C_14
REMARK    7  A    between atoms: C_14  and  N_15
REMARK    8  A    between atoms: N_15  and  C_16
REMARK    9  A    between atoms: C_19  and  C_20
REMARK                            x       y       z     vdW  Elec       q    Type
REMARK                         _______ _______ _______ _____ _____    ______ ____
ROOT
ATOM      1  C   UNL     1      47.863   6.277  14.543  0.00  0.00    +0.000 A 
ATOM      2  C   UNL     1      48.649   7.026  13.666  0.00  0.00    +0.000 A 
ATOM      3  C   UNL     1      48.290   7.161  12.324  0.00  0.00    +0.000 A 
ATOM      4  C   UNL     1      47.163   6.501  11.829  0.00  0.00    +0.000 A 
ATOM      5  C   UNL     1      46.396   5.684  12.668  0.00  0.00    +0.000 A 
ATOM      6  C   UNL     1      46.768   5.589  14.021  0.00  0.00    +0.000 A 
ENDROOT
BRANCH   1   7
ATOM      7  N   UNL     1      48.272   6.160  15.868  0.00  0.00    +0.000 N 
ATOM      8  H   UNL     1      49.130   6.690  16.015  0.00  0.00    +0.000 HD
BRANCH   7  14
ATOM      9  C   UNL     1      48.229   5.169  20.394  0.00  0.00    +0.000 C 
ATOM     10  C   UNL     1      48.028   5.628  18.950  0.00  0.00    +0.000 C 
ATOM     11  C   UNL     1      47.926   7.162  18.909  0.00  0.00    +0.000 C 
ATOM     12  N   UNL     1      46.793   5.032  18.408  0.00  0.00    +0.000 NA
ATOM     13  C   UNL     1      47.115   4.323  17.149  0.00  0.00    +0.000 C 
ATOM     14  C   UNL     1      48.408   4.848  16.493  0.00  0.00    +0.000 C 
ATOM     15  S   UNL     1      49.443   5.087  17.941  0.00  0.00    +0.000 S 
ATOM     16  H   UNL     1      46.148   5.785  18.173  0.00  0.00    +0.000 HD
ENDBRANCH   7  14
ENDBRANCH   1   7
BRANCH   5  17
ATOM     17  C   UNL     1      45.217   4.913  12.096  0.00  0.00    +0.000 C 
BRANCH  17  18
ATOM     18  C   UNL     1      44.463   5.672  10.996  0.00  0.00    +0.000 C 
BRANCH  18  19
ATOM     19  N   UNL     1      43.758   4.795  10.062  0.00  0.00    +0.000 N 
ATOM     20  H   UNL     1      43.104   5.310   9.475  0.00  0.00    +0.000 HD
BRANCH  19  21
ATOM     21  C   UNL     1      44.601   3.977   9.274  0.00  0.00    +0.000 A 
ATOM     22  C   UNL     1      45.553   4.498   8.383  0.00  0.00    +0.000 A 
ATOM     23  C   UNL     1      46.411   3.660   7.664  0.00  0.00    +0.000 A 
ATOM     24  C   UNL     1      46.365   2.282   7.852  0.00  0.00    +0.000 A 
ATOM     25  C   UNL     1      45.442   1.743   8.755  0.00  0.00    +0.000 A 
ATOM     26  C   UNL     1      44.582   2.590   9.469  0.00  0.00    +0.000 A 
BRANCH  24  27
ATOM     27  C   UNL     1      47.317   1.439   7.083  0.00  0.00    +0.000 C 
ATOM     28  N   UNL     1      48.399   2.065   6.537  0.00  0.00    +0.000 N 
ATOM     29  O   UNL     1      47.120   0.243   6.904  0.00  0.00    +0.000 OA
ATOM     30  H   UNL     1      48.446   3.064   6.434  0.00  0.00    +0.000 HD
ATOM     31  H   UNL     1      48.957   1.503   5.901  0.00  0.00    +0.000 HD
ENDBRANCH  24  27
ENDBRANCH  19  21
ENDBRANCH  18  19
ENDBRANCH  17  18
ENDBRANCH   5  17
TORSDOF 7
ENDMDL
MODEL 2
REMARK VINA RESULT:    -8.498      3.017      3.918
REMARK INTER + INTRA:         -12.671
REMARK INTER:                 -11.477
REMARK INTRA:                  -1.194
REMARK UNBOUND:                -0.696
REMARK  Name = 
REMARK  9 active torsions:
REMARK  status: ('A' for Active; 'I' for Inactive)
REMARK    1  A    between atoms: C_1  and  C_2
REMARK    2  A    between atoms: C_2  and  C_3
REMARK    3  A    between atoms: C_6  and  N_7
REMARK    4  A    between atoms: N_7  and  C_8
REMARK    5  A    between atoms: C_12  and  C_13
REMARK    6  A    between atoms: C_13  and  C_14
REMARK    7  A    between atoms: C_14  and  N_15
REMARK    8  A    between atoms: N_15  and  C_16
REMARK    9  A    between atoms: C_19  and  C_20
REMARK                            x       y       z     vdW  Elec       q    Type
REMARK                         _______ _______ _______ _____ _____    ______ ____
ROOT
ATOM      1  C   UNL     1      46.713   6.633  13.292  0.00  0.00    +0.000 A 
ATOM      2  C   UNL     1      47.351   5.443  13.646  0.00  0.00    +0.000 A 
ATOM      3  C   UNL     1      46.706   4.215  13.492  0.00  0.00    +0.000 A 
ATOM      4  C   UNL     1      45.389   4.167  13.031  0.00  0.00    +0.000 A 
ATOM      5  C   UNL     1      44.698   5.348  12.737  0.00  0.00    +0.000 A 
ATOM      6  C   UNL     1      45.384   6.567  12.876  0.00  0.00    +0.000 A 
ENDROOT
BRANCH   1   7
ATOM      7  N   UNL     1      47.393   7.833  13.478  0.00  0.00    +0.000 N 
ATOM      8  H   UNL     1      46.807   8.488  13.993  0.00  0.00    +0.000 HD
BRANCH   7  14
ATOM      9  C   UNL     1      51.860   8.937  12.926  0.00  0.00    +0.000 C 
ATOM     10  C   UNL     1      50.474   8.337  13.164  0.00  0.00    +0.000 C 
ATOM     11  C   UNL     1      50.423   7.702  14.563  0.00  0.00    +0.000 C 
ATOM     12  N   UNL     1      50.196   7.313  12.141  0.00  0.00    +0.000 NA
ATOM     13  C   UNL     1      48.913   7.633  11.477  0.00  0.00    +0.000 C 
ATOM     14  C   UNL     1      48.006   8.525  12.348  0.00  0.00    +0.000 C 
ATOM     15  S   UNL     1      49.218   9.650  13.048  0.00  0.00    +0.000 S 
ATOM     16  H   UNL     1      50.076   6.414  12.608  0.00  0.00    +0.000 HD
ENDBRANCH   7  14
ENDBRANCH   1   7
BRANCH   5  17
ATOM     17  C   UNL     1      43.241   5.281  12.308  0.00  0.00    +0.000 C 
BRANCH  17  18
ATOM     18  C   UNL     1      43.029   4.580  10.960  0.00  0.00    +0.000 C 
BRANCH  18  19
ATOM     19  N   UNL     1      43.892   5.092   9.896  0.00  0.00    +0.000 N 
ATOM     20  H   UNL     1      44.500   5.840  10.225  0.00  0.00    +0.000 HD
BRANCH  19  21
ATOM     21  C   UNL     1      44.639   4.101   9.218  0.00  0.00    +0.000 A 
ATOM     22  C   UNL     1      45.632   4.406   8.274  0.00  0.00    +0.000 A 
ATOM     23  C   UNL     1      46.392   3.401   7.667  0.00  0.00    +0.000 A 
ATOM     24  C   UNL     1      46.204   2.069   8.022  0.00  0.00    +0.000 A 
ATOM     25  C   UNL     1      45.238   1.744   8.980  0.00  0.00    +0.000 A 
ATOM     26  C   UNL     1      44.477   2.758   9.582  0.00  0.00    +0.000 A 
BRANCH  24  27
ATOM     27  C   UNL     1      47.056   1.044   7.366  0.00  0.00    +0.000 C 
ATOM     28  N   UNL     1      46.789  -0.263   7.654  0.00  0.00    +0.000 N 
ATOM     29  O   UNL     1      47.990   1.353   6.635  0.00  0.00    +0.000 OA
ATOM     30  H   UNL     1      46.224  -0.535   8.440  0.00  0.00    +0.000 HD
ATOM     31  H   UNL     1      47.468  -0.936   7.311  0.00  0.00    +0.000 HD
ENDBRANCH  24  27
ENDBRANCH  19  21
ENDBRANCH  18  19
ENDBRANCH  17  18
ENDBRANCH   5  17
TORSDOF 7
ENDMDL
MODEL 3
REMARK VINA RESULT:    -8.274      1.440      1.769
REMARK INTER + INTRA:         -12.356
REMARK INTER:                 -11.554
REMARK INTRA:                  -0.802
REMARK UNBOUND:                -0.696
REMARK  Name = 
REMARK  9 active torsions:
REMARK  status: ('A' for Active; 'I' for Inactive)
REMARK    1  A    between atoms: C_1  and  C_2
REMARK    2  A    between atoms: C_2  and  C_3
REMARK    3  A    between atoms: C_6  and  N_7
REMARK    4  A    between atoms: N_7  and  C_8
REMARK    5  A    between atoms: C_12  and  C_13
REMARK    6  A    between atoms: C_13  and  C_14
REMARK    7  A    between atoms: C_14  and  N_15
REMARK    8  A    between atoms: N_15  and  C_16
REMARK    9  A    between atoms: C_19  and  C_20
REMARK                            x       y       z     vdW  Elec       q    Type
REMARK                         _______ _______ _______ _____ _____    ______ ____
ROOT
ATOM      1  C   UNL     1      47.152   5.654  13.858  0.00  0.00    +0.000 A 
ATOM      2  C   UNL     1      47.818   6.465  12.938  0.00  0.00    +0.000 A 
ATOM      3  C   UNL     1      47.134   7.035  11.864  0.00  0.00    +0.000 A 
ATOM      4  C   UNL     1      45.779   6.757  11.666  0.00  0.00    +0.000 A 
ATOM      5  C   UNL     1      45.102   5.889  12.531  0.00  0.00    +0.000 A 
ATOM      6  C   UNL     1      45.812   5.351  13.619  0.00  0.00    +0.000 A 
ENDROOT
BRANCH   1   7
ATOM      7  N   UNL     1      47.882   5.096  14.904  0.00  0.00    +0.000 N 
ATOM      8  H   UNL     1      47.461   4.213  15.189  0.00  0.00    +0.000 HD
BRANCH   7  14
ATOM      9  C   UNL     1      49.116   3.519  19.082  0.00  0.00    +0.000 C 
ATOM     10  C   UNL     1      48.891   3.882  17.614  0.00  0.00    +0.000 C 
ATOM     11  C   UNL     1      48.613   2.603  16.807  0.00  0.00    +0.000 C 
ATOM     12  N   UNL     1      50.090   4.556  17.083  0.00  0.00    +0.000 NA
ATOM     13  C   UNL     1      49.688   5.852  16.491  0.00  0.00    +0.000 C 
ATOM     14  C   UNL     1      48.199   5.881  16.093  0.00  0.00    +0.000 C 
ATOM     15  S   UNL     1      47.467   5.007  17.480  0.00  0.00    +0.000 S 
ATOM     16  H   UNL     1      50.472   3.987  16.328  0.00  0.00    +0.000 HD
ENDBRANCH   7  14
ENDBRANCH   1   7
BRANCH   5  17
ATOM     17  C   UNL     1      43.648   5.538  12.258  0.00  0.00    +0.000 C 
BRANCH  17  18
ATOM     18  C   UNL     1      43.471   4.406  11.237  0.00  0.00    +0.000 C 
BRANCH  18  19
ATOM     19  N   UNL     1      43.705   4.827   9.855  0.00  0.00    +0.000 N 
ATOM     20  H   UNL     1      44.023   5.793   9.799  0.00  0.00    +0.000 HD
BRANCH  19  21
ATOM     21  C   UNL     1      44.559   3.974   9.119  0.00  0.00    +0.000 A 
ATOM     22  C   UNL     1      45.517   4.453   8.210  0.00  0.00    +0.000 A 
ATOM     23  C   UNL     1      46.386   3.584   7.544  0.00  0.00    +0.000 A 
ATOM     24  C   UNL     1      46.345   2.218   7.803  0.00  0.00    +0.000 A 
ATOM     25  C   UNL     1      45.418   1.721   8.724  0.00  0.00    +0.000 A 
ATOM     26  C   UNL     1      44.547   2.599   9.386  0.00  0.00    +0.000 A 
BRANCH  24  27
ATOM     27  C   UNL     1      47.309   1.341   7.087  0.00  0.00    +0.000 C 
ATOM     28  N   UNL     1      48.442   1.928   6.604  0.00  0.00    +0.000 N 
ATOM     29  O   UNL     1      47.081   0.153   6.895  0.00  0.00    +0.000 OA
ATOM     30  H   UNL     1      48.530   2.925   6.506  0.00  0.00    +0.000 HD
ATOM     31  H   UNL     1      49.015   1.347   5.999  0.00  0.00    +0.000 HD
ENDBRANCH  24  27
ENDBRANCH  19  21
ENDBRANCH  18  19
ENDBRANCH  17  18
ENDBRANCH   5  17
TORSDOF 7
ENDMDL
MODEL 4
REMARK VINA RESULT:    -7.573      2.489      3.455
REMARK INTER + INTRA:         -11.368
REMARK INTER:                 -10.472
REMARK INTRA:                  -0.896
REMARK UNBOUND:                -0.696
REMARK  Name = 
REMARK  9 active torsions:
REMARK  status: ('A' for Active; 'I' for Inactive)
REMARK    1  A    between atoms: C_1  and  C_2
REMARK    2  A    between atoms: C_2  and  C_3
REMARK    3  A    between atoms: C_6  and  N_7
REMARK    4  A    between atoms: N_7  and  C_8
REMARK    5  A    between atoms: C_12  and  C_13
REMARK    6  A    between atoms: C_13  and  C_14
REMARK    7  A    between atoms: C_14  and  N_15
REMARK    8  A    between atoms: N_15  and  C_16
REMARK    9  A    between atoms: C_19  and  C_20
REMARK                            x       y       z     vdW  Elec       q    Type
REMARK                         _______ _______ _______ _____ _____    ______ ____
ROOT
ATOM      1  C   UNL     1      45.969   8.250  12.912  0.00  0.00    +0.000 A 
ATOM      2  C   UNL     1      45.568   9.159  11.932  0.00  0.00    +0.000 A 
ATOM      3  C   UNL     1      44.525   8.851  11.057  0.00  0.00    +0.000 A 
ATOM      4  C   UNL     1      43.904   7.601  11.118  0.00  0.00    +0.000 A 
ATOM      5  C   UNL     1      44.334   6.642  12.042  0.00  0.00    +0.000 A 
ATOM      6  C   UNL     1      45.368   6.992  12.927  0.00  0.00    +0.000 A 
ENDROOT
BRANCH   1   7
ATOM      7  N   UNL     1      47.024   8.598  13.750  0.00  0.00    +0.000 N 
ATOM      8  H   UNL     1      46.751   9.378  14.346  0.00  0.00    +0.000 HD
BRANCH   7  14
ATOM      9  C   UNL     1      51.098   7.269  15.512  0.00  0.00    +0.000 C 
ATOM     10  C   UNL     1      49.685   7.461  14.962  0.00  0.00    +0.000 C 
ATOM     11  C   UNL     1      48.660   6.976  16.001  0.00  0.00    +0.000 C 
ATOM     12  N   UNL     1      49.531   6.693  13.713  0.00  0.00    +0.000 NA
ATOM     13  C   UNL     1      49.060   7.604  12.645  0.00  0.00    +0.000 C 
ATOM     14  C   UNL     1      48.354   8.854  13.207  0.00  0.00    +0.000 C 
ATOM     15  S   UNL     1      49.407   9.227  14.614  0.00  0.00    +0.000 S 
ATOM     16  H   UNL     1      48.803   5.993  13.853  0.00  0.00    +0.000 HD
ENDBRANCH   7  14
ENDBRANCH   1   7
BRANCH   5  17
ATOM     17  C   UNL     1      43.697   5.260  12.043  0.00  0.00    +0.000 C 
BRANCH  17  18
ATOM     18  C   UNL     1      43.413   4.714  10.639  0.00  0.00    +0.000 C 
BRANCH  18  19
ATOM     19  N   UNL     1      43.773   3.305  10.478  0.00  0.00    +0.000 N 
ATOM     20  H   UNL     1      42.954   2.715  10.344  0.00  0.00    +0.000 HD
BRANCH  19  21
ATOM     21  C   UNL     1      44.739   3.058   9.475  0.00  0.00    +0.000 A 
ATOM     22  C   UNL     1      45.142   1.764   9.107  0.00  0.00    +0.000 A 
ATOM     23  C   UNL     1      46.056   1.554   8.069  0.00  0.00    +0.000 A 
ATOM     24  C   UNL     1      46.556   2.634   7.347  0.00  0.00    +0.000 A 
ATOM     25  C   UNL     1      46.147   3.930   7.679  0.00  0.00    +0.000 A 
ATOM     26  C   UNL     1      45.233   4.132   8.724  0.00  0.00    +0.000 A 
BRANCH  24  27
ATOM     27  C   UNL     1      47.504   2.354   6.237  0.00  0.00    +0.000 C 
ATOM     28  N   UNL     1      47.444   3.174   5.148  0.00  0.00    +0.000 N 
ATOM     29  O   UNL     1      48.274   1.402   6.272  0.00  0.00    +0.000 OA
ATOM     30  H   UNL     1      46.661   3.779   4.974  0.00  0.00    +0.000 HD
ATOM     31  H   UNL     1      47.997   2.882   4.348  0.00  0.00    +0.000 HD
ENDBRANCH  24  27
ENDBRANCH  19  21
ENDBRANCH  18  19
ENDBRANCH  17  18
ENDBRANCH   5  17
TORSDOF 7
ENDMDL
MODEL 5
REMARK VINA RESULT:    -6.976      3.862      8.173
REMARK INTER + INTRA:         -10.526
REMARK INTER:                  -9.605
REMARK INTRA:                  -0.921
REMARK UNBOUND:                -0.696
REMARK  Name = 
REMARK  9 active torsions:
REMARK  status: ('A' for Active; 'I' for Inactive)
REMARK    1  A    between atoms: C_1  and  C_2
REMARK    2  A    between atoms: C_2  and  C_3
REMARK    3  A    between atoms: C_6  and  N_7
REMARK    4  A    between atoms: N_7  and  C_8
REMARK    5  A    between atoms: C_12  and  C_13
REMARK    6  A    between atoms: C_13  and  C_14
REMARK    7  A    between atoms: C_14  and  N_15
REMARK    8  A    between atoms: N_15  and  C_16
REMARK    9  A    between atoms: C_19  and  C_20
REMARK                            x       y       z     vdW  Elec       q    Type
REMARK                         _______ _______ _______ _____ _____    ______ ____
ROOT
ATOM      1  C   UNL     1      45.695   7.039  12.891  0.00  0.00    +0.000 A 
ATOM      2  C   UNL     1      45.825   8.312  12.334  0.00  0.00    +0.000 A 
ATOM      3  C   UNL     1      47.003   9.044  12.494  0.00  0.00    +0.000 A 
ATOM      4  C   UNL     1      48.050   8.529  13.263  0.00  0.00    +0.000 A 
ATOM      5  C   UNL     1      47.919   7.287  13.895  0.00  0.00    +0.000 A 
ATOM      6  C   UNL     1      46.732   6.563  13.692  0.00  0.00    +0.000 A 
ENDROOT
BRANCH   1   7
ATOM      7  N   UNL     1      44.495   6.356  12.715  0.00  0.00    +0.000 N 
ATOM      8  H   UNL     1      44.562   5.425  13.124  0.00  0.00    +0.000 HD
BRANCH   7  14
ATOM      9  C   UNL     1      44.367   2.652   9.934  0.00  0.00    +0.000 C 
ATOM     10  C   UNL     1      44.324   3.713  11.034  0.00  0.00    +0.000 C 
ATOM     11  C   UNL     1      45.163   3.243  12.233  0.00  0.00    +0.000 C 
ATOM     12  N   UNL     1      42.928   3.932  11.456  0.00  0.00    +0.000 NA
ATOM     13  C   UNL     1      42.616   5.375  11.351  0.00  0.00    +0.000 C 
ATOM     14  C   UNL     1      43.881   6.256  11.395  0.00  0.00    +0.000 C 
ATOM     15  S   UNL     1      45.004   5.276  10.393  0.00  0.00    +0.000 S 
ATOM     16  H   UNL     1      42.846   3.678  12.440  0.00  0.00    +0.000 HD
ENDBRANCH   7  14
ENDBRANCH   1   7
BRANCH   5  17
ATOM     17  C   UNL     1      49.038   6.777  14.790  0.00  0.00    +0.000 C 
BRANCH  17  18
ATOM     18  C   UNL     1      48.735   6.910  16.288  0.00  0.00    +0.000 C 
BRANCH  18  19
ATOM     19  N   UNL     1      48.223   5.680  16.891  0.00  0.00    +0.000 N 
ATOM     20  H   UNL     1      47.387   5.343  16.417  0.00  0.00    +0.000 HD
BRANCH  19  21
ATOM     21  C   UNL     1      49.179   4.645  17.015  0.00  0.00    +0.000 A 
ATOM     22  C   UNL     1      50.477   4.861  17.505  0.00  0.00    +0.000 A 
ATOM     23  C   UNL     1      51.378   3.804  17.670  0.00  0.00    +0.000 A 
ATOM     24  C   UNL     1      50.985   2.499  17.388  0.00  0.00    +0.000 A 
ATOM     25  C   UNL     1      49.688   2.257  16.925  0.00  0.00    +0.000 A 
ATOM     26  C   UNL     1      48.792   3.324  16.758  0.00  0.00    +0.000 A 
BRANCH  24  27
ATOM     27  C   UNL     1      51.972   1.409  17.607  0.00  0.00    +0.000 C 
ATOM     28  N   UNL     1      51.502   0.242  18.132  0.00  0.00    +0.000 N 
ATOM     29  O   UNL     1      53.165   1.563  17.372  0.00  0.00    +0.000 OA
ATOM     30  H   UNL     1      50.604   0.177  18.580  0.00  0.00    +0.000 HD
ATOM     31  H   UNL     1      52.209  -0.434  18.404  0.00  0.00    +0.000 HD
ENDBRANCH  24  27
ENDBRANCH  19  21
ENDBRANCH  18  19
ENDBRANCH  17  18
ENDBRANCH   5  17
TORSDOF 7
ENDMDL
MODEL 6
REMARK VINA RESULT:    -6.839      3.489      7.795
REMARK INTER + INTRA:         -10.333
REMARK INTER:                  -9.119
REMARK INTRA:                  -1.214
REMARK UNBOUND:                -0.696
REMARK  Name = 
REMARK  9 active torsions:
REMARK  status: ('A' for Active; 'I' for Inactive)
REMARK    1  A    between atoms: C_1  and  C_2
REMARK    2  A    between atoms: C_2  and  C_3
REMARK    3  A    between atoms: C_6  and  N_7
REMARK    4  A    between atoms: N_7  and  C_8
REMARK    5  A    between atoms: C_12  and  C_13
REMARK    6  A    between atoms: C_13  and  C_14
REMARK    7  A    between atoms: C_14  and  N_15
REMARK    8  A    between atoms: N_15  and  C_16
REMARK    9  A    between atoms: C_19  and  C_20
REMARK                            x       y       z     vdW  Elec       q    Type
REMARK                         _______ _______ _______ _____ _____    ______ ____
ROOT
ATOM      1  C   UNL     1      47.903   6.785  12.687  0.00  0.00    +0.000 A 
ATOM      2  C   UNL     1      48.370   7.596  11.652  0.00  0.00    +0.000 A 
ATOM      3  C   UNL     1      49.393   8.519  11.875  0.00  0.00    +0.000 A 
ATOM      4  C   UNL     1      49.928   8.678  13.155  0.00  0.00    +0.000 A 
ATOM      5  C   UNL     1      49.429   7.931  14.228  0.00  0.00    +0.000 A 
ATOM      6  C   UNL     1      48.417   6.991  13.967  0.00  0.00    +0.000 A 
ENDROOT
BRANCH   1   7
ATOM      7  N   UNL     1      46.871   5.891  12.417  0.00  0.00    +0.000 N 
ATOM      8  H   UNL     1      46.221   6.302  11.749  0.00  0.00    +0.000 HD
BRANCH   7  14
ATOM      9  C   UNL     1      43.395   2.847  12.071  0.00  0.00    +0.000 C 
ATOM     10  C   UNL     1      44.667   3.694  12.024  0.00  0.00    +0.000 C 
ATOM     11  C   UNL     1      45.003   4.034  10.563  0.00  0.00    +0.000 C 
ATOM     12  N   UNL     1      45.782   2.944  12.632  0.00  0.00    +0.000 NA
ATOM     13  C   UNL     1      46.393   3.772  13.696  0.00  0.00    +0.000 C 
ATOM     14  C   UNL     1      46.115   5.277  13.504  0.00  0.00    +0.000 C 
ATOM     15  S   UNL     1      44.403   5.232  12.961  0.00  0.00    +0.000 S 
ATOM     16  H   UNL     1      46.496   2.796  11.919  0.00  0.00    +0.000 HD
ENDBRANCH   7  14
ENDBRANCH   1   7
BRANCH   5  17
ATOM     17  C   UNL     1      49.970   8.171  15.629  0.00  0.00    +0.000 C 
BRANCH  17  18
ATOM     18  C   UNL     1      48.877   8.430  16.674  0.00  0.00    +0.000 C 
BRANCH  18  19
ATOM     19  N   UNL     1      49.074   7.687  17.919  0.00  0.00    +0.000 N 
ATOM     20  H   UNL     1      48.319   7.851  18.583  0.00  0.00    +0.000 HD
BRANCH  19  21
ATOM     21  C   UNL     1      49.299   6.302  17.747  0.00  0.00    +0.000 A 
ATOM     22  C   UNL     1      48.317   5.424  17.261  0.00  0.00    +0.000 A 
ATOM     23  C   UNL     1      48.593   4.070  17.047  0.00  0.00    +0.000 A 
ATOM     24  C   UNL     1      49.872   3.572  17.275  0.00  0.00    +0.000 A 
ATOM     25  C   UNL     1      50.873   4.434  17.733  0.00  0.00    +0.000 A 
ATOM     26  C   UNL     1      50.587   5.790  17.949  0.00  0.00    +0.000 A 
BRANCH  24  27
ATOM     27  C   UNL     1      50.119   2.131  17.006  0.00  0.00    +0.000 C 
ATOM     28  N   UNL     1      51.059   1.508  17.773  0.00  0.00    +0.000 N 
ATOM     29  O   UNL     1      49.542   1.535  16.104  0.00  0.00    +0.000 OA
ATOM     30  H   UNL     1      51.729   2.019  18.322  0.00  0.00    +0.000 HD
ATOM     31  H   UNL     1      51.313   0.569  17.481  0.00  0.00    +0.000 HD
ENDBRANCH  24  27
ENDBRANCH  19  21
ENDBRANCH  18  19
ENDBRANCH  17  18
ENDBRANCH   5  17
TORSDOF 7
ENDMDL
MODEL 7
REMARK VINA RESULT:    -6.742      3.667      8.422
REMARK INTER + INTRA:         -10.197
REMARK INTER:                  -9.164
REMARK INTRA:                  -1.033
REMARK UNBOUND:                -0.696
REMARK  Name = 
REMARK  9 active torsions:
REMARK  status: ('A' for Active; 'I' for Inactive)
REMARK    1  A    between atoms: C_1  and  C_2
REMARK    2  A    between atoms: C_2  and  C_3
REMARK    3  A    between atoms: C_6  and  N_7
REMARK    4  A    between atoms: N_7  and  C_8
REMARK    5  A    between atoms: C_12  and  C_13
REMARK    6  A    between atoms: C_13  and  C_14
REMARK    7  A    between atoms: C_14  and  N_15
REMARK    8  A    between atoms: N_15  and  C_16
REMARK    9  A    between atoms: C_19  and  C_20
REMARK                            x       y       z     vdW  Elec       q    Type
REMARK                         _______ _______ _______ _____ _____    ______ ____
ROOT
ATOM      1  C   UNL     1      44.834   3.935  10.487  0.00  0.00    +0.000 A 
ATOM      2  C   UNL     1      43.611   3.596  11.067  0.00  0.00    +0.000 A 
ATOM      3  C   UNL     1      42.817   4.567  11.678  0.00  0.00    +0.000 A 
ATOM      4  C   UNL     1      43.265   5.888  11.763  0.00  0.00    +0.000 A 
ATOM      5  C   UNL     1      44.519   6.243  11.255  0.00  0.00    +0.000 A 
ATOM      6  C   UNL     1      45.284   5.248  10.621  0.00  0.00    +0.000 A 
ENDROOT
BRANCH   1   7
ATOM      7  N   UNL     1      45.595   2.927   9.903  0.00  0.00    +0.000 N 
ATOM      8  H   UNL     1      46.485   3.306   9.581  0.00  0.00    +0.000 HD
BRANCH   7  14
ATOM      9  C   UNL     1      46.601   2.967   5.380  0.00  0.00    +0.000 C 
ATOM     10  C   UNL     1      46.524   2.946   6.906  0.00  0.00    +0.000 C 
ATOM     11  C   UNL     1      47.362   4.101   7.479  0.00  0.00    +0.000 C 
ATOM     12  N   UNL     1      47.041   1.659   7.409  0.00  0.00    +0.000 NA
ATOM     13  C   UNL     1      46.019   1.042   8.284  0.00  0.00    +0.000 C 
ATOM     14  C   UNL     1      45.032   2.078   8.858  0.00  0.00    +0.000 C 
ATOM     15  S   UNL     1      44.791   3.136   7.427  0.00  0.00    +0.000 S 
ATOM     16  H   UNL     1      47.860   1.845   7.988  0.00  0.00    +0.000 HD
ENDBRANCH   7  14
ENDBRANCH   1   7
BRANCH   5  17
ATOM     17  C   UNL     1      45.023   7.669  11.423  0.00  0.00    +0.000 C 
BRANCH  17  18
ATOM     18  C   UNL     1      45.898   7.868  12.667  0.00  0.00    +0.000 C 
BRANCH  18  19
ATOM     19  N   UNL     1      47.158   7.127  12.618  0.00  0.00    +0.000 N 
ATOM     20  H   UNL     1      47.962   7.747  12.540  0.00  0.00    +0.000 HD
BRANCH  19  21
ATOM     21  C   UNL     1      47.338   6.204  13.673  0.00  0.00    +0.000 A 
ATOM     22  C   UNL     1      48.115   6.484  14.808  0.00  0.00    +0.000 A 
ATOM     23  C   UNL     1      48.223   5.571  15.861  0.00  0.00    +0.000 A 
ATOM     24  C   UNL     1      47.520   4.370  15.821  0.00  0.00    +0.000 A 
ATOM     25  C   UNL     1      46.718   4.081  14.712  0.00  0.00    +0.000 A 
ATOM     26  C   UNL     1      46.619   5.002  13.658  0.00  0.00    +0.000 A 
BRANCH  24  27
ATOM     27  C   UNL     1      47.648   3.446  16.978  0.00  0.00    +0.000 C 
ATOM     28  N   UNL     1      48.910   3.168  17.415  0.00  0.00    +0.000 N 
ATOM     29  O   UNL     1      46.670   2.916  17.491  0.00  0.00    +0.000 OA
ATOM     30  H   UNL     1      49.726   3.364  16.860  0.00  0.00    +0.000 HD
ATOM     31  H   UNL     1      48.983   2.430  18.109  0.00  0.00    +0.000 HD
ENDBRANCH  24  27
ENDBRANCH  19  21
ENDBRANCH  18  19
ENDBRANCH  17  18
ENDBRANCH   5  17
TORSDOF 7
ENDMDL
MODEL 8
REMARK VINA RESULT:    -6.723      2.052      2.720
REMARK INTER + INTRA:         -10.170
REMARK INTER:                  -9.278
REMARK INTRA:                  -0.892
REMARK UNBOUND:                -0.696
REMARK  Name = 
REMARK  9 active torsions:
REMARK  status: ('A' for Active; 'I' for Inactive)
REMARK    1  A    between atoms: C_1  and  C_2
REMARK    2  A    between atoms: C_2  and  C_3
REMARK    3  A    between atoms: C_6  and  N_7
REMARK    4  A    between atoms: N_7  and  C_8
REMARK    5  A    between atoms: C_12  and  C_13
REMARK    6  A    between atoms: C_13  and  C_14
REMARK    7  A    between atoms: C_14  and  N_15
REMARK    8  A    between atoms: N_15  and  C_16
REMARK    9  A    between atoms: C_19  and  C_20
REMARK                            x       y       z     vdW  Elec       q    Type
REMARK                         _______ _______ _______ _____ _____    ______ ____
ROOT
ATOM      1  C   UNL     1      47.607   5.607  14.276  0.00  0.00    +0.000 A 
ATOM      2  C   UNL     1      47.425   4.231  14.419  0.00  0.00    +0.000 A 
ATOM      3  C   UNL     1      46.433   3.563  13.699  0.00  0.00    +0.000 A 
ATOM      4  C   UNL     1      45.572   4.278  12.863  0.00  0.00    +0.000 A 
ATOM      5  C   UNL     1      45.683   5.669  12.755  0.00  0.00    +0.000 A 
ATOM      6  C   UNL     1      46.709   6.309  13.472  0.00  0.00    +0.000 A 
ENDROOT
BRANCH   1   7
ATOM      7  N   UNL     1      48.600   6.229  15.027  0.00  0.00    +0.000 N 
ATOM      8  H   UNL     1      49.102   5.536  15.581  0.00  0.00    +0.000 HD
BRANCH   7  14
ATOM      9  C   UNL     1      51.466   8.522  17.855  0.00  0.00    +0.000 C 
ATOM     10  C   UNL     1      50.706   7.795  16.746  0.00  0.00    +0.000 C 
ATOM     11  C   UNL     1      51.571   6.648  16.198  0.00  0.00    +0.000 C 
ATOM     12  N   UNL     1      50.388   8.742  15.661  0.00  0.00    +0.000 NA
ATOM     13  C   UNL     1      48.932   8.699  15.399  0.00  0.00    +0.000 C 
ATOM     14  C   UNL     1      48.288   7.379  15.868  0.00  0.00    +0.000 C 
ATOM     15  S   UNL     1      49.156   7.117  17.418  0.00  0.00    +0.000 S 
ATOM     16  H   UNL     1      50.856   8.427  14.811  0.00  0.00    +0.000 HD
ENDBRANCH   7  14
ENDBRANCH   1   7
BRANCH   5  17
ATOM     17  C   UNL     1      44.689   6.439  11.899  0.00  0.00    +0.000 C 
BRANCH  17  18
ATOM     18  C   UNL     1      44.867   6.207  10.393  0.00  0.00    +0.000 C 
BRANCH  18  19
ATOM     19  N   UNL     1      44.024   5.135   9.865  0.00  0.00    +0.000 N 
ATOM     20  H   UNL     1      43.265   5.496   9.288  0.00  0.00    +0.000 HD
BRANCH  19  21
ATOM     21  C   UNL     1      44.728   4.114   9.186  0.00  0.00    +0.000 A 
ATOM     22  C   UNL     1      45.735   4.379   8.245  0.00  0.00    +0.000 A 
ATOM     23  C   UNL     1      46.453   3.345   7.636  0.00  0.00    +0.000 A 
ATOM     24  C   UNL     1      46.207   2.021   7.987  0.00  0.00    +0.000 A 
ATOM     25  C   UNL     1      45.226   1.735   8.942  0.00  0.00    +0.000 A 
ATOM     26  C   UNL     1      44.509   2.778   9.546  0.00  0.00    +0.000 A 
BRANCH  24  27
ATOM     27  C   UNL     1      47.016   0.961   7.329  0.00  0.00    +0.000 C 
ATOM     28  N   UNL     1      46.728  -0.332   7.654  0.00  0.00    +0.000 N 
ATOM     29  O   UNL     1      47.935   1.233   6.565  0.00  0.00    +0.000 OA
ATOM     30  H   UNL     1      46.180  -0.573   8.462  0.00  0.00    +0.000 HD
ATOM     31  H   UNL     1      47.381  -1.028   7.307  0.00  0.00    +0.000 HD
ENDBRANCH  24  27
ENDBRANCH  19  21
ENDBRANCH  18  19
ENDBRANCH  17  18
ENDBRANCH   5  17
TORSDOF 7
ENDMDL
MODEL 9
REMARK VINA RESULT:    -6.492      3.671      7.836
REMARK INTER + INTRA:          -9.845
REMARK INTER:                  -8.717
REMARK INTRA:                  -1.128
REMARK UNBOUND:                -0.696
REMARK  Name = 
REMARK  9 active torsions:
REMARK  status: ('A' for Active; 'I' for Inactive)
REMARK    1  A    between atoms: C_1  and  C_2
REMARK    2  A    between atoms: C_2  and  C_3
REMARK    3  A    between atoms: C_6  and  N_7
REMARK    4  A    between atoms: N_7  and  C_8
REMARK    5  A    between atoms: C_12  and  C_13
REMARK    6  A    between atoms: C_13  and  C_14
REMARK    7  A    between atoms: C_14  and  N_15
REMARK    8  A    between atoms: N_15  and  C_16
REMARK    9  A    between atoms: C_19  and  C_20
REMARK                            x       y       z     vdW  Elec       q    Type
REMARK                         _______ _______ _______ _____ _____    ______ ____
ROOT
ATOM      1  C   UNL     1      45.674   7.689  11.774  0.00  0.00    +0.000 A 
ATOM      2  C   UNL     1      44.930   8.868  11.710  0.00  0.00    +0.000 A 
ATOM      3  C   UNL     1      45.544  10.109  11.885  0.00  0.00    +0.000 A 
ATOM      4  C   UNL     1      46.907  10.183  12.180  0.00  0.00    +0.000 A 
ATOM      5  C   UNL     1      47.664   9.015  12.322  0.00  0.00    +0.000 A 
ATOM      6  C   UNL     1      47.023   7.781  12.114  0.00  0.00    +0.000 A 
ENDROOT
BRANCH   1   7
ATOM      7  N   UNL     1      45.013   6.476  11.608  0.00  0.00    +0.000 N 
ATOM      8  H   UNL     1      44.344   6.546  10.843  0.00  0.00    +0.000 HD
BRANCH   7  14
ATOM      9  C   UNL     1      43.290   2.177  11.766  0.00  0.00    +0.000 C 
ATOM     10  C   UNL     1      44.069   3.484  11.615  0.00  0.00    +0.000 C 
ATOM     11  C   UNL     1      44.529   3.642  10.156  0.00  0.00    +0.000 C 
ATOM     12  N   UNL     1      45.241   3.467  12.509  0.00  0.00    +0.000 NA
ATOM     13  C   UNL     1      45.211   4.676  13.362  0.00  0.00    +0.000 C 
ATOM     14  C   UNL     1      44.375   5.814  12.742  0.00  0.00    +0.000 C 
ATOM     15  S   UNL     1      42.995   4.883  12.067  0.00  0.00    +0.000 S 
ATOM     16  H   UNL     1      46.084   3.524  11.937  0.00  0.00    +0.000 HD
ENDBRANCH   7  14
ENDBRANCH   1   7
BRANCH   5  17
ATOM     17  C   UNL     1      49.129   9.111  12.718  0.00  0.00    +0.000 C 
BRANCH  17  18
ATOM     18  C   UNL     1      49.619   7.922  13.555  0.00  0.00    +0.000 C 
BRANCH  18  19
ATOM     19  N   UNL     1      49.486   8.132  14.997  0.00  0.00    +0.000 N 
ATOM     20  H   UNL     1      48.968   8.982  15.213  0.00  0.00    +0.000 HD
BRANCH  19  21
ATOM     21  C   UNL     1      48.956   7.028  15.704  0.00  0.00    +0.000 A 
ATOM     22  C   UNL     1      48.286   5.968  15.072  0.00  0.00    +0.000 A 
ATOM     23  C   UNL     1      47.826   4.863  15.795  0.00  0.00    +0.000 A 
ATOM     24  C   UNL     1      48.063   4.774  17.164  0.00  0.00    +0.000 A 
ATOM     25  C   UNL     1      48.752   5.806  17.809  0.00  0.00    +0.000 A 
ATOM     26  C   UNL     1      49.207   6.912  17.077  0.00  0.00    +0.000 A 
BRANCH  24  27
ATOM     27  C   UNL     1      47.576   3.566  17.880  0.00  0.00    +0.000 C 
ATOM     28  N   UNL     1      48.293   3.158  18.966  0.00  0.00    +0.000 N 
ATOM     29  O   UNL     1      46.603   2.933  17.489  0.00  0.00    +0.000 OA
ATOM     30  H   UNL     1      49.227   3.483  19.147  0.00  0.00    +0.000 HD
ATOM     31  H   UNL     1      48.030   2.256  19.353  0.00  0.00    +0.000 HD
ENDBRANCH  24  27
ENDBRANCH  19  21
ENDBRANCH  18  19
ENDBRANCH  17  18
ENDBRANCH   5  17
TORSDOF 7
ENDMDL
