MODEL 1
REMARK VINA RESULT:    -8.493      0.000      0.000
REMARK INTER + INTRA:         -12.335
REMARK INTER:                 -11.472
REMARK INTRA:                  -0.863
REMARK UNBOUND:                -0.863
REMARK  Name = 
REMARK  6 active torsions:
REMARK  status: ('A' for Active; 'I' for Inactive)
REMARK    1  A    between atoms: C_2  and  C_5
REMARK    2  A    between atoms: C_9  and  N_10
REMARK    3  A    between atoms: N_10  and  C_11
REMARK    4  A    between atoms: C_11  and  C_12
REMARK    5  A    between atoms: C_16  and  C_17
REMARK    6  A    between atoms: C_21  and  C_22
REMARK                            x       y       z     vdW  Elec       q    Type
REMARK                         _______ _______ _______ _____ _____    ______ ____
ROOT
ATOM      1  C   UNL     1      46.185   6.300  12.142  0.00  0.00    +0.000 A 
ATOM      2  C   UNL     1      47.046   7.013  11.299  0.00  0.00    +0.000 A 
ATOM      3  C   UNL     1      48.316   7.378  11.742  0.00  0.00    +0.000 A 
ATOM      4  C   UNL     1      48.735   7.036  13.030  0.00  0.00    +0.000 A 
ATOM      5  C   UNL     1      47.907   6.308  13.904  0.00  0.00    +0.000 A 
ATOM      6  C   UNL     1      46.635   5.934  13.423  0.00  0.00    +0.000 A 
ENDROOT
BRANCH   5   7
ATOM      7  C   UNL     1      48.345   6.012  15.287  0.00  0.00    +0.000 A 
ATOM      8  C   UNL     1      49.066   6.907  16.056  0.00  0.00    +0.000 A 
ATOM      9  C   UNL     1      49.448   6.478  17.304  0.00  0.00    +0.000 A 
ATOM     10  N   UNL     1      49.158   5.264  17.796  0.00  0.00    +0.000 NA
ATOM     11  C   UNL     1      48.440   4.435  17.000  0.00  0.00    +0.000 A 
ATOM     12  N   UNL     1      48.021   4.784  15.756  0.00  0.00    +0.000 NA
BRANCH  11  13
ATOM     13  C   UNL     1      48.091   3.033  17.518  0.00  0.00    +0.000 C 
ATOM     14  F   UNL     1      46.753   2.747  17.485  0.00  0.00    +0.000 F 
ATOM     15  F   UNL     1      48.688   2.032  16.804  0.00  0.00    +0.000 F 
ATOM     16  F   UNL     1      48.467   2.830  18.818  0.00  0.00    +0.000 F 
ENDBRANCH  11  13
ENDBRANCH   5   7
BRANCH   1  17
ATOM     17  C   UNL     1      44.771   5.997  11.705  0.00  0.00    +0.000 C 
BRANCH  17  18
ATOM     18  N   UNL     1      44.691   5.775  10.270  0.00  0.00    +0.000 N 
ATOM     19  H   UNL     1      43.921   6.270   9.822  0.00  0.00    +0.000 HD
BRANCH  18  24
ATOM     20  C   UNL     1      45.754   2.884   8.139  0.00  0.00    +0.000 A 
ATOM     21  C   UNL     1      44.975   1.907   8.732  0.00  0.00    +0.000 A 
ATOM     22  N   UNL     1      44.157   2.141   9.779  0.00  0.00    +0.000 NA
ATOM     23  C   UNL     1      44.119   3.414  10.254  0.00  0.00    +0.000 A 
ATOM     24  C   UNL     1      44.872   4.484   9.762  0.00  0.00    +0.000 A 
ATOM     25  C   UNL     1      45.679   4.186   8.660  0.00  0.00    +0.000 A 
BRANCH  20  27
ATOM     26  F   UNL     1      46.138   2.944   5.775  0.00  0.00    +0.000 F 
ATOM     27  C   UNL     1      46.646   2.567   6.981  0.00  0.00    +0.000 C 
ATOM     28  F   UNL     1      46.903   1.233   6.876  0.00  0.00    +0.000 F 
ATOM     29  F   UNL     1      47.862   3.170   7.079  0.00  0.00    +0.000 F 
ENDBRANCH  20  27
ENDBRANCH  18  24
ENDBRANCH  17  18
ENDBRANCH   1  17
TORSDOF 6
ENDMDL
MODEL 2
REMARK VINA RESULT:    -8.298      3.868      5.025
REMARK INTER + INTRA:         -12.071
REMARK INTER:                 -11.402
REMARK INTRA:                  -0.669
REMARK UNBOUND:                -0.863
REMARK  Name = 
REMARK  6 active torsions:
REMARK  status: ('A' for Active; 'I' for Inactive)
REMARK    1  A    between atoms: C_2  and  C_5
REMARK    2  A    between atoms: C_9  and  N_10
REMARK    3  A    between atoms: N_10  and  C_11
REMARK    4  A    between atoms: C_11  and  C_12
REMARK    5  A    between atoms: C_16  and  C_17
REMARK    6  A    between atoms: C_21  and  C_22
REMARK                            x       y       z     vdW  Elec       q    Type
REMARK                         _______ _______ _______ _____ _____    ______ ____
ROOT
ATOM      1  C   UNL     1      44.638   4.170  12.306  0.00  0.00    +0.000 A 
ATOM      2  C   UNL     1      45.599   3.389  12.961  0.00  0.00    +0.000 A 
ATOM      3  C   UNL     1      46.754   3.980  13.468  0.00  0.00    +0.000 A 
ATOM      4  C   UNL     1      46.962   5.354  13.323  0.00  0.00    +0.000 A 
ATOM      5  C   UNL     1      46.016   6.177  12.685  0.00  0.00    +0.000 A 
ATOM      6  C   UNL     1      44.846   5.557  12.199  0.00  0.00    +0.000 A 
ENDROOT
BRANCH   5   7
ATOM      7  C   UNL     1      46.284   7.620  12.485  0.00  0.00    +0.000 A 
ATOM      8  C   UNL     1      45.281   8.571  12.434  0.00  0.00    +0.000 A 
ATOM      9  C   UNL     1      45.672   9.866  12.194  0.00  0.00    +0.000 A 
ATOM     10  N   UNL     1      46.949  10.238  12.013  0.00  0.00    +0.000 NA
ATOM     11  C   UNL     1      47.887   9.263  12.084  0.00  0.00    +0.000 A 
ATOM     12  N   UNL     1      47.584   7.960  12.323  0.00  0.00    +0.000 NA
BRANCH  11  13
ATOM     13  C   UNL     1      49.360   9.640  11.877  0.00  0.00    +0.000 C 
ATOM     14  F   UNL     1      49.543  10.810  11.191  0.00  0.00    +0.000 F 
ATOM     15  F   UNL     1      50.043   9.804  13.051  0.00  0.00    +0.000 F 
ATOM     16  F   UNL     1      50.063   8.701  11.172  0.00  0.00    +0.000 F 
ENDBRANCH  11  13
ENDBRANCH   5   7
BRANCH   1  17
ATOM     17  C   UNL     1      43.438   3.518  11.662  0.00  0.00    +0.000 C 
BRANCH  17  18
ATOM     18  N   UNL     1      43.830   2.432  10.779  0.00  0.00    +0.000 N 
ATOM     19  H   UNL     1      44.195   1.617  11.271  0.00  0.00    +0.000 HD
BRANCH  18  24
ATOM     20  C   UNL     1      46.173   2.197   7.866  0.00  0.00    +0.000 A 
ATOM     21  C   UNL     1      46.041   3.494   7.404  0.00  0.00    +0.000 A 
ATOM     22  N   UNL     1      45.229   4.408   7.974  0.00  0.00    +0.000 NA
ATOM     23  C   UNL     1      44.516   4.003   9.057  0.00  0.00    +0.000 A 
ATOM     24  C   UNL     1      44.540   2.718   9.608  0.00  0.00    +0.000 A 
ATOM     25  C   UNL     1      45.420   1.823   8.991  0.00  0.00    +0.000 A 
BRANCH  20  27
ATOM     26  F   UNL     1      46.774   0.983   5.889  0.00  0.00    +0.000 F 
ATOM     27  C   UNL     1      47.087   1.223   7.192  0.00  0.00    +0.000 C 
ATOM     28  F   UNL     1      47.089   0.006   7.805  0.00  0.00    +0.000 F 
ATOM     29  F   UNL     1      48.383   1.639   7.194  0.00  0.00    +0.000 F 
ENDBRANCH  20  27
ENDBRANCH  18  24
ENDBRANCH  17  18
ENDBRANCH   1  17
TORSDOF 6
ENDMDL
MODEL 3
REMARK VINA RESULT:    -8.019      1.566      2.028
REMARK INTER + INTRA:         -11.694
REMARK INTER:                 -10.829
REMARK INTRA:                  -0.866
REMARK UNBOUND:                -0.863
REMARK  Name = 
REMARK  6 active torsions:
REMARK  status: ('A' for Active; 'I' for Inactive)
REMARK    1  A    between atoms: C_2  and  C_5
REMARK    2  A    between atoms: C_9  and  N_10
REMARK    3  A    between atoms: N_10  and  C_11
REMARK    4  A    between atoms: C_11  and  C_12
REMARK    5  A    between atoms: C_16  and  C_17
REMARK    6  A    between atoms: C_21  and  C_22
REMARK                            x       y       z     vdW  Elec       q    Type
REMARK                         _______ _______ _______ _____ _____    ______ ____
ROOT
ATOM      1  C   UNL     1      46.241   6.248  11.955  0.00  0.00    +0.000 A 
ATOM      2  C   UNL     1      47.221   7.131  11.484  0.00  0.00    +0.000 A 
ATOM      3  C   UNL     1      48.379   7.352  12.225  0.00  0.00    +0.000 A 
ATOM      4  C   UNL     1      48.568   6.695  13.444  0.00  0.00    +0.000 A 
ATOM      5  C   UNL     1      47.617   5.790  13.947  0.00  0.00    +0.000 A 
ATOM      6  C   UNL     1      46.463   5.569  13.167  0.00  0.00    +0.000 A 
ENDROOT
BRANCH   5   7
ATOM      7  C   UNL     1      47.806   5.153  15.271  0.00  0.00    +0.000 A 
ATOM      8  C   UNL     1      47.052   4.078  15.703  0.00  0.00    +0.000 A 
ATOM      9  C   UNL     1      47.303   3.620  16.974  0.00  0.00    +0.000 A 
ATOM     10  N   UNL     1      48.224   4.156  17.790  0.00  0.00    +0.000 NA
ATOM     11  C   UNL     1      48.938   5.200  17.307  0.00  0.00    +0.000 A 
ATOM     12  N   UNL     1      48.754   5.709  16.060  0.00  0.00    +0.000 NA
BRANCH  11  13
ATOM     13  C   UNL     1      49.998   5.850  18.207  0.00  0.00    +0.000 C 
ATOM     14  F   UNL     1      51.263   5.359  18.019  0.00  0.00    +0.000 F 
ATOM     15  F   UNL     1      50.108   7.200  18.021  0.00  0.00    +0.000 F 
ATOM     16  F   UNL     1      49.747   5.682  19.542  0.00  0.00    +0.000 F 
ENDBRANCH  11  13
ENDBRANCH   5   7
BRANCH   1  17
ATOM     17  C   UNL     1      44.938   6.088  11.208  0.00  0.00    +0.000 C 
BRANCH  17  18
ATOM     18  N   UNL     1      45.161   5.795   9.802  0.00  0.00    +0.000 N 
ATOM     19  H   UNL     1      44.578   6.346   9.172  0.00  0.00    +0.000 HD
BRANCH  18  24
ATOM     20  C   UNL     1      46.080   2.727   7.859  0.00  0.00    +0.000 A 
ATOM     21  C   UNL     1      45.308   1.816   8.557  0.00  0.00    +0.000 A 
ATOM     22  N   UNL     1      44.540   2.147   9.616  0.00  0.00    +0.000 NA
ATOM     23  C   UNL     1      44.546   3.452   9.992  0.00  0.00    +0.000 A 
ATOM     24  C   UNL     1      45.296   4.465   9.388  0.00  0.00    +0.000 A 
ATOM     25  C   UNL     1      46.050   4.067   8.280  0.00  0.00    +0.000 A 
BRANCH  20  27
ATOM     26  F   UNL     1      46.542   2.869   5.513  0.00  0.00    +0.000 F 
ATOM     27  C   UNL     1      46.915   2.304   6.694  0.00  0.00    +0.000 C 
ATOM     28  F   UNL     1      46.875   0.957   6.490  0.00  0.00    +0.000 F 
ATOM     29  F   UNL     1      48.231   2.613   6.856  0.00  0.00    +0.000 F 
ENDBRANCH  20  27
ENDBRANCH  18  24
ENDBRANCH  17  18
ENDBRANCH   1  17
TORSDOF 6
ENDMDL
MODEL 4
REMARK VINA RESULT:    -7.852      1.445      2.561
REMARK INTER + INTRA:         -11.469
REMARK INTER:                 -10.694
REMARK INTRA:                  -0.775
REMARK UNBOUND:                -0.863
REMARK  Name = 
REMARK  6 active torsions:
REMARK  status: ('A' for Active; 'I' for Inactive)
REMARK    1  A    between atoms: C_2  and  C_5
REMARK    2  A    between atoms: C_9  and  N_10
REMARK    3  A    between atoms: N_10  and  C_11
REMARK    4  A    between atoms: C_11  and  C_12
REMARK    5  A    between atoms: C_16  and  C_17
REMARK    6  A    between atoms: C_21  and  C_22
REMARK                            x       y       z     vdW  Elec       q    Type
REMARK                         _______ _______ _______ _____ _____    ______ ____
ROOT
ATOM      1  C   UNL     1      44.485   5.067  11.111  0.00  0.00    +0.000 A 
ATOM      2  C   UNL     1      43.380   4.324  11.544  0.00  0.00    +0.000 A 
ATOM      3  C   UNL     1      43.329   3.843  12.851  0.00  0.00    +0.000 A 
ATOM      4  C   UNL     1      44.382   4.098  13.734  0.00  0.00    +0.000 A 
ATOM      5  C   UNL     1      45.503   4.853  13.343  0.00  0.00    +0.000 A 
ATOM      6  C   UNL     1      45.520   5.345  12.022  0.00  0.00    +0.000 A 
ENDROOT
BRANCH   5   7
ATOM      7  C   UNL     1      46.636   5.058  14.274  0.00  0.00    +0.000 A 
ATOM      8  C   UNL     1      47.513   6.122  14.169  0.00  0.00    +0.000 A 
ATOM      9  C   UNL     1      48.548   6.159  15.072  0.00  0.00    +0.000 A 
ATOM     10  N   UNL     1      48.738   5.234  16.026  0.00  0.00    +0.000 NA
ATOM     11  C   UNL     1      47.841   4.222  16.085  0.00  0.00    +0.000 A 
ATOM     12  N   UNL     1      46.788   4.115  15.233  0.00  0.00    +0.000 NA
BRANCH  11  13
ATOM     13  C   UNL     1      48.022   3.137  17.156  0.00  0.00    +0.000 C 
ATOM     14  F   UNL     1      46.845   2.625  17.633  0.00  0.00    +0.000 F 
ATOM     15  F   UNL     1      48.727   2.053  16.710  0.00  0.00    +0.000 F 
ATOM     16  F   UNL     1      48.693   3.580  18.264  0.00  0.00    +0.000 F 
ENDBRANCH  11  13
ENDBRANCH   5   7
BRANCH   1  17
ATOM     17  C   UNL     1      44.593   5.497   9.666  0.00  0.00    +0.000 C 
BRANCH  17  18
ATOM     18  N   UNL     1      44.144   4.451   8.763  0.00  0.00    +0.000 N 
ATOM     19  H   UNL     1      43.193   4.131   8.948  0.00  0.00    +0.000 HD
BRANCH  18  24
ATOM     20  C   UNL     1      46.766   2.366   7.087  0.00  0.00    +0.000 A 
ATOM     21  C   UNL     1      46.527   1.178   7.754  0.00  0.00    +0.000 A 
ATOM     22  N   UNL     1      45.587   1.039   8.712  0.00  0.00    +0.000 NA
ATOM     23  C   UNL     1      44.855   2.142   9.016  0.00  0.00    +0.000 A 
ATOM     24  C   UNL     1      45.012   3.403   8.436  0.00  0.00    +0.000 A 
ATOM     25  C   UNL     1      45.981   3.479   7.431  0.00  0.00    +0.000 A 
BRANCH  20  27
ATOM     26  F   UNL     1      49.018   2.927   6.493  0.00  0.00    +0.000 F 
ATOM     27  C   UNL     1      47.823   2.464   6.034  0.00  0.00    +0.000 C 
ATOM     28  F   UNL     1      47.465   3.300   5.018  0.00  0.00    +0.000 F 
ATOM     29  F   UNL     1      48.088   1.264   5.448  0.00  0.00    +0.000 F 
ENDBRANCH  20  27
ENDBRANCH  18  24
ENDBRANCH  17  18
ENDBRANCH   1  17
TORSDOF 6
ENDMDL
MODEL 5
REMARK VINA RESULT:    -7.757      1.483      8.077
REMARK INTER + INTRA:         -11.340
REMARK INTER:                 -10.383
REMARK INTRA:                  -0.957
REMARK UNBOUND:                -0.863
REMARK  Name = 
REMARK  6 active torsions:
REMARK  status: ('A' for Active; 'I' for Inactive)
REMARK    1  A    between atoms: C_2  and  C_5
REMARK    2  A    between atoms: C_9  and  N_10
REMARK    3  A    between atoms: N_10  and  C_11
REMARK    4  A    between atoms: C_11  and  C_12
REMARK    5  A    between atoms: C_16  and  C_17
REMARK    6  A    between atoms: C_21  and  C_22
REMARK                            x       y       z     vdW  Elec       q    Type
REMARK                         _______ _______ _______ _____ _____    ______ ____
ROOT
ATOM      1  C   UNL     1      47.157   7.577  13.304  0.00  0.00    +0.000 A 
ATOM      2  C   UNL     1      46.555   8.813  13.037  0.00  0.00    +0.000 A 
ATOM      3  C   UNL     1      45.377   8.872  12.295  0.00  0.00    +0.000 A 
ATOM      4  C   UNL     1      44.793   7.699  11.811  0.00  0.00    +0.000 A 
ATOM      5  C   UNL     1      45.357   6.436  12.068  0.00  0.00    +0.000 A 
ATOM      6  C   UNL     1      46.537   6.403  12.839  0.00  0.00    +0.000 A 
ENDROOT
BRANCH   5   7
ATOM      7  C   UNL     1      44.758   5.211  11.492  0.00  0.00    +0.000 A 
ATOM      8  C   UNL     1      43.761   4.491  12.127  0.00  0.00    +0.000 A 
ATOM      9  C   UNL     1      43.333   3.346  11.499  0.00  0.00    +0.000 A 
ATOM     10  N   UNL     1      43.826   2.909  10.330  0.00  0.00    +0.000 NA
ATOM     11  C   UNL     1      44.792   3.662   9.752  0.00  0.00    +0.000 A 
ATOM     12  N   UNL     1      45.267   4.809  10.305  0.00  0.00    +0.000 NA
BRANCH  11  13
ATOM     13  C   UNL     1      45.390   3.197   8.417  0.00  0.00    +0.000 C 
ATOM     14  F   UNL     1      45.900   1.927   8.449  0.00  0.00    +0.000 F 
ATOM     15  F   UNL     1      44.483   3.192   7.394  0.00  0.00    +0.000 F 
ATOM     16  F   UNL     1      46.423   3.984   7.986  0.00  0.00    +0.000 F 
ENDBRANCH  11  13
ENDBRANCH   5   7
BRANCH   1  17
ATOM     17  C   UNL     1      48.489   7.517  14.015  0.00  0.00    +0.000 C 
BRANCH  17  18
ATOM     18  N   UNL     1      48.335   7.679  15.452  0.00  0.00    +0.000 N 
ATOM     19  H   UNL     1      48.661   8.581  15.799  0.00  0.00    +0.000 HD
BRANCH  18  24
ATOM     20  C   UNL     1      48.563   4.287  17.024  0.00  0.00    +0.000 A 
ATOM     21  C   UNL     1      49.220   4.654  18.185  0.00  0.00    +0.000 A 
ATOM     22  N   UNL     1      49.597   5.920  18.459  0.00  0.00    +0.000 NA
ATOM     23  C   UNL     1      49.303   6.862  17.524  0.00  0.00    +0.000 A 
ATOM     24  C   UNL     1      48.667   6.620  16.304  0.00  0.00    +0.000 A 
ATOM     25  C   UNL     1      48.275   5.295  16.089  0.00  0.00    +0.000 A 
BRANCH  20  27
ATOM     26  F   UNL     1      47.119   2.443  17.526  0.00  0.00    +0.000 F 
ATOM     27  C   UNL     1      48.170   2.867  16.772  0.00  0.00    +0.000 C 
ATOM     28  F   UNL     1      49.186   1.996  17.028  0.00  0.00    +0.000 F 
ATOM     29  F   UNL     1      47.813   2.647  15.477  0.00  0.00    +0.000 F 
ENDBRANCH  20  27
ENDBRANCH  18  24
ENDBRANCH  17  18
ENDBRANCH   1  17
TORSDOF 6
ENDMDL
MODEL 6
REMARK VINA RESULT:    -7.658      1.423      1.935
REMARK INTER + INTRA:         -11.206
REMARK INTER:                 -10.217
REMARK INTRA:                  -0.989
REMARK UNBOUND:                -0.863
REMARK  Name = 
REMARK  6 active torsions:
REMARK  status: ('A' for Active; 'I' for Inactive)
REMARK    1  A    between atoms: C_2  and  C_5
REMARK    2  A    between atoms: C_9  and  N_10
REMARK    3  A    between atoms: N_10  and  C_11
REMARK    4  A    between atoms: C_11  and  C_12
REMARK    5  A    between atoms: C_16  and  C_17
REMARK    6  A    between atoms: C_21  and  C_22
REMARK                            x       y       z     vdW  Elec       q    Type
REMARK                         _______ _______ _______ _____ _____    ______ ____
ROOT
ATOM      1  C   UNL     1      47.093   7.167  12.263  0.00  0.00    +0.000 A 
ATOM      2  C   UNL     1      48.179   7.726  11.580  0.00  0.00    +0.000 A 
ATOM      3  C   UNL     1      49.425   7.811  12.197  0.00  0.00    +0.000 A 
ATOM      4  C   UNL     1      49.596   7.342  13.501  0.00  0.00    +0.000 A 
ATOM      5  C   UNL     1      48.535   6.760  14.219  0.00  0.00    +0.000 A 
ATOM      6  C   UNL     1      47.290   6.667  13.563  0.00  0.00    +0.000 A 
ENDROOT
BRANCH   5   7
ATOM      7  C   UNL     1      48.721   6.327  15.622  0.00  0.00    +0.000 A 
ATOM      8  C   UNL     1      49.287   7.136  16.590  0.00  0.00    +0.000 A 
ATOM      9  C   UNL     1      49.443   6.585  17.840  0.00  0.00    +0.000 A 
ATOM     10  N   UNL     1      49.077   5.332  18.152  0.00  0.00    +0.000 NA
ATOM     11  C   UNL     1      48.518   4.592  17.165  0.00  0.00    +0.000 A 
ATOM     12  N   UNL     1      48.326   5.063  15.905  0.00  0.00    +0.000 NA
BRANCH  11  13
ATOM     13  C   UNL     1      48.091   3.150  17.474  0.00  0.00    +0.000 C 
ATOM     14  F   UNL     1      48.702   2.209  16.690  0.00  0.00    +0.000 F 
ATOM     15  F   UNL     1      48.361   2.774  18.760  0.00  0.00    +0.000 F 
ATOM     16  F   UNL     1      46.750   2.938  17.304  0.00  0.00    +0.000 F 
ENDBRANCH  11  13
ENDBRANCH   5   7
BRANCH   1  17
ATOM     17  C   UNL     1      45.717   7.171  11.638  0.00  0.00    +0.000 C 
BRANCH  17  18
ATOM     18  N   UNL     1      44.781   6.365  12.405  0.00  0.00    +0.000 N 
ATOM     19  H   UNL     1      44.887   6.464  13.414  0.00  0.00    +0.000 HD
BRANCH  18  24
ATOM     20  C   UNL     1      44.477   3.225  10.385  0.00  0.00    +0.000 A 
ATOM     21  C   UNL     1      43.782   2.465  11.308  0.00  0.00    +0.000 A 
ATOM     22  N   UNL     1      43.437   2.914  12.533  0.00  0.00    +0.000 NA
ATOM     23  C   UNL     1      43.806   4.183  12.846  0.00  0.00    +0.000 A 
ATOM     24  C   UNL     1      44.528   5.044  12.015  0.00  0.00    +0.000 A 
ATOM     25  C   UNL     1      44.832   4.534  10.750  0.00  0.00    +0.000 A 
BRANCH  20  27
ATOM     26  F   UNL     1      44.111   3.205   8.017  0.00  0.00    +0.000 F 
ATOM     27  C   UNL     1      44.835   2.675   9.041  0.00  0.00    +0.000 C 
ATOM     28  F   UNL     1      44.652   1.327   8.968  0.00  0.00    +0.000 F 
ATOM     29  F   UNL     1      46.142   2.887   8.723  0.00  0.00    +0.000 F 
ENDBRANCH  20  27
ENDBRANCH  18  24
ENDBRANCH  17  18
ENDBRANCH   1  17
TORSDOF 6
ENDMDL
MODEL 7
REMARK VINA RESULT:    -7.636      3.679      4.493
REMARK INTER + INTRA:         -11.177
REMARK INTER:                 -10.311
REMARK INTRA:                  -0.866
REMARK UNBOUND:                -0.863
REMARK  Name = 
REMARK  6 active torsions:
REMARK  status: ('A' for Active; 'I' for Inactive)
REMARK    1  A    between atoms: C_2  and  C_5
REMARK    2  A    between atoms: C_9  and  N_10
REMARK    3  A    between atoms: N_10  and  C_11
REMARK    4  A    between atoms: C_11  and  C_12
REMARK    5  A    between atoms: C_16  and  C_17
REMARK    6  A    between atoms: C_21  and  C_22
REMARK                            x       y       z     vdW  Elec       q    Type
REMARK                         _______ _______ _______ _____ _____    ______ ____
ROOT
ATOM      1  C   UNL     1      45.405   5.670  12.243  0.00  0.00    +0.000 A 
ATOM      2  C   UNL     1      45.414   4.576  13.117  0.00  0.00    +0.000 A 
ATOM      3  C   UNL     1      46.440   4.434  14.049  0.00  0.00    +0.000 A 
ATOM      4  C   UNL     1      47.467   5.379  14.112  0.00  0.00    +0.000 A 
ATOM      5  C   UNL     1      47.489   6.500  13.262  0.00  0.00    +0.000 A 
ATOM      6  C   UNL     1      46.427   6.631  12.343  0.00  0.00    +0.000 A 
ENDROOT
BRANCH   5   7
ATOM      7  C   UNL     1      48.618   7.456  13.303  0.00  0.00    +0.000 A 
ATOM      8  C   UNL     1      48.755   8.417  14.288  0.00  0.00    +0.000 A 
ATOM      9  C   UNL     1      49.827   9.270  14.172  0.00  0.00    +0.000 A 
ATOM     10  N   UNL     1      50.721   9.210  13.174  0.00  0.00    +0.000 NA
ATOM     11  C   UNL     1      50.540   8.241  12.245  0.00  0.00    +0.000 A 
ATOM     12  N   UNL     1      49.510   7.357  12.290  0.00  0.00    +0.000 NA
BRANCH  11  13
ATOM     13  C   UNL     1      51.535   8.139  11.080  0.00  0.00    +0.000 C 
ATOM     14  F   UNL     1      51.511   9.215  10.234  0.00  0.00    +0.000 F 
ATOM     15  F   UNL     1      52.836   8.038  11.492  0.00  0.00    +0.000 F 
ATOM     16  F   UNL     1      51.318   7.051  10.280  0.00  0.00    +0.000 F 
ENDBRANCH  11  13
ENDBRANCH   5   7
BRANCH   1  17
ATOM     17  C   UNL     1      44.355   5.771  11.161  0.00  0.00    +0.000 C 
BRANCH  17  18
ATOM     18  N   UNL     1      44.930   5.584   9.839  0.00  0.00    +0.000 N 
ATOM     19  H   UNL     1      44.535   6.202   9.131  0.00  0.00    +0.000 HD
BRANCH  18  24
ATOM     20  C   UNL     1      46.108   2.679   7.790  0.00  0.00    +0.000 A 
ATOM     21  C   UNL     1      45.344   1.694   8.390  0.00  0.00    +0.000 A 
ATOM     22  N   UNL     1      44.502   1.928   9.417  0.00  0.00    +0.000 NA
ATOM     23  C   UNL     1      44.422   3.209   9.864  0.00  0.00    +0.000 A 
ATOM     24  C   UNL     1      45.154   4.288   9.362  0.00  0.00    +0.000 A 
ATOM     25  C   UNL     1      45.989   3.989   8.281  0.00  0.00    +0.000 A 
BRANCH  20  27
ATOM     26  F   UNL     1      48.304   2.801   6.840  0.00  0.00    +0.000 F 
ATOM     27  C   UNL     1      47.029   2.362   6.655  0.00  0.00    +0.000 C 
ATOM     28  F   UNL     1      46.612   2.913   5.481  0.00  0.00    +0.000 F 
ATOM     29  F   UNL     1      47.125   1.024   6.420  0.00  0.00    +0.000 F 
ENDBRANCH  20  27
ENDBRANCH  18  24
ENDBRANCH  17  18
ENDBRANCH   1  17
TORSDOF 6
ENDMDL
MODEL 8
REMARK VINA RESULT:    -7.388      2.019      8.370
REMARK INTER + INTRA:         -10.842
REMARK INTER:                 -10.070
REMARK INTRA:                  -0.772
REMARK UNBOUND:                -0.863
REMARK  Name = 
REMARK  6 active torsions:
REMARK  status: ('A' for Active; 'I' for Inactive)
REMARK    1  A    between atoms: C_2  and  C_5
REMARK    2  A    between atoms: C_9  and  N_10
REMARK    3  A    between atoms: N_10  and  C_11
REMARK    4  A    between atoms: C_11  and  C_12
REMARK    5  A    between atoms: C_16  and  C_17
REMARK    6  A    between atoms: C_21  and  C_22
REMARK                            x       y       z     vdW  Elec       q    Type
REMARK                         _______ _______ _______ _____ _____    ______ ____
ROOT
ATOM      1  C   UNL     1      47.338   7.219  13.744  0.00  0.00    +0.000 A 
ATOM      2  C   UNL     1      46.931   8.510  13.387  0.00  0.00    +0.000 A 
ATOM      3  C   UNL     1      45.855   8.689  12.520  0.00  0.00    +0.000 A 
ATOM      4  C   UNL     1      45.180   7.581  12.001  0.00  0.00    +0.000 A 
ATOM      5  C   UNL     1      45.548   6.268  12.345  0.00  0.00    +0.000 A 
ATOM      6  C   UNL     1      46.626   6.115  13.241  0.00  0.00    +0.000 A 
ENDROOT
BRANCH   5   7
ATOM      7  C   UNL     1      44.860   5.107  11.734  0.00  0.00    +0.000 A 
ATOM      8  C   UNL     1      43.852   4.409  12.374  0.00  0.00    +0.000 A 
ATOM      9  C   UNL     1      43.338   3.322  11.708  0.00  0.00    +0.000 A 
ATOM     10  N   UNL     1      43.760   2.922  10.498  0.00  0.00    +0.000 NA
ATOM     11  C   UNL     1      44.742   3.652   9.919  0.00  0.00    +0.000 A 
ATOM     12  N   UNL     1      45.300   4.742  10.508  0.00  0.00    +0.000 NA
BRANCH  11  13
ATOM     13  C   UNL     1      45.261   3.227   8.538  0.00  0.00    +0.000 C 
ATOM     14  F   UNL     1      46.299   3.991   8.076  0.00  0.00    +0.000 F 
ATOM     15  F   UNL     1      45.724   1.940   8.510  0.00  0.00    +0.000 F 
ATOM     16  F   UNL     1      44.306   3.294   7.560  0.00  0.00    +0.000 F 
ENDBRANCH  11  13
ENDBRANCH   5   7
BRANCH   1  17
ATOM     17  C   UNL     1      48.570   7.018  14.597  0.00  0.00    +0.000 C 
BRANCH  17  18
ATOM     18  N   UNL     1      48.222   6.760  15.985  0.00  0.00    +0.000 N 
ATOM     19  H   UNL     1      48.399   7.550  16.604  0.00  0.00    +0.000 HD
BRANCH  18  24
ATOM     20  C   UNL     1      50.149   3.934  17.510  0.00  0.00    +0.000 A 
ATOM     21  C   UNL     1      49.144   2.983  17.499  0.00  0.00    +0.000 A 
ATOM     22  N   UNL     1      47.896   3.225  17.048  0.00  0.00    +0.000 NA
ATOM     23  C   UNL     1      47.644   4.478  16.586  0.00  0.00    +0.000 A 
ATOM     24  C   UNL     1      48.562   5.532  16.563  0.00  0.00    +0.000 A 
ATOM     25  C   UNL     1      49.845   5.213  17.018  0.00  0.00    +0.000 A 
BRANCH  20  27
ATOM     26  F   UNL     1      52.523   4.198  17.322  0.00  0.00    +0.000 F 
ATOM     27  C   UNL     1      51.515   3.611  18.025  0.00  0.00    +0.000 C 
ATOM     28  F   UNL     1      51.775   2.273  18.000  0.00  0.00    +0.000 F 
ATOM     29  F   UNL     1      51.689   3.996  19.319  0.00  0.00    +0.000 F 
ENDBRANCH  20  27
ENDBRANCH  18  24
ENDBRANCH  17  18
ENDBRANCH   1  17
TORSDOF 6
ENDMDL
MODEL 9
REMARK VINA RESULT:    -6.980      2.675      7.393
REMARK INTER + INTRA:         -10.291
REMARK INTER:                  -8.953
REMARK INTRA:                  -1.338
REMARK UNBOUND:                -0.863
REMARK  Name = 
REMARK  6 active torsions:
REMARK  status: ('A' for Active; 'I' for Inactive)
REMARK    1  A    between atoms: C_2  and  C_5
REMARK    2  A    between atoms: C_9  and  N_10
REMARK    3  A    between atoms: N_10  and  C_11
REMARK    4  A    between atoms: C_11  and  C_12
REMARK    5  A    between atoms: C_16  and  C_17
REMARK    6  A    between atoms: C_21  and  C_22
REMARK                            x       y       z     vdW  Elec       q    Type
REMARK                         _______ _______ _______ _____ _____    ______ ____
ROOT
ATOM      1  C   UNL     1      49.398   8.317  14.292  0.00  0.00    +0.000 A 
ATOM      2  C   UNL     1      50.399   8.402  13.317  0.00  0.00    +0.000 A 
ATOM      3  C   UNL     1      50.133   8.010  12.006  0.00  0.00    +0.000 A 
ATOM      4  C   UNL     1      48.869   7.528  11.660  0.00  0.00    +0.000 A 
ATOM      5  C   UNL     1      47.831   7.440  12.606  0.00  0.00    +0.000 A 
ATOM      6  C   UNL     1      48.120   7.862  13.920  0.00  0.00    +0.000 A 
ENDROOT
BRANCH   5   7
ATOM      7  C   UNL     1      46.517   6.867  12.234  0.00  0.00    +0.000 A 
ATOM      8  C   UNL     1      45.426   7.646  11.896  0.00  0.00    +0.000 A 
ATOM      9  C   UNL     1      44.256   6.980  11.621  0.00  0.00    +0.000 A 
ATOM     10  N   UNL     1      44.131   5.644  11.663  0.00  0.00    +0.000 NA
ATOM     11  C   UNL     1      45.238   4.935  11.990  0.00  0.00    +0.000 A 
ATOM     12  N   UNL     1      46.433   5.516  12.272  0.00  0.00    +0.000 NA
BRANCH  11  13
ATOM     13  C   UNL     1      45.141   3.404  12.057  0.00  0.00    +0.000 C 
ATOM     14  F   UNL     1      43.969   2.946  12.598  0.00  0.00    +0.000 F 
ATOM     15  F   UNL     1      45.227   2.806  10.831  0.00  0.00    +0.000 F 
ATOM     16  F   UNL     1      46.129   2.834  12.813  0.00  0.00    +0.000 F 
ENDBRANCH  11  13
ENDBRANCH   5   7
BRANCH   1  17
ATOM     17  C   UNL     1      49.713   8.639  15.735  0.00  0.00    +0.000 C 
BRANCH  17  18
ATOM     18  N   UNL     1      50.242   7.481  16.437  0.00  0.00    +0.000 N 
ATOM     19  H   UNL     1      50.971   6.988  15.921  0.00  0.00    +0.000 HD
BRANCH  18  24
ATOM     20  C   UNL     1      48.160   4.498  17.330  0.00  0.00    +0.000 A 
ATOM     21  C   UNL     1      47.438   5.066  18.364  0.00  0.00    +0.000 A 
ATOM     22  N   UNL     1      47.612   6.337  18.782  0.00  0.00    +0.000 NA
ATOM     23  C   UNL     1      48.552   7.072  18.134  0.00  0.00    +0.000 A 
ATOM     24  C   UNL     1      49.363   6.611  17.093  0.00  0.00    +0.000 A 
ATOM     25  C   UNL     1      49.118   5.297  16.685  0.00  0.00    +0.000 A 
BRANCH  20  27
ATOM     26  F   UNL     1      47.598   2.943  15.595  0.00  0.00    +0.000 F 
ATOM     27  C   UNL     1      47.928   3.082  16.909  0.00  0.00    +0.000 C 
ATOM     28  F   UNL     1      46.919   2.492  17.610  0.00  0.00    +0.000 F 
ATOM     29  F   UNL     1      49.021   2.294  17.104  0.00  0.00    +0.000 F 
ENDBRANCH  20  27
ENDBRANCH  18  24
ENDBRANCH  17  18
ENDBRANCH   1  17
TORSDOF 6
ENDMDL
