MODEL 1
REMARK VINA RESULT:    -8.812      0.000      0.000
REMARK INTER + INTRA:         -10.682
REMARK INTER:                 -10.872
REMARK INTRA:                   0.190
REMARK UNBOUND:                 0.190
REMARK  Name = 
REMARK  4 active torsions:
REMARK  status: ('A' for Active; 'I' for Inactive)
REMARK    1  A    between atoms: C_2  and  C_4
REMARK    2  A    between atoms: N_8  and  C_9
REMARK    3  A    between atoms: C_9  and  C_10
REMARK    4  A    between atoms: C_14  and  C_15
REMARK                            x       y       z     vdW  Elec       q    Type
REMARK                         _______ _______ _______ _____ _____    ______ ____
ROOT
ATOM      1  C   UNL     1      43.948   4.733  11.535  0.00  0.00    +0.000 C 
ATOM      2  C   UNL     1      42.700   5.139  12.302  0.00  0.00    +0.000 C 
ATOM      3  C   UNL     1      43.018   5.832  11.021  0.00  0.00    +0.000 C 
ENDROOT
BRANCH   1   8
ATOM      4  C   UNL     1      46.382   2.692   7.547  0.00  0.00    +0.000 A 
ATOM      5  C   UNL     1      45.917   1.721   8.399  0.00  0.00    +0.000 A 
ATOM      6  N   UNL     1      45.136   1.981   9.470  0.00  0.00    +0.000 NA
ATOM      7  C   UNL     1      44.829   3.269   9.710  0.00  0.00    +0.000 A 
ATOM      8  N   UNL     1      43.971   3.472  10.792  0.00  0.00    +0.000 N 
ATOM      9  N   UNL     1      45.293   4.291   8.974  0.00  0.00    +0.000 NA
ATOM     10  C   UNL     1      46.063   3.981   7.904  0.00  0.00    +0.000 A 
ATOM     11  H   UNL     1      43.917   2.598  11.297  0.00  0.00    +0.000 HD
BRANCH   4  13
ATOM     12  N   UNL     1      47.108   3.318   5.318  0.00  0.00    +0.000 N 
ATOM     13  C   UNL     1      47.169   2.408   6.339  0.00  0.00    +0.000 C 
ATOM     14  O   UNL     1      47.882   1.419   6.268  0.00  0.00    +0.000 OA
ATOM     15  H   UNL     1      47.744   3.164   4.546  0.00  0.00    +0.000 HD
ATOM     16  H   UNL     1      46.739   4.256   5.418  0.00  0.00    +0.000 HD
ENDBRANCH   4  13
ENDBRANCH   1   8
BRANCH   1  17
ATOM     17  C   UNL     1      45.311   5.230  12.004  0.00  0.00    +0.000 A 
ATOM     18  C   UNL     1      45.993   6.245  11.313  0.00  0.00    +0.000 A 
ATOM     19  C   UNL     1      47.160   6.808  11.823  0.00  0.00    +0.000 A 
ATOM     20  C   UNL     1      47.670   6.365  13.044  0.00  0.00    +0.000 A 
ATOM     21  C   UNL     1      47.043   5.335  13.763  0.00  0.00    +0.000 A 
ATOM     22  C   UNL     1      45.888   4.763  13.200  0.00  0.00    +0.000 A 
BRANCH  21  23
ATOM     23  C   UNL     1      47.524   4.915  15.096  0.00  0.00    +0.000 A 
ATOM     24  C   UNL     1      48.304   5.772  15.886  0.00  0.00    +0.000 A 
ATOM     25  C   UNL     1      48.705   5.362  17.147  0.00  0.00    +0.000 A 
ATOM     26  N   UNL     1      48.384   4.169  17.685  0.00  0.00    +0.000 NA
ATOM     27  C   UNL     1      47.629   3.353  16.923  0.00  0.00    +0.000 A 
ATOM     28  C   UNL     1      47.186   3.672  15.648  0.00  0.00    +0.000 A 
ENDBRANCH  21  23
ENDBRANCH   1  17
TORSDOF 4
ENDMDL
MODEL 2
REMARK VINA RESULT:    -8.733      2.154      3.407
REMARK INTER + INTRA:         -10.584
REMARK INTER:                 -10.596
REMARK INTRA:                   0.011
REMARK UNBOUND:                 0.190
REMARK  Name = 
REMARK  4 active torsions:
REMARK  status: ('A' for Active; 'I' for Inactive)
REMARK    1  A    between atoms: C_2  and  C_4
REMARK    2  A    between atoms: N_8  and  C_9
REMARK    3  A    between atoms: C_9  and  C_10
REMARK    4  A    between atoms: C_14  and  C_15
REMARK                            x       y       z     vdW  Elec       q    Type
REMARK                         _______ _______ _______ _____ _____    ______ ____
ROOT
ATOM      1  C   UNL     1      43.777   4.695  11.498  0.00  0.00    +0.000 C 
ATOM      2  C   UNL     1      42.455   5.207  12.046  0.00  0.00    +0.000 C 
ATOM      3  C   UNL     1      43.079   5.910  10.887  0.00  0.00    +0.000 C 
ENDROOT
BRANCH   1   8
ATOM      4  C   UNL     1      46.445   2.729   7.623  0.00  0.00    +0.000 A 
ATOM      5  C   UNL     1      45.872   1.743   8.386  0.00  0.00    +0.000 A 
ATOM      6  N   UNL     1      45.018   1.988   9.404  0.00  0.00    +0.000 NA
ATOM      7  C   UNL     1      44.744   3.276   9.681  0.00  0.00    +0.000 A 
ATOM      8  N   UNL     1      43.810   3.469  10.700  0.00  0.00    +0.000 N 
ATOM      9  N   UNL     1      45.308   4.310   9.034  0.00  0.00    +0.000 NA
ATOM     10  C   UNL     1      46.150   4.014   8.015  0.00  0.00    +0.000 A 
ATOM     11  H   UNL     1      43.680   2.575  11.155  0.00  0.00    +0.000 HD
BRANCH   4  13
ATOM     12  N   UNL     1      47.144   3.248   5.358  0.00  0.00    +0.000 N 
ATOM     13  C   UNL     1      47.315   2.466   6.469  0.00  0.00    +0.000 C 
ATOM     14  O   UNL     1      48.185   1.611   6.516  0.00  0.00    +0.000 OA
ATOM     15  H   UNL     1      47.827   3.129   4.620  0.00  0.00    +0.000 HD
ATOM     16  H   UNL     1      46.620   4.115   5.352  0.00  0.00    +0.000 HD
ENDBRANCH   4  13
ENDBRANCH   1   8
BRANCH   1  17
ATOM     17  C   UNL     1      45.071   5.017  12.238  0.00  0.00    +0.000 A 
ATOM     18  C   UNL     1      45.680   4.073  13.081  0.00  0.00    +0.000 A 
ATOM     19  C   UNL     1      46.937   4.304  13.635  0.00  0.00    +0.000 A 
ATOM     20  C   UNL     1      47.614   5.491  13.352  0.00  0.00    +0.000 A 
ATOM     21  C   UNL     1      47.040   6.479  12.536  0.00  0.00    +0.000 A 
ATOM     22  C   UNL     1      45.753   6.230  12.026  0.00  0.00    +0.000 A 
BRANCH  21  23
ATOM     23  C   UNL     1      47.780   7.702  12.160  0.00  0.00    +0.000 A 
ATOM     24  C   UNL     1      47.156   8.957  12.172  0.00  0.00    +0.000 A 
ATOM     25  C   UNL     1      47.890  10.088  11.853  0.00  0.00    +0.000 A 
ATOM     26  N   UNL     1      49.197  10.067  11.528  0.00  0.00    +0.000 NA
ATOM     27  C   UNL     1      49.793   8.857  11.524  0.00  0.00    +0.000 A 
ATOM     28  C   UNL     1      49.140   7.671  11.823  0.00  0.00    +0.000 A 
ENDBRANCH  21  23
ENDBRANCH   1  17
TORSDOF 4
ENDMDL
MODEL 3
REMARK VINA RESULT:    -7.877      2.988      7.688
REMARK INTER + INTRA:          -9.528
REMARK INTER:                  -9.425
REMARK INTRA:                  -0.103
REMARK UNBOUND:                 0.190
REMARK  Name = 
REMARK  4 active torsions:
REMARK  status: ('A' for Active; 'I' for Inactive)
REMARK    1  A    between atoms: C_2  and  C_4
REMARK    2  A    between atoms: N_8  and  C_9
REMARK    3  A    between atoms: C_9  and  C_10
REMARK    4  A    between atoms: C_14  and  C_15
REMARK                            x       y       z     vdW  Elec       q    Type
REMARK                         _______ _______ _______ _____ _____    ______ ____
ROOT
ATOM      1  C   UNL     1      48.663   7.736  12.812  0.00  0.00    +0.000 C 
ATOM      2  C   UNL     1      49.796   7.351  11.874  0.00  0.00    +0.000 C 
ATOM      3  C   UNL     1      49.425   8.790  12.007  0.00  0.00    +0.000 C 
ENDROOT
BRANCH   1   8
ATOM      4  C   UNL     1      47.992   4.539  16.726  0.00  0.00    +0.000 A 
ATOM      5  C   UNL     1      48.972   5.462  16.997  0.00  0.00    +0.000 A 
ATOM      6  N   UNL     1      49.269   6.496  16.180  0.00  0.00    +0.000 NA
ATOM      7  C   UNL     1      48.570   6.596  15.034  0.00  0.00    +0.000 A 
ATOM      8  N   UNL     1      48.876   7.715  14.260  0.00  0.00    +0.000 N 
ATOM      9  N   UNL     1      47.642   5.704  14.652  0.00  0.00    +0.000 NA
ATOM     10  C   UNL     1      47.371   4.690  15.509  0.00  0.00    +0.000 A 
ATOM     11  H   UNL     1      49.720   8.121  14.644  0.00  0.00    +0.000 HD
BRANCH   4  13
ATOM     12  N   UNL     1      48.435   3.223  18.716  0.00  0.00    +0.000 N 
ATOM     13  C   UNL     1      47.615   3.457  17.645  0.00  0.00    +0.000 C 
ATOM     14  O   UNL     1      46.585   2.821  17.482  0.00  0.00    +0.000 OA
ATOM     15  H   UNL     1      48.098   2.555  19.398  0.00  0.00    +0.000 HD
ATOM     16  H   UNL     1      49.151   3.867  19.032  0.00  0.00    +0.000 HD
ENDBRANCH   4  13
ENDBRANCH   1   8
BRANCH   1  17
ATOM     17  C   UNL     1      47.219   7.527  12.370  0.00  0.00    +0.000 A 
ATOM     18  C   UNL     1      46.250   8.527  12.555  0.00  0.00    +0.000 A 
ATOM     19  C   UNL     1      44.972   8.402  12.015  0.00  0.00    +0.000 A 
ATOM     20  C   UNL     1      44.637   7.268  11.274  0.00  0.00    +0.000 A 
ATOM     21  C   UNL     1      45.559   6.227  11.081  0.00  0.00    +0.000 A 
ATOM     22  C   UNL     1      46.828   6.369  11.673  0.00  0.00    +0.000 A 
BRANCH  21  23
ATOM     23  C   UNL     1      45.247   5.062  10.228  0.00  0.00    +0.000 A 
ATOM     24  C   UNL     1      45.733   4.975   8.916  0.00  0.00    +0.000 A 
ATOM     25  C   UNL     1      45.455   3.849   8.158  0.00  0.00    +0.000 A 
ATOM     26  N   UNL     1      44.735   2.802   8.606  0.00  0.00    +0.000 NA
ATOM     27  C   UNL     1      44.275   2.890   9.870  0.00  0.00    +0.000 A 
ATOM     28  C   UNL     1      44.497   3.977  10.702  0.00  0.00    +0.000 A 
ENDBRANCH  21  23
ENDBRANCH   1  17
TORSDOF 4
ENDMDL
MODEL 4
REMARK VINA RESULT:    -7.169      4.159      7.244
REMARK INTER + INTRA:          -8.655
REMARK INTER:                  -7.953
REMARK INTRA:                  -0.702
REMARK UNBOUND:                 0.190
REMARK  Name = 
REMARK  4 active torsions:
REMARK  status: ('A' for Active; 'I' for Inactive)
REMARK    1  A    between atoms: C_2  and  C_4
REMARK    2  A    between atoms: N_8  and  C_9
REMARK    3  A    between atoms: C_9  and  C_10
REMARK    4  A    between atoms: C_14  and  C_15
REMARK                            x       y       z     vdW  Elec       q    Type
REMARK                         _______ _______ _______ _____ _____    ______ ____
ROOT
ATOM      1  C   UNL     1      45.853   4.752  12.808  0.00  0.00    +0.000 C 
ATOM      2  C   UNL     1      44.422   4.329  13.100  0.00  0.00    +0.000 C 
ATOM      3  C   UNL     1      44.985   4.083  11.741  0.00  0.00    +0.000 C 
ENDROOT
BRANCH   1   8
ATOM      4  C   UNL     1      48.080   3.896  17.313  0.00  0.00    +0.000 A 
ATOM      5  C   UNL     1      48.303   2.860  16.441  0.00  0.00    +0.000 A 
ATOM      6  N   UNL     1      47.926   2.883  15.144  0.00  0.00    +0.000 NA
ATOM      7  C   UNL     1      47.279   3.980  14.710  0.00  0.00    +0.000 A 
ATOM      8  N   UNL     1      46.968   3.974  13.349  0.00  0.00    +0.000 N 
ATOM      9  N   UNL     1      46.957   5.013  15.505  0.00  0.00    +0.000 NA
ATOM     10  C   UNL     1      47.365   4.949  16.795  0.00  0.00    +0.000 A 
ATOM     11  H   UNL     1      47.130   3.035  13.012  0.00  0.00    +0.000 HD
BRANCH   4  13
ATOM     12  N   UNL     1      48.189   2.858  19.503  0.00  0.00    +0.000 N 
ATOM     13  C   UNL     1      48.554   3.908  18.704  0.00  0.00    +0.000 C 
ATOM     14  O   UNL     1      49.280   4.799  19.116  0.00  0.00    +0.000 OA
ATOM     15  H   UNL     1      48.620   2.825  20.419  0.00  0.00    +0.000 HD
ATOM     16  H   UNL     1      47.806   1.987  19.155  0.00  0.00    +0.000 HD
ENDBRANCH   4  13
ENDBRANCH   1   8
BRANCH   1  17
ATOM     17  C   UNL     1      46.161   6.221  12.539  0.00  0.00    +0.000 A 
ATOM     18  C   UNL     1      45.226   7.226  12.838  0.00  0.00    +0.000 A 
ATOM     19  C   UNL     1      45.560   8.574  12.741  0.00  0.00    +0.000 A 
ATOM     20  C   UNL     1      46.845   8.946  12.342  0.00  0.00    +0.000 A 
ATOM     21  C   UNL     1      47.809   7.983  12.007  0.00  0.00    +0.000 A 
ATOM     22  C   UNL     1      47.426   6.631  12.079  0.00  0.00    +0.000 A 
BRANCH  21  23
ATOM     23  C   UNL     1      49.197   8.359  11.665  0.00  0.00    +0.000 A 
ATOM     24  C   UNL     1      50.138   7.389  11.290  0.00  0.00    +0.000 A 
ATOM     25  C   UNL     1      51.419   7.782  10.938  0.00  0.00    +0.000 A 
ATOM     26  N   UNL     1      51.834   9.063  10.925  0.00  0.00    +0.000 NA
ATOM     27  C   UNL     1      50.923   9.991  11.280  0.00  0.00    +0.000 A 
ATOM     28  C   UNL     1      49.621   9.695  11.655  0.00  0.00    +0.000 A 
ENDBRANCH  21  23
ENDBRANCH   1  17
TORSDOF 4
ENDMDL
MODEL 5
REMARK VINA RESULT:    -7.105      4.112      8.768
REMARK INTER + INTRA:          -8.576
REMARK INTER:                  -8.216
REMARK INTRA:                  -0.360
REMARK UNBOUND:                 0.190
REMARK  Name = 
REMARK  4 active torsions:
REMARK  status: ('A' for Active; 'I' for Inactive)
REMARK    1  A    between atoms: C_2  and  C_4
REMARK    2  A    between atoms: N_8  and  C_9
REMARK    3  A    between atoms: C_9  and  C_10
REMARK    4  A    between atoms: C_14  and  C_15
REMARK                            x       y       z     vdW  Elec       q    Type
REMARK                         _______ _______ _______ _____ _____    ______ ____
ROOT
ATOM      1  C   UNL     1      48.254   3.382  17.072  0.00  0.00    +0.000 C 
ATOM      2  C   UNL     1      48.020   3.642  18.551  0.00  0.00    +0.000 C 
ATOM      3  C   UNL     1      46.994   2.884  17.779  0.00  0.00    +0.000 C 
ENDROOT
BRANCH   1   8
ATOM      4  C   UNL     1      53.059   2.049  18.135  0.00  0.00    +0.000 A 
ATOM      5  C   UNL     1      52.347   0.990  17.630  0.00  0.00    +0.000 A 
ATOM      6  N   UNL     1      51.087   1.097  17.156  0.00  0.00    +0.000 NA
ATOM      7  C   UNL     1      50.509   2.311  17.212  0.00  0.00    +0.000 A 
ATOM      8  N   UNL     1      49.231   2.376  16.654  0.00  0.00    +0.000 N 
ATOM      9  N   UNL     1      51.100   3.390  17.751  0.00  0.00    +0.000 NA
ATOM     10  C   UNL     1      52.368   3.236  18.203  0.00  0.00    +0.000 A 
ATOM     11  H   UNL     1      48.928   1.424  16.496  0.00  0.00    +0.000 HD
BRANCH   4  13
ATOM     12  N   UNL     1      54.679   1.576  19.878  0.00  0.00    +0.000 N 
ATOM     13  C   UNL     1      54.455   1.955  18.582  0.00  0.00    +0.000 C 
ATOM     14  O   UNL     1      55.380   2.164  17.813  0.00  0.00    +0.000 OA
ATOM     15  H   UNL     1      55.644   1.403  20.132  0.00  0.00    +0.000 HD
ATOM     16  H   UNL     1      53.975   1.158  20.475  0.00  0.00    +0.000 HD
ENDBRANCH   4  13
ENDBRANCH   1   8
BRANCH   1  17
ATOM     17  C   UNL     1      48.012   4.503  16.066  0.00  0.00    +0.000 A 
ATOM     18  C   UNL     1      48.733   5.707  16.132  0.00  0.00    +0.000 A 
ATOM     19  C   UNL     1      48.627   6.667  15.129  0.00  0.00    +0.000 A 
ATOM     20  C   UNL     1      47.795   6.439  14.032  0.00  0.00    +0.000 A 
ATOM     21  C   UNL     1      47.034   5.264  13.929  0.00  0.00    +0.000 A 
ATOM     22  C   UNL     1      47.134   4.333  14.980  0.00  0.00    +0.000 A 
BRANCH  21  23
ATOM     23  C   UNL     1      46.215   4.972  12.734  0.00  0.00    +0.000 A 
ATOM     24  C   UNL     1      46.061   5.921  11.714  0.00  0.00    +0.000 A 
ATOM     25  C   UNL     1      45.320   5.600  10.589  0.00  0.00    +0.000 A 
ATOM     26  N   UNL     1      44.725   4.406  10.398  0.00  0.00    +0.000 NA
ATOM     27  C   UNL     1      44.882   3.496  11.380  0.00  0.00    +0.000 A 
ATOM     28  C   UNL     1      45.599   3.727  12.544  0.00  0.00    +0.000 A 
ENDBRANCH  21  23
ENDBRANCH   1  17
TORSDOF 4
ENDMDL
MODEL 6
REMARK VINA RESULT:    -6.808      3.238      5.254
REMARK INTER + INTRA:          -8.210
REMARK INTER:                  -7.687
REMARK INTRA:                  -0.523
REMARK UNBOUND:                 0.190
REMARK  Name = 
REMARK  4 active torsions:
REMARK  status: ('A' for Active; 'I' for Inactive)
REMARK    1  A    between atoms: C_2  and  C_4
REMARK    2  A    between atoms: N_8  and  C_9
REMARK    3  A    between atoms: C_9  and  C_10
REMARK    4  A    between atoms: C_14  and  C_15
REMARK                            x       y       z     vdW  Elec       q    Type
REMARK                         _______ _______ _______ _____ _____    ______ ____
ROOT
ATOM      1  C   UNL     1      48.697   8.361  12.502  0.00  0.00    +0.000 C 
ATOM      2  C   UNL     1      48.489   9.728  11.869  0.00  0.00    +0.000 C 
ATOM      3  C   UNL     1      49.854   9.127  11.859  0.00  0.00    +0.000 C 
ENDROOT
BRANCH   1   8
ATOM      4  C   UNL     1      44.312   5.875  11.739  0.00  0.00    +0.000 A 
ATOM      5  C   UNL     1      45.222   5.599  10.749  0.00  0.00    +0.000 A 
ATOM      6  N   UNL     1      46.501   6.032  10.770  0.00  0.00    +0.000 NA
ATOM      7  C   UNL     1      46.877   6.792  11.815  0.00  0.00    +0.000 A 
ATOM      8  N   UNL     1      48.224   7.159  11.815  0.00  0.00    +0.000 N 
ATOM      9  N   UNL     1      46.041   7.170  12.795  0.00  0.00    +0.000 NA
ATOM     10  C   UNL     1      44.771   6.702  12.737  0.00  0.00    +0.000 A 
ATOM     11  H   UNL     1      48.594   6.930  10.902  0.00  0.00    +0.000 HD
BRANCH   4  13
ATOM     12  N   UNL     1      41.915   6.249  11.739  0.00  0.00    +0.000 N 
ATOM     13  C   UNL     1      42.943   5.344  11.759  0.00  0.00    +0.000 C 
ATOM     14  O   UNL     1      42.731   4.142  11.751  0.00  0.00    +0.000 OA
ATOM     15  H   UNL     1      40.984   5.863  11.636  0.00  0.00    +0.000 HD
ATOM     16  H   UNL     1      42.027   7.227  11.500  0.00  0.00    +0.000 HD
ENDBRANCH   4  13
ENDBRANCH   1   8
BRANCH   1  17
ATOM     17  C   UNL     1      48.786   8.244  14.020  0.00  0.00    +0.000 A 
ATOM     18  C   UNL     1      48.542   9.351  14.850  0.00  0.00    +0.000 A 
ATOM     19  C   UNL     1      48.469   9.213  16.234  0.00  0.00    +0.000 A 
ATOM     20  C   UNL     1      48.637   7.956  16.818  0.00  0.00    +0.000 A 
ATOM     21  C   UNL     1      48.908   6.822  16.037  0.00  0.00    +0.000 A 
ATOM     22  C   UNL     1      49.014   7.004  14.646  0.00  0.00    +0.000 A 
BRANCH  21  23
ATOM     23  C   UNL     1      49.003   5.473  16.633  0.00  0.00    +0.000 A 
ATOM     24  C   UNL     1      47.947   4.558  16.523  0.00  0.00    +0.000 A 
ATOM     25  C   UNL     1      48.085   3.288  17.060  0.00  0.00    +0.000 A 
ATOM     26  N   UNL     1      49.194   2.857  17.692  0.00  0.00    +0.000 NA
ATOM     27  C   UNL     1      50.208   3.740  17.789  0.00  0.00    +0.000 A 
ATOM     28  C   UNL     1      50.161   5.033  17.290  0.00  0.00    +0.000 A 
ENDBRANCH  21  23
ENDBRANCH   1  17
TORSDOF 4
ENDMDL
MODEL 7
REMARK VINA RESULT:    -6.759      2.684      3.262
REMARK INTER + INTRA:          -8.149
REMARK INTER:                  -7.633
REMARK INTRA:                  -0.516
REMARK UNBOUND:                 0.190
REMARK  Name = 
REMARK  4 active torsions:
REMARK  status: ('A' for Active; 'I' for Inactive)
REMARK    1  A    between atoms: C_2  and  C_4
REMARK    2  A    between atoms: N_8  and  C_9
REMARK    3  A    between atoms: C_9  and  C_10
REMARK    4  A    between atoms: C_14  and  C_15
REMARK                            x       y       z     vdW  Elec       q    Type
REMARK                         _______ _______ _______ _____ _____    ______ ____
ROOT
ATOM      1  C   UNL     1      44.192   5.399  11.544  0.00  0.00    +0.000 C 
ATOM      2  C   UNL     1      44.586   4.408  12.626  0.00  0.00    +0.000 C 
ATOM      3  C   UNL     1      43.279   5.116  12.737  0.00  0.00    +0.000 C 
ENDROOT
BRANCH   1   8
ATOM      4  C   UNL     1      46.256   3.488   7.292  0.00  0.00    +0.000 A 
ATOM      5  C   UNL     1      44.947   3.100   7.429  0.00  0.00    +0.000 A 
ATOM      6  N   UNL     1      44.131   3.559   8.403  0.00  0.00    +0.000 NA
ATOM      7  C   UNL     1      44.657   4.426   9.288  0.00  0.00    +0.000 A 
ATOM      8  N   UNL     1      43.754   4.914  10.234  0.00  0.00    +0.000 N 
ATOM      9  N   UNL     1      45.943   4.811   9.275  0.00  0.00    +0.000 NA
ATOM     10  C   UNL     1      46.719   4.332   8.273  0.00  0.00    +0.000 A 
ATOM     11  H   UNL     1      42.919   4.347  10.168  0.00  0.00    +0.000 HD
BRANCH   4  13
ATOM     12  N   UNL     1      48.420   2.729   6.499  0.00  0.00    +0.000 N 
ATOM     13  C   UNL     1      47.125   3.050   6.191  0.00  0.00    +0.000 C 
ATOM     14  O   UNL     1      46.695   2.936   5.054  0.00  0.00    +0.000 OA
ATOM     15  H   UNL     1      48.967   2.319   5.752  0.00  0.00    +0.000 HD
ATOM     16  H   UNL     1      48.754   2.569   7.442  0.00  0.00    +0.000 HD
ENDBRANCH   4  13
ENDBRANCH   1   8
BRANCH   1  17
ATOM     17  C   UNL     1      44.812   6.792  11.540  0.00  0.00    +0.000 A 
ATOM     18  C   UNL     1      44.045   7.929  11.234  0.00  0.00    +0.000 A 
ATOM     19  C   UNL     1      44.566   9.212  11.381  0.00  0.00    +0.000 A 
ATOM     20  C   UNL     1      45.872   9.385  11.841  0.00  0.00    +0.000 A 
ATOM     21  C   UNL     1      46.690   8.283  12.136  0.00  0.00    +0.000 A 
ATOM     22  C   UNL     1      46.145   7.001  11.940  0.00  0.00    +0.000 A 
BRANCH  21  23
ATOM     23  C   UNL     1      48.044   8.451  12.704  0.00  0.00    +0.000 A 
ATOM     24  C   UNL     1      48.232   9.043  13.961  0.00  0.00    +0.000 A 
ATOM     25  C   UNL     1      49.511   9.150  14.482  0.00  0.00    +0.000 A 
ATOM     26  N   UNL     1      50.617   8.708  13.851  0.00  0.00    +0.000 NA
ATOM     27  C   UNL     1      50.428   8.134  12.646  0.00  0.00    +0.000 A 
ATOM     28  C   UNL     1      49.189   7.989  12.041  0.00  0.00    +0.000 A 
ENDBRANCH  21  23
ENDBRANCH   1  17
TORSDOF 4
ENDMDL
MODEL 8
REMARK VINA RESULT:    -6.674      4.491      6.399
REMARK INTER + INTRA:          -8.044
REMARK INTER:                  -7.412
REMARK INTRA:                  -0.632
REMARK UNBOUND:                 0.190
REMARK  Name = 
REMARK  4 active torsions:
REMARK  status: ('A' for Active; 'I' for Inactive)
REMARK    1  A    between atoms: C_2  and  C_4
REMARK    2  A    between atoms: N_8  and  C_9
REMARK    3  A    between atoms: C_9  and  C_10
REMARK    4  A    between atoms: C_14  and  C_15
REMARK                            x       y       z     vdW  Elec       q    Type
REMARK                         _______ _______ _______ _____ _____    ______ ____
ROOT
ATOM      1  C   UNL     1      47.799   8.160  13.634  0.00  0.00    +0.000 C 
ATOM      2  C   UNL     1      48.561   7.131  14.454  0.00  0.00    +0.000 C 
ATOM      3  C   UNL     1      48.271   8.465  15.056  0.00  0.00    +0.000 C 
ENDROOT
BRANCH   1   8
ATOM      4  C   UNL     1      44.622   5.134  11.038  0.00  0.00    +0.000 A 
ATOM      5  C   UNL     1      43.999   5.699  12.123  0.00  0.00    +0.000 A 
ATOM      6  N   UNL     1      44.575   6.631  12.913  0.00  0.00    +0.000 NA
ATOM      7  C   UNL     1      45.836   6.995  12.614  0.00  0.00    +0.000 A 
ATOM      8  N   UNL     1      46.359   8.004  13.425  0.00  0.00    +0.000 N 
ATOM      9  N   UNL     1      46.549   6.451  11.616  0.00  0.00    +0.000 NA
ATOM     10  C   UNL     1      45.925   5.528  10.845  0.00  0.00    +0.000 A 
ATOM     11  H   UNL     1      45.728   8.113  14.208  0.00  0.00    +0.000 HD
BRANCH   4  13
ATOM     12  N   UNL     1      44.080   4.407   8.787  0.00  0.00    +0.000 N 
ATOM     13  C   UNL     1      43.973   4.176  10.132  0.00  0.00    +0.000 C 
ATOM     14  O   UNL     1      43.398   3.189  10.564  0.00  0.00    +0.000 OA
ATOM     15  H   UNL     1      43.729   3.677   8.180  0.00  0.00    +0.000 HD
ATOM     16  H   UNL     1      44.741   5.056   8.375  0.00  0.00    +0.000 HD
ENDBRANCH   4  13
ENDBRANCH   1   8
BRANCH   1  17
ATOM     17  C   UNL     1      48.528   8.941  12.546  0.00  0.00    +0.000 A 
ATOM     18  C   UNL     1      48.096  10.220  12.157  0.00  0.00    +0.000 A 
ATOM     19  C   UNL     1      48.845  10.998  11.278  0.00  0.00    +0.000 A 
ATOM     20  C   UNL     1      50.051  10.511  10.771  0.00  0.00    +0.000 A 
ATOM     21  C   UNL     1      50.515   9.229  11.108  0.00  0.00    +0.000 A 
ATOM     22  C   UNL     1      49.714   8.455  11.966  0.00  0.00    +0.000 A 
BRANCH  21  23
ATOM     23  C   UNL     1      51.829   8.734  10.646  0.00  0.00    +0.000 A 
ATOM     24  C   UNL     1      52.948   9.579  10.609  0.00  0.00    +0.000 A 
ATOM     25  C   UNL     1      54.173   9.072  10.209  0.00  0.00    +0.000 A 
ATOM     26  N   UNL     1      54.373   7.789   9.849  0.00  0.00    +0.000 NA
ATOM     27  C   UNL     1      53.295   6.981   9.893  0.00  0.00    +0.000 A 
ATOM     28  C   UNL     1      52.028   7.398  10.273  0.00  0.00    +0.000 A 
ENDBRANCH  21  23
ENDBRANCH   1  17
TORSDOF 4
ENDMDL
MODEL 9
REMARK VINA RESULT:    -6.483      2.945      4.817
REMARK INTER + INTRA:          -7.809
REMARK INTER:                  -7.391
REMARK INTRA:                  -0.418
REMARK UNBOUND:                 0.190
REMARK  Name = 
REMARK  4 active torsions:
REMARK  status: ('A' for Active; 'I' for Inactive)
REMARK    1  A    between atoms: C_2  and  C_4
REMARK    2  A    between atoms: N_8  and  C_9
REMARK    3  A    between atoms: C_9  and  C_10
REMARK    4  A    between atoms: C_14  and  C_15
REMARK                            x       y       z     vdW  Elec       q    Type
REMARK                         _______ _______ _______ _____ _____    ______ ____
ROOT
ATOM      1  C   UNL     1      47.989   8.152  13.258  0.00  0.00    +0.000 C 
ATOM      2  C   UNL     1      46.861   8.963  13.875  0.00  0.00    +0.000 C 
ATOM      3  C   UNL     1      47.946   9.676  13.141  0.00  0.00    +0.000 C 
ENDROOT
BRANCH   1   8
ATOM      4  C   UNL     1      44.922   4.411  11.648  0.00  0.00    +0.000 A 
ATOM      5  C   UNL     1      45.375   5.172  10.599  0.00  0.00    +0.000 A 
ATOM      6  N   UNL     1      46.293   6.154  10.732  0.00  0.00    +0.000 NA
ATOM      7  C   UNL     1      46.760   6.397  11.970  0.00  0.00    +0.000 A 
ATOM      8  N   UNL     1      47.750   7.379  12.038  0.00  0.00    +0.000 N 
ATOM      9  N   UNL     1      46.328   5.752  13.065  0.00  0.00    +0.000 NA
ATOM     10  C   UNL     1      45.414   4.768  12.881  0.00  0.00    +0.000 A 
ATOM     11  H   UNL     1      47.766   7.846  11.142  0.00  0.00    +0.000 HD
BRANCH   4  13
ATOM     12  N   UNL     1      43.749   2.511  12.598  0.00  0.00    +0.000 N 
ATOM     13  C   UNL     1      43.981   3.293  11.498  0.00  0.00    +0.000 C 
ATOM     14  O   UNL     1      43.396   3.097  10.444  0.00  0.00    +0.000 OA
ATOM     15  H   UNL     1      43.013   1.822  12.507  0.00  0.00    +0.000 HD
ATOM     16  H   UNL     1      44.009   2.772  13.542  0.00  0.00    +0.000 HD
ENDBRANCH   4  13
ENDBRANCH   1   8
BRANCH   1  17
ATOM     17  C   UNL     1      49.105   7.620  14.150  0.00  0.00    +0.000 A 
ATOM     18  C   UNL     1      50.428   8.069  14.005  0.00  0.00    +0.000 A 
ATOM     19  C   UNL     1      51.418   7.704  14.914  0.00  0.00    +0.000 A 
ATOM     20  C   UNL     1      51.101   6.880  15.994  0.00  0.00    +0.000 A 
ATOM     21  C   UNL     1      49.801   6.382  16.172  0.00  0.00    +0.000 A 
ATOM     22  C   UNL     1      48.835   6.738  15.213  0.00  0.00    +0.000 A 
BRANCH  21  23
ATOM     23  C   UNL     1      49.432   5.579  17.356  0.00  0.00    +0.000 A 
ATOM     24  C   UNL     1      49.739   6.018  18.652  0.00  0.00    +0.000 A 
ATOM     25  C   UNL     1      49.343   5.259  19.741  0.00  0.00    +0.000 A 
ATOM     26  N   UNL     1      48.661   4.102  19.642  0.00  0.00    +0.000 NA
ATOM     27  C   UNL     1      48.364   3.688  18.394  0.00  0.00    +0.000 A 
ATOM     28  C   UNL     1      48.723   4.375  17.243  0.00  0.00    +0.000 A 
ENDBRANCH  21  23
ENDBRANCH   1  17
TORSDOF 4
ENDMDL
