MODEL 1
REMARK VINA RESULT:    -8.177      0.000      0.000
REMARK INTER + INTRA:         -12.229
REMARK INTER:                 -11.045
REMARK INTRA:                  -1.184
REMARK UNBOUND:                -1.184
REMARK  Name = 
REMARK  7 active torsions:
REMARK  status: ('A' for Active; 'I' for Inactive)
REMARK    1  A    between atoms: C_1  and  C_2
REMARK    2  A    between atoms: C_2  and  C_3
REMARK    3  A    between atoms: C_7  and  C_8
REMARK    4  A    between atoms: C_8  and  C_9
REMARK    5  A    between atoms: C_9  and  N_10
REMARK    6  A    between atoms: N_10  and  C_11
REMARK    7  A    between atoms: C_14  and  C_15
REMARK                            x       y       z     vdW  Elec       q    Type
REMARK                         _______ _______ _______ _____ _____    ______ ____
ROOT
ATOM      1  C   UNL     1      43.066   4.664  11.057  0.00  0.00    +0.000 C 
ENDROOT
BRANCH   1   2
ATOM      2  N   UNL     1      43.787   5.049   9.835  0.00  0.00    +0.000 N 
ATOM      3  H   UNL     1      44.271   5.938   9.935  0.00  0.00    +0.000 HD
BRANCH   2   4
ATOM      4  C   UNL     1      44.622   4.073   9.259  0.00  0.00    +0.000 A 
ATOM      5  C   UNL     1      44.497   2.706   9.537  0.00  0.00    +0.000 A 
ATOM      6  C   UNL     1      45.312   1.756   8.913  0.00  0.00    +0.000 A 
ATOM      7  C   UNL     1      46.249   2.148   7.956  0.00  0.00    +0.000 A 
ATOM      8  C   UNL     1      46.360   3.502   7.627  0.00  0.00    +0.000 A 
ATOM      9  C   UNL     1      45.539   4.449   8.264  0.00  0.00    +0.000 A 
BRANCH   7  10
ATOM     10  C   UNL     1      47.086   1.090   7.337  0.00  0.00    +0.000 C 
ATOM     11  N   UNL     1      46.815  -0.207   7.665  0.00  0.00    +0.000 N 
ATOM     12  O   UNL     1      48.018   1.359   6.585  0.00  0.00    +0.000 OA
ATOM     13  H   UNL     1      46.233  -0.460   8.450  0.00  0.00    +0.000 HD
ATOM     14  H   UNL     1      47.481  -0.896   7.334  0.00  0.00    +0.000 HD
ENDBRANCH   7  10
ENDBRANCH   2   4
ENDBRANCH   1   2
BRANCH   1  15
ATOM     15  C   UNL     1      43.466   5.536  12.254  0.00  0.00    +0.000 C 
BRANCH  15  20
ATOM     16  C   UNL     1      47.112   6.058  13.321  0.00  0.00    +0.000 A 
ATOM     17  C   UNL     1      47.458   4.732  13.646  0.00  0.00    +0.000 A 
ATOM     18  C   UNL     1      46.552   3.682  13.492  0.00  0.00    +0.000 A 
ATOM     19  C   UNL     1      45.268   3.933  13.016  0.00  0.00    +0.000 A 
ATOM     20  C   UNL     1      44.891   5.233  12.669  0.00  0.00    +0.000 A 
ATOM     21  C   UNL     1      45.823   6.279  12.805  0.00  0.00    +0.000 A 
BRANCH  16  23
ATOM     22  C   UNL     1      48.604   7.027  15.074  0.00  0.00    +0.000 C 
ATOM     23  C   UNL     1      48.101   7.197  13.627  0.00  0.00    +0.000 C 
ATOM     24  C   UNL     1      49.253   7.223  12.616  0.00  0.00    +0.000 C 
ATOM     25  C   UNL     1      48.819   8.229  11.560  0.00  0.00    +0.000 C 
ATOM     26  O   UNL     1      47.681   8.937  12.063  0.00  0.00    +0.000 OA
ATOM     27  C   UNL     1      47.572   8.629  13.456  0.00  0.00    +0.000 C 
ENDBRANCH  16  23
ENDBRANCH  15  20
ENDBRANCH   1  15
TORSDOF 6
ENDMDL
MODEL 2
REMARK VINA RESULT:    -8.122      0.898      1.478
REMARK INTER + INTRA:         -12.155
REMARK INTER:                 -11.043
REMARK INTRA:                  -1.112
REMARK UNBOUND:                -1.184
REMARK  Name = 
REMARK  7 active torsions:
REMARK  status: ('A' for Active; 'I' for Inactive)
REMARK    1  A    between atoms: C_1  and  C_2
REMARK    2  A    between atoms: C_2  and  C_3
REMARK    3  A    between atoms: C_7  and  C_8
REMARK    4  A    between atoms: C_8  and  C_9
REMARK    5  A    between atoms: C_9  and  N_10
REMARK    6  A    between atoms: N_10  and  C_11
REMARK    7  A    between atoms: C_14  and  C_15
REMARK                            x       y       z     vdW  Elec       q    Type
REMARK                         _______ _______ _______ _____ _____    ______ ____
ROOT
ATOM      1  C   UNL     1      43.119   4.701  11.093  0.00  0.00    +0.000 C 
ENDROOT
BRANCH   1   2
ATOM      2  N   UNL     1      43.838   5.074   9.866  0.00  0.00    +0.000 N 
ATOM      3  H   UNL     1      44.344   5.951   9.966  0.00  0.00    +0.000 HD
BRANCH   2   4
ATOM      4  C   UNL     1      44.647   4.081   9.279  0.00  0.00    +0.000 A 
ATOM      5  C   UNL     1      44.497   2.717   9.559  0.00  0.00    +0.000 A 
ATOM      6  C   UNL     1      45.285   1.751   8.925  0.00  0.00    +0.000 A 
ATOM      7  C   UNL     1      46.217   2.123   7.956  0.00  0.00    +0.000 A 
ATOM      8  C   UNL     1      46.352   3.475   7.627  0.00  0.00    +0.000 A 
ATOM      9  C   UNL     1      45.558   4.438   8.274  0.00  0.00    +0.000 A 
BRANCH   7  10
ATOM     10  C   UNL     1      47.026   1.048   7.328  0.00  0.00    +0.000 C 
ATOM     11  N   UNL     1      46.780  -0.238   7.712  0.00  0.00    +0.000 N 
ATOM     12  O   UNL     1      47.913   1.296   6.517  0.00  0.00    +0.000 OA
ATOM     13  H   UNL     1      46.243  -0.467   8.537  0.00  0.00    +0.000 HD
ATOM     14  H   UNL     1      47.430  -0.934   7.369  0.00  0.00    +0.000 HD
ENDBRANCH   7  10
ENDBRANCH   2   4
ENDBRANCH   1   2
BRANCH   1  15
ATOM     15  C   UNL     1      43.481   5.618  12.268  0.00  0.00    +0.000 C 
BRANCH  15  20
ATOM     16  C   UNL     1      47.169   6.360  13.006  0.00  0.00    +0.000 A 
ATOM     17  C   UNL     1      47.546   5.137  13.595  0.00  0.00    +0.000 A 
ATOM     18  C   UNL     1      46.645   4.080  13.721  0.00  0.00    +0.000 A 
ATOM     19  C   UNL     1      45.336   4.220  13.268  0.00  0.00    +0.000 A 
ATOM     20  C   UNL     1      44.928   5.412  12.665  0.00  0.00    +0.000 A 
ATOM     21  C   UNL     1      45.854   6.463  12.522  0.00  0.00    +0.000 A 
BRANCH  16  23
ATOM     22  C   UNL     1      48.619   7.784  11.554  0.00  0.00    +0.000 C 
ATOM     23  C   UNL     1      48.160   7.538  13.005  0.00  0.00    +0.000 C 
ATOM     24  C   UNL     1      47.541   8.791  13.633  0.00  0.00    +0.000 C 
ATOM     25  C   UNL     1      47.983   8.754  15.089  0.00  0.00    +0.000 C 
ATOM     26  O   UNL     1      49.001   7.756  15.218  0.00  0.00    +0.000 OA
ATOM     27  C   UNL     1      49.404   7.388  13.895  0.00  0.00    +0.000 C 
ENDBRANCH  16  23
ENDBRANCH  15  20
ENDBRANCH   1  15
TORSDOF 6
ENDMDL
MODEL 3
REMARK VINA RESULT:    -7.773      2.665      3.771
REMARK INTER + INTRA:         -11.683
REMARK INTER:                 -10.902
REMARK INTRA:                  -0.781
REMARK UNBOUND:                -1.184
REMARK  Name = 
REMARK  7 active torsions:
REMARK  status: ('A' for Active; 'I' for Inactive)
REMARK    1  A    between atoms: C_1  and  C_2
REMARK    2  A    between atoms: C_2  and  C_3
REMARK    3  A    between atoms: C_7  and  C_8
REMARK    4  A    between atoms: C_8  and  C_9
REMARK    5  A    between atoms: C_9  and  N_10
REMARK    6  A    between atoms: N_10  and  C_11
REMARK    7  A    between atoms: C_14  and  C_15
REMARK                            x       y       z     vdW  Elec       q    Type
REMARK                         _______ _______ _______ _____ _____    ______ ____
ROOT
ATOM      1  C   UNL     1      44.890   4.962  11.694  0.00  0.00    +0.000 C 
ENDROOT
BRANCH   1   2
ATOM      2  N   UNL     1      44.163   4.217  10.655  0.00  0.00    +0.000 N 
ATOM      3  H   UNL     1      43.330   4.709  10.339  0.00  0.00    +0.000 HD
BRANCH   2   4
ATOM      4  C   UNL     1      44.922   3.743   9.569  0.00  0.00    +0.000 A 
ATOM      5  C   UNL     1      45.606   4.593   8.691  0.00  0.00    +0.000 A 
ATOM      6  C   UNL     1      46.390   4.089   7.648  0.00  0.00    +0.000 A 
ATOM      7  C   UNL     1      46.547   2.712   7.483  0.00  0.00    +0.000 A 
ATOM      8  C   UNL     1      45.911   1.844   8.376  0.00  0.00    +0.000 A 
ATOM      9  C   UNL     1      45.121   2.362   9.417  0.00  0.00    +0.000 A 
BRANCH   7  10
ATOM     10  C   UNL     1      47.386   2.244   6.352  0.00  0.00    +0.000 C 
ATOM     11  N   UNL     1      47.516   3.070   5.273  0.00  0.00    +0.000 N 
ATOM     12  O   UNL     1      47.921   1.140   6.357  0.00  0.00    +0.000 OA
ATOM     13  H   UNL     1      46.911   3.864   5.120  0.00  0.00    +0.000 HD
ATOM     14  H   UNL     1      47.983   2.674   4.466  0.00  0.00    +0.000 HD
ENDBRANCH   7  10
ENDBRANCH   2   4
ENDBRANCH   1   2
BRANCH   1  15
ATOM     15  C   UNL     1      45.555   4.023  12.709  0.00  0.00    +0.000 C 
BRANCH  15  20
ATOM     16  C   UNL     1      47.693   4.951  15.754  0.00  0.00    +0.000 A 
ATOM     17  C   UNL     1      48.313   6.118  15.264  0.00  0.00    +0.000 A 
ATOM     18  C   UNL     1      48.024   6.620  13.995  0.00  0.00    +0.000 A 
ATOM     19  C   UNL     1      47.112   5.962  13.174  0.00  0.00    +0.000 A 
ATOM     20  C   UNL     1      46.465   4.810  13.630  0.00  0.00    +0.000 A 
ATOM     21  C   UNL     1      46.747   4.328  14.922  0.00  0.00    +0.000 A 
BRANCH  16  23
ATOM     22  C   UNL     1      47.509   5.217  18.230  0.00  0.00    +0.000 C 
ATOM     23  C   UNL     1      48.136   4.368  17.108  0.00  0.00    +0.000 C 
ATOM     24  C   UNL     1      47.762   2.887  17.227  0.00  0.00    +0.000 C 
ATOM     25  C   UNL     1      49.010   2.135  16.785  0.00  0.00    +0.000 C 
ATOM     26  O   UNL     1      50.089   3.072  16.712  0.00  0.00    +0.000 OA
ATOM     27  C   UNL     1      49.651   4.275  17.350  0.00  0.00    +0.000 C 
ENDBRANCH  16  23
ENDBRANCH  15  20
ENDBRANCH   1  15
TORSDOF 6
ENDMDL
MODEL 4
REMARK VINA RESULT:    -7.678      1.683      2.796
REMARK INTER + INTRA:         -11.555
REMARK INTER:                 -10.669
REMARK INTRA:                  -0.886
REMARK UNBOUND:                -1.184
REMARK  Name = 
REMARK  7 active torsions:
REMARK  status: ('A' for Active; 'I' for Inactive)
REMARK    1  A    between atoms: C_1  and  C_2
REMARK    2  A    between atoms: C_2  and  C_3
REMARK    3  A    between atoms: C_7  and  C_8
REMARK    4  A    between atoms: C_8  and  C_9
REMARK    5  A    between atoms: C_9  and  N_10
REMARK    6  A    between atoms: N_10  and  C_11
REMARK    7  A    between atoms: C_14  and  C_15
REMARK                            x       y       z     vdW  Elec       q    Type
REMARK                         _______ _______ _______ _____ _____    ______ ____
ROOT
ATOM      1  C   UNL     1      44.221   5.453  11.192  0.00  0.00    +0.000 C 
ENDROOT
BRANCH   1   2
ATOM      2  N   UNL     1      43.701   4.692  10.046  0.00  0.00    +0.000 N 
ATOM      3  H   UNL     1      43.148   5.269   9.417  0.00  0.00    +0.000 HD
BRANCH   2   4
ATOM      4  C   UNL     1      44.629   3.906   9.336  0.00  0.00    +0.000 A 
ATOM      5  C   UNL     1      44.650   2.507   9.404  0.00  0.00    +0.000 A 
ATOM      6  C   UNL     1      45.554   1.752   8.650  0.00  0.00    +0.000 A 
ATOM      7  C   UNL     1      46.436   2.379   7.769  0.00  0.00    +0.000 A 
ATOM      8  C   UNL     1      46.403   3.772   7.650  0.00  0.00    +0.000 A 
ATOM      9  C   UNL     1      45.493   4.521   8.416  0.00  0.00    +0.000 A 
BRANCH   7  10
ATOM     10  C   UNL     1      47.375   1.519   7.005  0.00  0.00    +0.000 C 
ATOM     11  N   UNL     1      48.516   2.095   6.525  0.00  0.00    +0.000 N 
ATOM     12  O   UNL     1      47.128   0.340   6.772  0.00  0.00    +0.000 OA
ATOM     13  H   UNL     1      48.643   3.095   6.479  0.00  0.00    +0.000 HD
ATOM     14  H   UNL     1      49.070   1.523   5.899  0.00  0.00    +0.000 HD
ENDBRANCH   7  10
ENDBRANCH   2   4
ENDBRANCH   1   2
BRANCH   1  15
ATOM     15  C   UNL     1      43.685   6.890  11.212  0.00  0.00    +0.000 C 
BRANCH  15  20
ATOM     16  C   UNL     1      47.107   8.208  12.332  0.00  0.00    +0.000 A 
ATOM     17  C   UNL     1      46.887   9.593  12.195  0.00  0.00    +0.000 A 
ATOM     18  C   UNL     1      45.652  10.098  11.787  0.00  0.00    +0.000 A 
ATOM     19  C   UNL     1      44.604   9.230  11.494  0.00  0.00    +0.000 A 
ATOM     20  C   UNL     1      44.779   7.851  11.632  0.00  0.00    +0.000 A 
ATOM     21  C   UNL     1      46.022   7.354  12.069  0.00  0.00    +0.000 A 
BRANCH  16  23
ATOM     22  C   UNL     1      49.439   7.994  11.463  0.00  0.00    +0.000 C 
ATOM     23  C   UNL     1      48.520   7.694  12.663  0.00  0.00    +0.000 C 
ATOM     24  C   UNL     1      49.048   8.311  13.962  0.00  0.00    +0.000 C 
ATOM     25  C   UNL     1      48.704   7.295  15.042  0.00  0.00    +0.000 C 
ATOM     26  O   UNL     1      48.297   6.084  14.398  0.00  0.00    +0.000 OA
ATOM     27  C   UNL     1      48.642   6.203  13.014  0.00  0.00    +0.000 C 
ENDBRANCH  16  23
ENDBRANCH  15  20
ENDBRANCH   1  15
TORSDOF 6
ENDMDL
MODEL 5
REMARK VINA RESULT:    -6.660      4.899      7.986
REMARK INTER + INTRA:         -10.180
REMARK INTER:                  -9.521
REMARK INTRA:                  -0.660
REMARK UNBOUND:                -1.184
REMARK  Name = 
REMARK  7 active torsions:
REMARK  status: ('A' for Active; 'I' for Inactive)
REMARK    1  A    between atoms: C_1  and  C_2
REMARK    2  A    between atoms: C_2  and  C_3
REMARK    3  A    between atoms: C_7  and  C_8
REMARK    4  A    between atoms: C_8  and  C_9
REMARK    5  A    between atoms: C_9  and  N_10
REMARK    6  A    between atoms: N_10  and  C_11
REMARK    7  A    between atoms: C_14  and  C_15
REMARK                            x       y       z     vdW  Elec       q    Type
REMARK                         _______ _______ _______ _____ _____    ______ ____
ROOT
ATOM      1  C   UNL     1      48.045   5.569  15.715  0.00  0.00    +0.000 C 
ENDROOT
BRANCH   1   2
ATOM      2  N   UNL     1      48.301   5.166  17.106  0.00  0.00    +0.000 N 
ATOM      3  H   UNL     1      47.451   4.888  17.591  0.00  0.00    +0.000 HD
BRANCH   2   4
ATOM      4  C   UNL     1      49.336   4.234  17.314  0.00  0.00    +0.000 A 
ATOM      5  C   UNL     1      49.146   2.851  17.210  0.00  0.00    +0.000 A 
ATOM      6  C   UNL     1      50.206   1.953  17.376  0.00  0.00    +0.000 A 
ATOM      7  C   UNL     1      51.499   2.421  17.609  0.00  0.00    +0.000 A 
ATOM      8  C   UNL     1      51.722   3.800  17.671  0.00  0.00    +0.000 A 
ATOM      9  C   UNL     1      50.649   4.693  17.507  0.00  0.00    +0.000 A 
BRANCH   7  10
ATOM     10  C   UNL     1      52.576   1.414  17.784  0.00  0.00    +0.000 C 
ATOM     11  N   UNL     1      52.214   0.161  18.183  0.00  0.00    +0.000 N 
ATOM     12  O   UNL     1      53.758   1.696  17.614  0.00  0.00    +0.000 OA
ATOM     13  H   UNL     1      51.302  -0.047  18.564  0.00  0.00    +0.000 HD
ATOM     14  H   UNL     1      52.974  -0.465  18.421  0.00  0.00    +0.000 HD
ENDBRANCH   7  10
ENDBRANCH   2   4
ENDBRANCH   1   2
BRANCH   1  15
ATOM     15  C   UNL     1      47.137   4.568  14.990  0.00  0.00    +0.000 C 
BRANCH  15  20
ATOM     16  C   UNL     1      45.289   5.086  11.670  0.00  0.00    +0.000 A 
ATOM     17  C   UNL     1      46.060   6.132  11.127  0.00  0.00    +0.000 A 
ATOM     18  C   UNL     1      47.175   6.639  11.796  0.00  0.00    +0.000 A 
ATOM     19  C   UNL     1      47.545   6.118  13.033  0.00  0.00    +0.000 A 
ATOM     20  C   UNL     1      46.813   5.070  13.597  0.00  0.00    +0.000 A 
ATOM     21  C   UNL     1      45.705   4.551  12.901  0.00  0.00    +0.000 A 
BRANCH  16  23
ATOM     22  C   UNL     1      42.896   5.679  11.270  0.00  0.00    +0.000 C 
ATOM     23  C   UNL     1      43.997   4.647  10.956  0.00  0.00    +0.000 C 
ATOM     24  C   UNL     1      44.221   4.482   9.450  0.00  0.00    +0.000 C 
ATOM     25  C   UNL     1      44.523   3.002   9.262  0.00  0.00    +0.000 C 
ATOM     26  O   UNL     1      44.206   2.327  10.483  0.00  0.00    +0.000 OA
ATOM     27  C   UNL     1      43.469   3.245  11.297  0.00  0.00    +0.000 C 
ENDBRANCH  16  23
ENDBRANCH  15  20
ENDBRANCH   1  15
TORSDOF 6
ENDMDL
MODEL 6
REMARK VINA RESULT:    -6.618      1.850      3.119
REMARK INTER + INTRA:         -10.124
REMARK INTER:                  -9.285
REMARK INTRA:                  -0.838
REMARK UNBOUND:                -1.184
REMARK  Name = 
REMARK  7 active torsions:
REMARK  status: ('A' for Active; 'I' for Inactive)
REMARK    1  A    between atoms: C_1  and  C_2
REMARK    2  A    between atoms: C_2  and  C_3
REMARK    3  A    between atoms: C_7  and  C_8
REMARK    4  A    between atoms: C_8  and  C_9
REMARK    5  A    between atoms: C_9  and  N_10
REMARK    6  A    between atoms: N_10  and  C_11
REMARK    7  A    between atoms: C_14  and  C_15
REMARK                            x       y       z     vdW  Elec       q    Type
REMARK                         _______ _______ _______ _____ _____    ______ ____
ROOT
ATOM      1  C   UNL     1      44.890   5.954  11.311  0.00  0.00    +0.000 C 
ENDROOT
BRANCH   1   2
ATOM      2  N   UNL     1      44.293   4.733  10.750  0.00  0.00    +0.000 N 
ATOM      3  H   UNL     1      43.307   4.851  10.529  0.00  0.00    +0.000 HD
BRANCH   2   4
ATOM      4  C   UNL     1      44.986   4.121   9.688  0.00  0.00    +0.000 A 
ATOM      5  C   UNL     1      45.741   4.844   8.756  0.00  0.00    +0.000 A 
ATOM      6  C   UNL     1      46.456   4.202   7.740  0.00  0.00    +0.000 A 
ATOM      7  C   UNL     1      46.469   2.810   7.655  0.00  0.00    +0.000 A 
ATOM      8  C   UNL     1      45.760   2.065   8.602  0.00  0.00    +0.000 A 
ATOM      9  C   UNL     1      45.041   2.720   9.616  0.00  0.00    +0.000 A 
BRANCH   7  10
ATOM     10  C   UNL     1      47.242   2.193   6.548  0.00  0.00    +0.000 C 
ATOM     11  N   UNL     1      47.344   2.891   5.379  0.00  0.00    +0.000 N 
ATOM     12  O   UNL     1      47.745   1.079   6.652  0.00  0.00    +0.000 OA
ATOM     13  H   UNL     1      46.755   3.683   5.165  0.00  0.00    +0.000 HD
ATOM     14  H   UNL     1      47.761   2.394   4.602  0.00  0.00    +0.000 HD
ENDBRANCH   7  10
ENDBRANCH   2   4
ENDBRANCH   1   2
BRANCH   1  15
ATOM     15  C   UNL     1      45.732   5.656  12.559  0.00  0.00    +0.000 C 
BRANCH  15  20
ATOM     16  C   UNL     1      48.715   7.655  13.902  0.00  0.00    +0.000 A 
ATOM     17  C   UNL     1      49.328   8.017  12.686  0.00  0.00    +0.000 A 
ATOM     18  C   UNL     1      48.775   7.659  11.456  0.00  0.00    +0.000 A 
ATOM     19  C   UNL     1      47.597   6.918  11.408  0.00  0.00    +0.000 A 
ATOM     20  C   UNL     1      46.952   6.553  12.592  0.00  0.00    +0.000 A 
ATOM     21  C   UNL     1      47.506   6.942  13.827  0.00  0.00    +0.000 A 
BRANCH  16  23
ATOM     22  C   UNL     1      49.775   9.466  15.257  0.00  0.00    +0.000 C 
ATOM     23  C   UNL     1      49.427   7.965  15.231  0.00  0.00    +0.000 C 
ATOM     24  C   UNL     1      48.572   7.551  16.433  0.00  0.00    +0.000 C 
ATOM     25  C   UNL     1      49.058   6.154  16.793  0.00  0.00    +0.000 C 
ATOM     26  O   UNL     1      50.272   5.909  16.075  0.00  0.00    +0.000 OA
ATOM     27  C   UNL     1      50.702   7.160  15.529  0.00  0.00    +0.000 C 
ENDBRANCH  16  23
ENDBRANCH  15  20
ENDBRANCH   1  15
TORSDOF 6
ENDMDL
MODEL 7
REMARK VINA RESULT:    -6.464      3.830      7.253
REMARK INTER + INTRA:          -9.915
REMARK INTER:                  -8.706
REMARK INTRA:                  -1.209
REMARK UNBOUND:                -1.184
REMARK  Name = 
REMARK  7 active torsions:
REMARK  status: ('A' for Active; 'I' for Inactive)
REMARK    1  A    between atoms: C_1  and  C_2
REMARK    2  A    between atoms: C_2  and  C_3
REMARK    3  A    between atoms: C_7  and  C_8
REMARK    4  A    between atoms: C_8  and  C_9
REMARK    5  A    between atoms: C_9  and  N_10
REMARK    6  A    between atoms: N_10  and  C_11
REMARK    7  A    between atoms: C_14  and  C_15
REMARK                            x       y       z     vdW  Elec       q    Type
REMARK                         _______ _______ _______ _____ _____    ______ ____
ROOT
ATOM      1  C   UNL     1      49.452   7.158  12.964  0.00  0.00    +0.000 C 
ENDROOT
BRANCH   1   2
ATOM      2  N   UNL     1      48.803   7.564  14.220  0.00  0.00    +0.000 N 
ATOM      3  H   UNL     1      48.024   8.199  14.065  0.00  0.00    +0.000 HD
BRANCH   2   4
ATOM      4  C   UNL     1      48.453   6.533  15.112  0.00  0.00    +0.000 A 
ATOM      5  C   UNL     1      47.589   5.487  14.764  0.00  0.00    +0.000 A 
ATOM      6  C   UNL     1      47.297   4.452  15.658  0.00  0.00    +0.000 A 
ATOM      7  C   UNL     1      47.901   4.412  16.915  0.00  0.00    +0.000 A 
ATOM      8  C   UNL     1      48.803   5.420  17.268  0.00  0.00    +0.000 A 
ATOM      9  C   UNL     1      49.085   6.458  16.363  0.00  0.00    +0.000 A 
BRANCH   7  10
ATOM     10  C   UNL     1      47.541   3.290  17.817  0.00  0.00    +0.000 C 
ATOM     11  N   UNL     1      48.324   3.083  18.916  0.00  0.00    +0.000 N 
ATOM     12  O   UNL     1      46.598   2.542  17.576  0.00  0.00    +0.000 OA
ATOM     13  H   UNL     1      49.234   3.507  19.024  0.00  0.00    +0.000 HD
ATOM     14  H   UNL     1      48.136   2.236  19.440  0.00  0.00    +0.000 HD
ENDBRANCH   7  10
ENDBRANCH   2   4
ENDBRANCH   1   2
BRANCH   1  15
ATOM     15  C   UNL     1      48.922   7.955  11.765  0.00  0.00    +0.000 C 
BRANCH  15  20
ATOM     16  C   UNL     1      45.384   6.527  11.386  0.00  0.00    +0.000 A 
ATOM     17  C   UNL     1      44.631   7.634  11.825  0.00  0.00    +0.000 A 
ATOM     18  C   UNL     1      45.243   8.830  12.201  0.00  0.00    +0.000 A 
ATOM     19  C   UNL     1      46.629   8.949  12.157  0.00  0.00    +0.000 A 
ATOM     20  C   UNL     1      47.410   7.879  11.714  0.00  0.00    +0.000 A 
ATOM     21  C   UNL     1      46.779   6.685  11.314  0.00  0.00    +0.000 A 
BRANCH  16  23
ATOM     22  C   UNL     1      45.099   4.703   9.705  0.00  0.00    +0.000 C 
ATOM     23  C   UNL     1      44.674   5.191  11.103  0.00  0.00    +0.000 C 
ATOM     24  C   UNL     1      44.976   4.156  12.192  0.00  0.00    +0.000 C 
ATOM     25  C   UNL     1      43.816   4.271  13.170  0.00  0.00    +0.000 C 
ATOM     26  O   UNL     1      42.797   5.068  12.557  0.00  0.00    +0.000 OA
ATOM     27  C   UNL     1      43.139   5.203  11.174  0.00  0.00    +0.000 C 
ENDBRANCH  16  23
ENDBRANCH  15  20
ENDBRANCH   1  15
TORSDOF 6
ENDMDL
MODEL 8
REMARK VINA RESULT:    -6.397      3.492      5.694
REMARK INTER + INTRA:          -9.824
REMARK INTER:                  -8.782
REMARK INTRA:                  -1.042
REMARK UNBOUND:                -1.184
REMARK  Name = 
REMARK  7 active torsions:
REMARK  status: ('A' for Active; 'I' for Inactive)
REMARK    1  A    between atoms: C_1  and  C_2
REMARK    2  A    between atoms: C_2  and  C_3
REMARK    3  A    between atoms: C_7  and  C_8
REMARK    4  A    between atoms: C_8  and  C_9
REMARK    5  A    between atoms: C_9  and  N_10
REMARK    6  A    between atoms: N_10  and  C_11
REMARK    7  A    between atoms: C_14  and  C_15
REMARK                            x       y       z     vdW  Elec       q    Type
REMARK                         _______ _______ _______ _____ _____    ______ ____
ROOT
ATOM      1  C   UNL     1      48.388   7.375  13.484  0.00  0.00    +0.000 C 
ENDROOT
BRANCH   1   2
ATOM      2  N   UNL     1      46.918   7.412  13.445  0.00  0.00    +0.000 N 
ATOM      3  H   UNL     1      46.563   8.294  13.084  0.00  0.00    +0.000 HD
BRANCH   2   4
ATOM      4  C   UNL     1      46.274   6.315  12.841  0.00  0.00    +0.000 A 
ATOM      5  C   UNL     1      45.954   5.143  13.539  0.00  0.00    +0.000 A 
ATOM      6  C   UNL     1      45.272   4.089  12.922  0.00  0.00    +0.000 A 
ATOM      7  C   UNL     1      44.851   4.199  11.596  0.00  0.00    +0.000 A 
ATOM      8  C   UNL     1      45.119   5.377  10.894  0.00  0.00    +0.000 A 
ATOM      9  C   UNL     1      45.809   6.428  11.522  0.00  0.00    +0.000 A 
BRANCH   7  10
ATOM     10  C   UNL     1      44.139   3.040  11.001  0.00  0.00    +0.000 C 
ATOM     11  N   UNL     1      44.765   2.357   9.998  0.00  0.00    +0.000 N 
ATOM     12  O   UNL     1      43.011   2.719  11.362  0.00  0.00    +0.000 OA
ATOM     13  H   UNL     1      45.569   2.724   9.509  0.00  0.00    +0.000 HD
ATOM     14  H   UNL     1      44.206   1.658   9.523  0.00  0.00    +0.000 HD
ENDBRANCH   7  10
ENDBRANCH   2   4
ENDBRANCH   1   2
BRANCH   1  15
ATOM     15  C   UNL     1      48.947   8.178  14.665  0.00  0.00    +0.000 C 
BRANCH  15  20
ATOM     16  C   UNL     1      49.707   5.270  17.046  0.00  0.00    +0.000 A 
ATOM     17  C   UNL     1      51.102   5.424  17.175  0.00  0.00    +0.000 A 
ATOM     18  C   UNL     1      51.783   6.462  16.538  0.00  0.00    +0.000 A 
ATOM     19  C   UNL     1      51.087   7.373  15.748  0.00  0.00    +0.000 A 
ATOM     20  C   UNL     1      49.701   7.263  15.608  0.00  0.00    +0.000 A 
ATOM     21  C   UNL     1      49.022   6.225  16.275  0.00  0.00    +0.000 A 
BRANCH  16  23
ATOM     22  C   UNL     1      48.911   4.255  19.185  0.00  0.00    +0.000 C 
ATOM     23  C   UNL     1      49.020   4.038  17.663  0.00  0.00    +0.000 C 
ATOM     24  C   UNL     1      47.655   3.779  17.018  0.00  0.00    +0.000 C 
ATOM     25  C   UNL     1      47.930   2.758  15.923  0.00  0.00    +0.000 C 
ATOM     26  O   UNL     1      49.255   2.250  16.114  0.00  0.00    +0.000 OA
ATOM     27  C   UNL     1      49.691   2.680  17.407  0.00  0.00    +0.000 C 
ENDBRANCH  16  23
ENDBRANCH  15  20
ENDBRANCH   1  15
TORSDOF 6
ENDMDL
MODEL 9
REMARK VINA RESULT:    -5.769      3.629      5.927
REMARK INTER + INTRA:          -8.976
REMARK INTER:                  -7.820
REMARK INTRA:                  -1.155
REMARK UNBOUND:                -1.184
REMARK  Name = 
REMARK  7 active torsions:
REMARK  status: ('A' for Active; 'I' for Inactive)
REMARK    1  A    between atoms: C_1  and  C_2
REMARK    2  A    between atoms: C_2  and  C_3
REMARK    3  A    between atoms: C_7  and  C_8
REMARK    4  A    between atoms: C_8  and  C_9
REMARK    5  A    between atoms: C_9  and  N_10
REMARK    6  A    between atoms: N_10  and  C_11
REMARK    7  A    between atoms: C_14  and  C_15
REMARK                            x       y       z     vdW  Elec       q    Type
REMARK                         _______ _______ _______ _____ _____    ______ ____
ROOT
ATOM      1  C   UNL     1      49.137   7.203  13.150  0.00  0.00    +0.000 C 
ENDROOT
BRANCH   1   2
ATOM      2  N   UNL     1      47.933   7.537  12.374  0.00  0.00    +0.000 N 
ATOM      3  H   UNL     1      48.157   7.947  11.470  0.00  0.00    +0.000 HD
BRANCH   2   4
ATOM      4  C   UNL     1      46.960   6.526  12.251  0.00  0.00    +0.000 A 
ATOM      5  C   UNL     1      46.494   5.783  13.343  0.00  0.00    +0.000 A 
ATOM      6  C   UNL     1      45.493   4.818  13.196  0.00  0.00    +0.000 A 
ATOM      7  C   UNL     1      44.898   4.601  11.953  0.00  0.00    +0.000 A 
ATOM      8  C   UNL     1      45.314   5.363  10.857  0.00  0.00    +0.000 A 
ATOM      9  C   UNL     1      46.325   6.327  11.016  0.00  0.00    +0.000 A 
BRANCH   7  10
ATOM     10  C   UNL     1      43.847   3.556  11.865  0.00  0.00    +0.000 C 
ATOM     11  N   UNL     1      44.088   2.359  12.475  0.00  0.00    +0.000 N 
ATOM     12  O   UNL     1      42.808   3.735  11.237  0.00  0.00    +0.000 OA
ATOM     13  H   UNL     1      45.008   2.083  12.787  0.00  0.00    +0.000 HD
ATOM     14  H   UNL     1      43.417   1.624  12.289  0.00  0.00    +0.000 HD
ENDBRANCH   7  10
ENDBRANCH   2   4
ENDBRANCH   1   2
BRANCH   1  15
ATOM     15  C   UNL     1      49.476   8.294  14.174  0.00  0.00    +0.000 C 
BRANCH  15  20
ATOM     16  C   UNL     1      48.581   6.148  17.223  0.00  0.00    +0.000 A 
ATOM     17  C   UNL     1      48.235   7.164  18.137  0.00  0.00    +0.000 A 
ATOM     18  C   UNL     1      48.253   8.510  17.772  0.00  0.00    +0.000 A 
ATOM     19  C   UNL     1      48.627   8.880  16.484  0.00  0.00    +0.000 A 
ATOM     20  C   UNL     1      48.963   7.902  15.544  0.00  0.00    +0.000 A 
ATOM     21  C   UNL     1      48.917   6.545  15.917  0.00  0.00    +0.000 A 
BRANCH  16  23
ATOM     22  C   UNL     1      47.516   3.895  17.061  0.00  0.00    +0.000 C 
ATOM     23  C   UNL     1      48.668   4.690  17.707  0.00  0.00    +0.000 C 
ATOM     24  C   UNL     1      50.037   4.078  17.395  0.00  0.00    +0.000 C 
ATOM     25  C   UNL     1      50.851   4.279  18.665  0.00  0.00    +0.000 C 
ATOM     26  O   UNL     1      49.956   4.685  19.705  0.00  0.00    +0.000 OA
ATOM     27  C   UNL     1      48.625   4.469  19.227  0.00  0.00    +0.000 C 
ENDBRANCH  16  23
ENDBRANCH  15  20
ENDBRANCH   1  15
TORSDOF 6
ENDMDL
