MODEL 1
REMARK VINA RESULT:    -6.544      0.000      0.000
REMARK INTER + INTRA:          -8.815
REMARK INTER:                  -8.265
REMARK INTRA:                  -0.550
REMARK UNBOUND:                -0.550
REMARK  Name = 
REMARK  7 active torsions:
REMARK  status: ('A' for Active; 'I' for Inactive)
REMARK    1  A    between atoms: C_1  and  N_2
REMARK    2  A    between atoms: N_2  and  C_3
REMARK    3  A    between atoms: N_2  and  C_4
REMARK    4  A    between atoms: C_4  and  C_5
REMARK    5  A    between atoms: C_8  and  C_9
REMARK    6  A    between atoms: C_9  and  N_10
REMARK    7  A    between atoms: C_16  and  O_17
REMARK                            x       y       z     vdW  Elec       q    Type
REMARK                         _______ _______ _______ _____ _____    ______ ____
ROOT
ATOM      1  C   UNL     1      45.353   5.346  12.151  0.00  0.00    +0.000 C 
ENDROOT
BRANCH   1   2
ATOM      2  N   UNL     1      44.407   4.959  11.096  0.00  0.00    +0.000 N 
ATOM      3  C   UNL     1      43.254   4.255  11.427  0.00  0.00    +0.000 A 
ATOM      4  C   UNL     1      43.567   2.926  11.194  0.00  0.00    +0.000 A 
ATOM      5  C   UNL     1      44.439   2.992  10.076  0.00  0.00    +0.000 A 
ATOM      6  C   UNL     1      44.861   2.080   9.105  0.00  0.00    +0.000 A 
ATOM      7  C   UNL     1      45.583   2.592   8.029  0.00  0.00    +0.000 A 
ATOM      8  C   UNL     1      45.937   3.927   8.026  0.00  0.00    +0.000 A 
ATOM      9  N   UNL     1      45.657   4.833   9.003  0.00  0.00    +0.000 NA
ATOM     10  C   UNL     1      44.880   4.313   9.970  0.00  0.00    +0.000 A 
BRANCH   8  11
ATOM     11  O   UNL     1      46.614   4.459   6.965  0.00  0.00    +0.000 OA
ATOM     12  H   UNL     1      46.182   4.150   6.160  0.00  0.00    +0.000 HD
ENDBRANCH   8  11
ENDBRANCH   1   2
BRANCH   1  16
ATOM     13  C   UNL     1      47.108   9.224  12.179  0.00  0.00    +0.000 A 
ATOM     14  C   UNL     1      47.943   8.126  12.000  0.00  0.00    +0.000 A 
ATOM     15  C   UNL     1      47.392   6.843  11.919  0.00  0.00    +0.000 A 
ATOM     16  C   UNL     1      46.006   6.691  12.024  0.00  0.00    +0.000 A 
ATOM     17  C   UNL     1      45.253   7.847  12.179  0.00  0.00    +0.000 A 
ATOM     18  N   UNL     1      45.751   9.092  12.254  0.00  0.00    +0.000 NA
BRANCH  13  19
ATOM     19  C   UNL     1      47.668  10.630  12.269  0.00  0.00    +0.000 C 
BRANCH  19  21
ATOM     20  C   UNL     1      48.929  11.516  10.396  0.00  0.00    +0.000 C 
ATOM     21  N   UNL     1      49.009  10.773  11.659  0.00  0.00    +0.000 NA
ATOM     22  C   UNL     1      49.905  11.469  12.583  0.00  0.00    +0.000 C 
ENDBRANCH  19  21
ENDBRANCH  13  19
ENDBRANCH   1  16
TORSDOF 5
ENDMDL
MODEL 2
REMARK VINA RESULT:    -6.155      3.508      6.609
REMARK INTER + INTRA:          -8.325
REMARK INTER:                  -7.794
REMARK INTRA:                  -0.530
REMARK UNBOUND:                -0.550
REMARK  Name = 
REMARK  7 active torsions:
REMARK  status: ('A' for Active; 'I' for Inactive)
REMARK    1  A    between atoms: C_1  and  N_2
REMARK    2  A    between atoms: N_2  and  C_3
REMARK    3  A    between atoms: N_2  and  C_4
REMARK    4  A    between atoms: C_4  and  C_5
REMARK    5  A    between atoms: C_8  and  C_9
REMARK    6  A    between atoms: C_9  and  N_10
REMARK    7  A    between atoms: C_16  and  O_17
REMARK                            x       y       z     vdW  Elec       q    Type
REMARK                         _______ _______ _______ _____ _____    ______ ____
ROOT
ATOM      1  C   UNL     1      43.104   4.423  11.313  0.00  0.00    +0.000 C 
ENDROOT
BRANCH   1   2
ATOM      2  N   UNL     1      43.617   5.408  12.274  0.00  0.00    +0.000 N 
ATOM      3  C   UNL     1      43.505   6.767  11.995  0.00  0.00    +0.000 A 
ATOM      4  C   UNL     1      44.731   7.124  11.457  0.00  0.00    +0.000 A 
ATOM      5  C   UNL     1      45.645   6.296  12.161  0.00  0.00    +0.000 A 
ATOM      6  C   UNL     1      47.020   6.337  12.401  0.00  0.00    +0.000 A 
ATOM      7  C   UNL     1      47.526   5.428  13.328  0.00  0.00    +0.000 A 
ATOM      8  C   UNL     1      46.685   4.477  13.871  0.00  0.00    +0.000 A 
ATOM      9  N   UNL     1      45.365   4.314  13.581  0.00  0.00    +0.000 NA
ATOM     10  C   UNL     1      44.905   5.273  12.756  0.00  0.00    +0.000 A 
BRANCH   8  11
ATOM     11  O   UNL     1      47.151   3.598  14.808  0.00  0.00    +0.000 OA
ATOM     12  H   UNL     1      48.073   3.822  14.983  0.00  0.00    +0.000 HD
ENDBRANCH   8  11
ENDBRANCH   1   2
BRANCH   1  16
ATOM     13  C   UNL     1      45.581   2.575   8.387  0.00  0.00    +0.000 A 
ATOM     14  C   UNL     1      45.226   3.907   8.201  0.00  0.00    +0.000 A 
ATOM     15  C   UNL     1      44.468   4.564   9.175  0.00  0.00    +0.000 A 
ATOM     16  C   UNL     1      44.080   3.863  10.321  0.00  0.00    +0.000 A 
ATOM     17  C   UNL     1      44.501   2.544  10.429  0.00  0.00    +0.000 A 
ATOM     18  N   UNL     1      45.233   1.888   9.515  0.00  0.00    +0.000 NA
BRANCH  13  19
ATOM     19  C   UNL     1      46.404   1.830   7.354  0.00  0.00    +0.000 C 
BRANCH  19  21
ATOM     20  C   UNL     1      48.686   2.145   6.596  0.00  0.00    +0.000 C 
ATOM     21  N   UNL     1      47.328   2.701   6.592  0.00  0.00    +0.000 NA
ATOM     22  C   UNL     1      46.858   2.841   5.214  0.00  0.00    +0.000 C 
ENDBRANCH  19  21
ENDBRANCH  13  19
ENDBRANCH   1  16
TORSDOF 5
ENDMDL
MODEL 3
REMARK VINA RESULT:    -5.865      4.699      7.728
REMARK INTER + INTRA:          -7.958
REMARK INTER:                  -8.377
REMARK INTRA:                   0.419
REMARK UNBOUND:                -0.550
REMARK  Name = 
REMARK  7 active torsions:
REMARK  status: ('A' for Active; 'I' for Inactive)
REMARK    1  A    between atoms: C_1  and  N_2
REMARK    2  A    between atoms: N_2  and  C_3
REMARK    3  A    between atoms: N_2  and  C_4
REMARK    4  A    between atoms: C_4  and  C_5
REMARK    5  A    between atoms: C_8  and  C_9
REMARK    6  A    between atoms: C_9  and  N_10
REMARK    7  A    between atoms: C_16  and  O_17
REMARK                            x       y       z     vdW  Elec       q    Type
REMARK                         _______ _______ _______ _____ _____    ______ ____
ROOT
ATOM      1  C   UNL     1      48.309   6.203  14.187  0.00  0.00    +0.000 C 
ENDROOT
BRANCH   1   2
ATOM      2  N   UNL     1      48.327   6.403  15.641  0.00  0.00    +0.000 N 
ATOM      3  C   UNL     1      49.282   7.239  16.211  0.00  0.00    +0.000 A 
ATOM      4  C   UNL     1      50.293   6.392  16.634  0.00  0.00    +0.000 A 
ATOM      5  C   UNL     1      49.590   5.224  17.030  0.00  0.00    +0.000 A 
ATOM      6  C   UNL     1      49.885   4.131  17.848  0.00  0.00    +0.000 A 
ATOM      7  C   UNL     1      48.834   3.270  18.155  0.00  0.00    +0.000 A 
ATOM      8  C   UNL     1      47.603   3.466  17.560  0.00  0.00    +0.000 A 
ATOM      9  N   UNL     1      47.292   4.441  16.663  0.00  0.00    +0.000 NA
ATOM     10  C   UNL     1      48.311   5.301  16.474  0.00  0.00    +0.000 A 
BRANCH   8  11
ATOM     11  O   UNL     1      46.548   2.655  17.873  0.00  0.00    +0.000 OA
ATOM     12  H   UNL     1      45.937   2.674  17.127  0.00  0.00    +0.000 HD
ENDBRANCH   8  11
ENDBRANCH   1   2
BRANCH   1  16
ATOM     13  C   UNL     1      44.401   5.295  12.764  0.00  0.00    +0.000 A 
ATOM     14  C   UNL     1      44.876   6.592  12.599  0.00  0.00    +0.000 A 
ATOM     15  C   UNL     1      46.179   6.909  12.995  0.00  0.00    +0.000 A 
ATOM     16  C   UNL     1      46.981   5.908  13.554  0.00  0.00    +0.000 A 
ATOM     17  C   UNL     1      46.428   4.638  13.657  0.00  0.00    +0.000 A 
ATOM     18  N   UNL     1      45.184   4.303  13.280  0.00  0.00    +0.000 NA
BRANCH  13  19
ATOM     19  C   UNL     1      42.995   4.915  12.344  0.00  0.00    +0.000 C 
BRANCH  19  21
ATOM     20  C   UNL     1      43.858   4.440  10.128  0.00  0.00    +0.000 C 
ATOM     21  N   UNL     1      42.950   3.990  11.190  0.00  0.00    +0.000 NA
ATOM     22  C   UNL     1      43.324   2.642  11.616  0.00  0.00    +0.000 C 
ENDBRANCH  19  21
ENDBRANCH  13  19
ENDBRANCH   1  16
TORSDOF 5
ENDMDL
MODEL 4
REMARK VINA RESULT:    -5.841      1.954      2.193
REMARK INTER + INTRA:          -7.928
REMARK INTER:                  -7.426
REMARK INTRA:                  -0.502
REMARK UNBOUND:                -0.550
REMARK  Name = 
REMARK  7 active torsions:
REMARK  status: ('A' for Active; 'I' for Inactive)
REMARK    1  A    between atoms: C_1  and  N_2
REMARK    2  A    between atoms: N_2  and  C_3
REMARK    3  A    between atoms: N_2  and  C_4
REMARK    4  A    between atoms: C_4  and  C_5
REMARK    5  A    between atoms: C_8  and  C_9
REMARK    6  A    between atoms: C_9  and  N_10
REMARK    7  A    between atoms: C_16  and  O_17
REMARK                            x       y       z     vdW  Elec       q    Type
REMARK                         _______ _______ _______ _____ _____    ______ ____
ROOT
ATOM      1  C   UNL     1      45.816   4.878  13.160  0.00  0.00    +0.000 C 
ENDROOT
BRANCH   1   2
ATOM      2  N   UNL     1      44.677   4.901  12.234  0.00  0.00    +0.000 N 
ATOM      3  C   UNL     1      43.442   4.412  12.648  0.00  0.00    +0.000 A 
ATOM      4  C   UNL     1      43.395   3.111  12.172  0.00  0.00    +0.000 A 
ATOM      5  C   UNL     1      44.104   3.191  10.946  0.00  0.00    +0.000 A 
ATOM      6  C   UNL     1      44.165   2.401   9.795  0.00  0.00    +0.000 A 
ATOM      7  C   UNL     1      44.843   2.933   8.700  0.00  0.00    +0.000 A 
ATOM      8  C   UNL     1      45.503   4.139   8.833  0.00  0.00    +0.000 A 
ATOM      9  N   UNL     1      45.578   4.891   9.965  0.00  0.00    +0.000 NA
ATOM     10  C   UNL     1      44.831   4.383  10.962  0.00  0.00    +0.000 A 
BRANCH   8  11
ATOM     11  O   UNL     1      46.144   4.696   7.763  0.00  0.00    +0.000 OA
ATOM     12  H   UNL     1      45.468   5.003   7.147  0.00  0.00    +0.000 HD
ENDBRANCH   8  11
ENDBRANCH   1   2
BRANCH   1  16
ATOM     13  C   UNL     1      48.768   7.913  12.717  0.00  0.00    +0.000 A 
ATOM     14  C   UNL     1      47.494   8.157  12.216  0.00  0.00    +0.000 A 
ATOM     15  C   UNL     1      46.482   7.210  12.402  0.00  0.00    +0.000 A 
ATOM     16  C   UNL     1      46.777   6.028  13.091  0.00  0.00    +0.000 A 
ATOM     17  C   UNL     1      48.072   5.884  13.573  0.00  0.00    +0.000 A 
ATOM     18  N   UNL     1      49.061   6.777  13.416  0.00  0.00    +0.000 NA
BRANCH  13  19
ATOM     19  C   UNL     1      49.889   8.918  12.536  0.00  0.00    +0.000 C 
BRANCH  19  21
ATOM     20  C   UNL     1      51.729   8.570  10.994  0.00  0.00    +0.000 C 
ATOM     21  N   UNL     1      51.218   8.295  12.342  0.00  0.00    +0.000 NA
ATOM     22  C   UNL     1      52.158   8.808  13.339  0.00  0.00    +0.000 C 
ENDBRANCH  19  21
ENDBRANCH  13  19
ENDBRANCH   1  16
TORSDOF 5
ENDMDL
MODEL 5
REMARK VINA RESULT:    -5.781      5.392      6.522
REMARK INTER + INTRA:          -7.851
REMARK INTER:                  -7.466
REMARK INTRA:                  -0.385
REMARK UNBOUND:                -0.550
REMARK  Name = 
REMARK  7 active torsions:
REMARK  status: ('A' for Active; 'I' for Inactive)
REMARK    1  A    between atoms: C_1  and  N_2
REMARK    2  A    between atoms: N_2  and  C_3
REMARK    3  A    between atoms: N_2  and  C_4
REMARK    4  A    between atoms: C_4  and  C_5
REMARK    5  A    between atoms: C_8  and  C_9
REMARK    6  A    between atoms: C_9  and  N_10
REMARK    7  A    between atoms: C_16  and  O_17
REMARK                            x       y       z     vdW  Elec       q    Type
REMARK                         _______ _______ _______ _____ _____    ______ ____
ROOT
ATOM      1  C   UNL     1      46.402   4.649  14.995  0.00  0.00    +0.000 C 
ENDROOT
BRANCH   1   2
ATOM      2  N   UNL     1      46.502   4.628  13.530  0.00  0.00    +0.000 N 
ATOM      3  C   UNL     1      47.086   5.700  12.863  0.00  0.00    +0.000 A 
ATOM      4  C   UNL     1      46.024   6.493  12.462  0.00  0.00    +0.000 A 
ATOM      5  C   UNL     1      45.004   5.547  12.181  0.00  0.00    +0.000 A 
ATOM      6  C   UNL     1      43.824   5.570  11.433  0.00  0.00    +0.000 A 
ATOM      7  C   UNL     1      43.180   4.351  11.233  0.00  0.00    +0.000 A 
ATOM      8  C   UNL     1      43.663   3.219  11.861  0.00  0.00    +0.000 A 
ATOM      9  N   UNL     1      44.736   3.163  12.697  0.00  0.00    +0.000 NA
ATOM     10  C   UNL     1      45.377   4.343  12.781  0.00  0.00    +0.000 A 
BRANCH   8  11
ATOM     11  O   UNL     1      43.069   2.007  11.652  0.00  0.00    +0.000 OA
ATOM     12  H   UNL     1      42.124   2.114  11.817  0.00  0.00    +0.000 HD
ENDBRANCH   8  11
ENDBRANCH   1   2
BRANCH   1  16
ATOM     13  C   UNL     1      49.802   4.064  17.489  0.00  0.00    +0.000 A 
ATOM     14  C   UNL     1      49.006   2.962  17.193  0.00  0.00    +0.000 A 
ATOM     15  C   UNL     1      47.920   3.105  16.325  0.00  0.00    +0.000 A 
ATOM     16  C   UNL     1      47.654   4.361  15.770  0.00  0.00    +0.000 A 
ATOM     17  C   UNL     1      48.518   5.396  16.106  0.00  0.00    +0.000 A 
ATOM     18  N   UNL     1      49.571   5.289  16.931  0.00  0.00    +0.000 NA
BRANCH  13  19
ATOM     19  C   UNL     1      50.989   3.946  18.425  0.00  0.00    +0.000 C 
BRANCH  19  21
ATOM     20  C   UNL     1      53.321   4.542  18.129  0.00  0.00    +0.000 C 
ATOM     21  N   UNL     1      52.256   3.612  17.736  0.00  0.00    +0.000 NA
ATOM     22  C   UNL     1      52.654   2.243  18.062  0.00  0.00    +0.000 C 
ENDBRANCH  19  21
ENDBRANCH  13  19
ENDBRANCH   1  16
TORSDOF 5
ENDMDL
MODEL 6
REMARK VINA RESULT:    -5.540      5.526      8.250
REMARK INTER + INTRA:          -7.548
REMARK INTER:                  -7.041
REMARK INTRA:                  -0.507
REMARK UNBOUND:                -0.550
REMARK  Name = 
REMARK  7 active torsions:
REMARK  status: ('A' for Active; 'I' for Inactive)
REMARK    1  A    between atoms: C_1  and  N_2
REMARK    2  A    between atoms: N_2  and  C_3
REMARK    3  A    between atoms: N_2  and  C_4
REMARK    4  A    between atoms: C_4  and  C_5
REMARK    5  A    between atoms: C_8  and  C_9
REMARK    6  A    between atoms: C_9  and  N_10
REMARK    7  A    between atoms: C_16  and  O_17
REMARK                            x       y       z     vdW  Elec       q    Type
REMARK                         _______ _______ _______ _____ _____    ______ ____
ROOT
ATOM      1  C   UNL     1      48.658   6.268  15.550  0.00  0.00    +0.000 C 
ENDROOT
BRANCH   1   2
ATOM      2  N   UNL     1      48.487   5.604  16.848  0.00  0.00    +0.000 N 
ATOM      3  C   UNL     1      48.312   6.370  17.997  0.00  0.00    +0.000 A 
ATOM      4  C   UNL     1      49.572   6.456  18.565  0.00  0.00    +0.000 A 
ATOM      5  C   UNL     1      50.153   5.199  18.253  0.00  0.00    +0.000 A 
ATOM      6  C   UNL     1      51.218   4.456  18.767  0.00  0.00    +0.000 A 
ATOM      7  C   UNL     1      51.352   3.146  18.311  0.00  0.00    +0.000 A 
ATOM      8  C   UNL     1      50.514   2.688  17.313  0.00  0.00    +0.000 A 
ATOM      9  N   UNL     1      49.539   3.407  16.692  0.00  0.00    +0.000 NA
ATOM     10  C   UNL     1      49.388   4.630  17.233  0.00  0.00    +0.000 A 
BRANCH   8  11
ATOM     11  O   UNL     1      50.604   1.397  16.876  0.00  0.00    +0.000 OA
ATOM     12  H   UNL     1      50.091   0.848  17.482  0.00  0.00    +0.000 HD
ENDBRANCH   8  11
ENDBRANCH   1   2
BRANCH   1  16
ATOM     13  C   UNL     1      45.809   5.111  12.607  0.00  0.00    +0.000 A 
ATOM     14  C   UNL     1      46.665   6.168  12.314  0.00  0.00    +0.000 A 
ATOM     15  C   UNL     1      47.656   6.532  13.230  0.00  0.00    +0.000 A 
ATOM     16  C   UNL     1      47.764   5.822  14.430  0.00  0.00    +0.000 A 
ATOM     17  C   UNL     1      46.880   4.768  14.624  0.00  0.00    +0.000 A 
ATOM     18  N   UNL     1      45.923   4.392  13.762  0.00  0.00    +0.000 NA
BRANCH  13  19
ATOM     19  C   UNL     1      44.724   4.688  11.637  0.00  0.00    +0.000 C 
BRANCH  19  21
ATOM     20  C   UNL     1      43.356   2.698  11.864  0.00  0.00    +0.000 C 
ATOM     21  N   UNL     1      44.654   3.224  11.427  0.00  0.00    +0.000 NA
ATOM     22  C   UNL     1      44.860   2.913  10.013  0.00  0.00    +0.000 C 
ENDBRANCH  19  21
ENDBRANCH  13  19
ENDBRANCH   1  16
TORSDOF 5
ENDMDL
MODEL 7
REMARK VINA RESULT:    -5.359      3.049      4.458
REMARK INTER + INTRA:          -7.319
REMARK INTER:                  -9.227
REMARK INTRA:                   1.908
REMARK UNBOUND:                -0.550
REMARK  Name = 
REMARK  7 active torsions:
REMARK  status: ('A' for Active; 'I' for Inactive)
REMARK    1  A    between atoms: C_1  and  N_2
REMARK    2  A    between atoms: N_2  and  C_3
REMARK    3  A    between atoms: N_2  and  C_4
REMARK    4  A    between atoms: C_4  and  C_5
REMARK    5  A    between atoms: C_8  and  C_9
REMARK    6  A    between atoms: C_9  and  N_10
REMARK    7  A    between atoms: C_16  and  O_17
REMARK                            x       y       z     vdW  Elec       q    Type
REMARK                         _______ _______ _______ _____ _____    ______ ____
ROOT
ATOM      1  C   UNL     1      45.963   6.167  10.860  0.00  0.00    +0.000 C 
ENDROOT
BRANCH   1   2
ATOM      2  N   UNL     1      44.965   5.368  10.137  0.00  0.00    +0.000 N 
ATOM      3  C   UNL     1      43.990   4.674  10.848  0.00  0.00    +0.000 A 
ATOM      4  C   UNL     1      44.479   3.383  10.957  0.00  0.00    +0.000 A 
ATOM      5  C   UNL     1      45.180   3.199   9.737  0.00  0.00    +0.000 A 
ATOM      6  C   UNL     1      45.615   2.086   9.014  0.00  0.00    +0.000 A 
ATOM      7  C   UNL     1      46.103   2.319   7.730  0.00  0.00    +0.000 A 
ATOM      8  C   UNL     1      46.236   3.618   7.282  0.00  0.00    +0.000 A 
ATOM      9  N   UNL     1      45.942   4.744   7.989  0.00  0.00    +0.000 NA
ATOM     10  C   UNL     1      45.387   4.463   9.182  0.00  0.00    +0.000 A 
BRANCH   8  11
ATOM     11  O   UNL     1      46.680   3.869   6.014  0.00  0.00    +0.000 OA
ATOM     12  H   UNL     1      46.181   4.623   5.676  0.00  0.00    +0.000 HD
ENDBRANCH   8  11
ENDBRANCH   1   2
BRANCH   1  16
ATOM     13  C   UNL     1      46.849   4.638  14.732  0.00  0.00    +0.000 A 
ATOM     14  C   UNL     1      47.785   5.466  14.122  0.00  0.00    +0.000 A 
ATOM     15  C   UNL     1      47.499   6.038  12.879  0.00  0.00    +0.000 A 
ATOM     16  C   UNL     1      46.270   5.762  12.272  0.00  0.00    +0.000 A 
ATOM     17  C   UNL     1      45.390   4.943  12.968  0.00  0.00    +0.000 A 
ATOM     18  N   UNL     1      45.634   4.384  14.163  0.00  0.00    +0.000 NA
BRANCH  13  19
ATOM     19  C   UNL     1      47.124   4.001  16.080  0.00  0.00    +0.000 C 
BRANCH  19  21
ATOM     20  C   UNL     1      49.009   4.589  17.487  0.00  0.00    +0.000 C 
ATOM     21  N   UNL     1      48.563   3.779  16.348  0.00  0.00    +0.000 NA
ATOM     22  C   UNL     1      48.805   2.364  16.627  0.00  0.00    +0.000 C 
ENDBRANCH  19  21
ENDBRANCH  13  19
ENDBRANCH   1  16
TORSDOF 5
ENDMDL
MODEL 8
REMARK VINA RESULT:    -5.037      3.772      4.964
REMARK INTER + INTRA:          -6.912
REMARK INTER:                  -6.820
REMARK INTRA:                  -0.092
REMARK UNBOUND:                -0.550
REMARK  Name = 
REMARK  7 active torsions:
REMARK  status: ('A' for Active; 'I' for Inactive)
REMARK    1  A    between atoms: C_1  and  N_2
REMARK    2  A    between atoms: N_2  and  C_3
REMARK    3  A    between atoms: N_2  and  C_4
REMARK    4  A    between atoms: C_4  and  C_5
REMARK    5  A    between atoms: C_8  and  C_9
REMARK    6  A    between atoms: C_9  and  N_10
REMARK    7  A    between atoms: C_16  and  O_17
REMARK                            x       y       z     vdW  Elec       q    Type
REMARK                         _______ _______ _______ _____ _____    ______ ____
ROOT
ATOM      1  C   UNL     1      47.128   6.269  11.728  0.00  0.00    +0.000 C 
ENDROOT
BRANCH   1   2
ATOM      2  N   UNL     1      45.725   6.279  11.296  0.00  0.00    +0.000 N 
ATOM      3  C   UNL     1      44.834   7.185  11.864  0.00  0.00    +0.000 A 
ATOM      4  C   UNL     1      44.191   6.474  12.864  0.00  0.00    +0.000 A 
ATOM      5  C   UNL     1      44.112   5.163  12.329  0.00  0.00    +0.000 A 
ATOM      6  C   UNL     1      43.326   4.040  12.596  0.00  0.00    +0.000 A 
ATOM      7  C   UNL     1      43.414   2.979  11.698  0.00  0.00    +0.000 A 
ATOM      8  C   UNL     1      44.334   3.037  10.670  0.00  0.00    +0.000 A 
ATOM      9  N   UNL     1      45.209   4.053  10.434  0.00  0.00    +0.000 NA
ATOM     10  C   UNL     1      45.019   5.091  11.269  0.00  0.00    +0.000 A 
BRANCH   8  11
ATOM     11  O   UNL     1      44.414   2.025   9.756  0.00  0.00    +0.000 OA
ATOM     12  H   UNL     1      44.765   1.250  10.210  0.00  0.00    +0.000 HD
ENDBRANCH   8  11
ENDBRANCH   1   2
BRANCH   1  16
ATOM     13  C   UNL     1      48.172   5.300  15.739  0.00  0.00    +0.000 A 
ATOM     14  C   UNL     1      48.391   6.601  15.298  0.00  0.00    +0.000 A 
ATOM     15  C   UNL     1      47.999   6.972  14.008  0.00  0.00    +0.000 A 
ATOM     16  C   UNL     1      47.394   6.019  13.183  0.00  0.00    +0.000 A 
ATOM     17  C   UNL     1      47.197   4.752  13.718  0.00  0.00    +0.000 A 
ATOM     18  N   UNL     1      47.556   4.369  14.953  0.00  0.00    +0.000 NA
BRANCH  13  19
ATOM     19  C   UNL     1      48.582   4.863  17.131  0.00  0.00    +0.000 C 
BRANCH  19  21
ATOM     20  C   UNL     1      49.821   6.093  18.815  0.00  0.00    +0.000 C 
ATOM     21  N   UNL     1      49.912   5.366  17.543  0.00  0.00    +0.000 NA
ATOM     22  C   UNL     1      50.846   4.249  17.681  0.00  0.00    +0.000 C 
ENDBRANCH  19  21
ENDBRANCH  13  19
ENDBRANCH   1  16
TORSDOF 5
ENDMDL
MODEL 9
REMARK VINA RESULT:    -4.874      3.087      4.285
REMARK INTER + INTRA:          -6.706
REMARK INTER:                  -6.241
REMARK INTRA:                  -0.465
REMARK UNBOUND:                -0.550
REMARK  Name = 
REMARK  7 active torsions:
REMARK  status: ('A' for Active; 'I' for Inactive)
REMARK    1  A    between atoms: C_1  and  N_2
REMARK    2  A    between atoms: N_2  and  C_3
REMARK    3  A    between atoms: N_2  and  C_4
REMARK    4  A    between atoms: C_4  and  C_5
REMARK    5  A    between atoms: C_8  and  C_9
REMARK    6  A    between atoms: C_9  and  N_10
REMARK    7  A    between atoms: C_16  and  O_17
REMARK                            x       y       z     vdW  Elec       q    Type
REMARK                         _______ _______ _______ _____ _____    ______ ____
ROOT
ATOM      1  C   UNL     1      47.274   6.575  12.608  0.00  0.00    +0.000 C 
ENDROOT
BRANCH   1   2
ATOM      2  N   UNL     1      46.353   5.762  13.412  0.00  0.00    +0.000 N 
ATOM      3  C   UNL     1      46.830   4.643  14.088  0.00  0.00    +0.000 A 
ATOM      4  C   UNL     1      46.545   3.573  13.256  0.00  0.00    +0.000 A 
ATOM      5  C   UNL     1      45.320   3.955  12.648  0.00  0.00    +0.000 A 
ATOM      6  C   UNL     1      44.294   3.270  11.994  0.00  0.00    +0.000 A 
ATOM      7  C   UNL     1      43.135   3.989  11.711  0.00  0.00    +0.000 A 
ATOM      8  C   UNL     1      43.096   5.343  11.981  0.00  0.00    +0.000 A 
ATOM      9  N   UNL     1      44.109   6.086  12.505  0.00  0.00    +0.000 NA
ATOM     10  C   UNL     1      45.168   5.329  12.848  0.00  0.00    +0.000 A 
BRANCH   8  11
ATOM     11  O   UNL     1      41.958   6.062  11.744  0.00  0.00    +0.000 OA
ATOM     12  H   UNL     1      41.292   5.768  12.377  0.00  0.00    +0.000 HD
ENDBRANCH   8  11
ENDBRANCH   1   2
BRANCH   1  16
ATOM     13  C   UNL     1      49.981   9.362  14.348  0.00  0.00    +0.000 A 
ATOM     14  C   UNL     1      48.619   9.546  14.563  0.00  0.00    +0.000 A 
ATOM     15  C   UNL     1      47.706   8.614  14.062  0.00  0.00    +0.000 A 
ATOM     16  C   UNL     1      48.185   7.510  13.349  0.00  0.00    +0.000 A 
ATOM     17  C   UNL     1      49.562   7.398  13.206  0.00  0.00    +0.000 A 
ATOM     18  N   UNL     1      50.463   8.273  13.680  0.00  0.00    +0.000 NA
BRANCH  13  19
ATOM     19  C   UNL     1      51.000  10.351  14.878  0.00  0.00    +0.000 C 
BRANCH  19  21
ATOM     20  C   UNL     1      53.365   9.983  15.272  0.00  0.00    +0.000 C 
ATOM     21  N   UNL     1      52.008   9.741  15.775  0.00  0.00    +0.000 NA
ATOM     22  C   UNL     1      51.876  10.296  17.122  0.00  0.00    +0.000 C 
ENDBRANCH  19  21
ENDBRANCH  13  19
ENDBRANCH   1  16
TORSDOF 5
ENDMDL
