MODEL 1
REMARK VINA RESULT:    -7.868      0.000      0.000
REMARK INTER + INTRA:         -12.232
REMARK INTER:                 -11.547
REMARK INTRA:                  -0.684
REMARK UNBOUND:                -0.684
REMARK  Name = 
REMARK  8 active torsions:
REMARK  status: ('A' for Active; 'I' for Inactive)
REMARK    1  A    between atoms: C_2  and  C_3
REMARK    2  A    between atoms: C_3  and  C_4
REMARK    3  A    between atoms: C_4  and  C_5
REMARK    4  A    between atoms: C_4  and  C_16
REMARK    5  A    between atoms: C_5  and  N_6
REMARK    6  A    between atoms: N_6  and  C_7
REMARK    7  A    between atoms: C_10  and  C_11
REMARK    8  A    between atoms: C_20  and  C_21
REMARK                            x       y       z     vdW  Elec       q    Type
REMARK                         _______ _______ _______ _____ _____    ______ ____
ROOT
ATOM      1  C   UNL     1      45.431   5.410  11.913  0.00  0.00    +0.000 C 
ENDROOT
BRANCH   1   2
ATOM      2  C   UNL     1      46.113   6.759  12.102  0.00  0.00    +0.000 A 
ATOM      3  C   UNL     1      47.514   6.830  12.134  0.00  0.00    +0.000 A 
ATOM      4  C   UNL     1      48.160   8.068  12.178  0.00  0.00    +0.000 A 
ATOM      5  C   UNL     1      47.422   9.253  12.162  0.00  0.00    +0.000 A 
ATOM      6  C   UNL     1      46.025   9.201  12.133  0.00  0.00    +0.000 A 
ATOM      7  C   UNL     1      45.384   7.956  12.134  0.00  0.00    +0.000 A 
BRANCH   6   8
ATOM      8  C   UNL     1      45.169  10.406  11.987  0.00  0.00    +0.000 C 
ATOM      9  N   UNL     1      43.821  10.254  12.120  0.00  0.00    +0.000 N 
ATOM     10  O   UNL     1      45.661  11.502  11.750  0.00  0.00    +0.000 OA
ATOM     11  H   UNL     1      43.354   9.362  12.139  0.00  0.00    +0.000 HD
ATOM     12  H   UNL     1      43.257  11.086  11.984  0.00  0.00    +0.000 HD
ENDBRANCH   6   8
ENDBRANCH   1   2
BRANCH   1  13
ATOM     13  C   UNL     1      45.161   4.690  13.239  0.00  0.00    +0.000 C 
BRANCH  13  15
ATOM     14  N   UNL     1      47.395   3.246  14.052  0.00  0.00    +0.000 NA
ATOM     15  C   UNL     1      46.382   3.902  13.683  0.00  0.00    +0.000 C 
ENDBRANCH  13  15
ENDBRANCH   1  13
BRANCH   1  16
ATOM     16  C   UNL     1      44.148   5.570  11.059  0.00  0.00    +0.000 C 
BRANCH  16  17
ATOM     17  N   UNL     1      43.754   4.307  10.433  0.00  0.00    +0.000 N 
ATOM     18  H   UNL     1      42.785   4.272  10.116  0.00  0.00    +0.000 HD
BRANCH  17  19
ATOM     19  C   UNL     1      44.594   3.723   9.484  0.00  0.00    +0.000 A 
ATOM     20  C   UNL     1      45.343   4.410   8.540  0.00  0.00    +0.000 A 
ATOM     21  N   UNL     1      46.220   3.846   7.685  0.00  0.00    +0.000 NA
ATOM     22  C   UNL     1      46.374   2.506   7.815  0.00  0.00    +0.000 A 
ATOM     23  N   UNL     1      45.730   1.722   8.699  0.00  0.00    +0.000 NA
ATOM     24  C   UNL     1      44.868   2.362   9.516  0.00  0.00    +0.000 A 
BRANCH  22  25
ATOM     25  C   UNL     1      47.381   1.865   6.894  0.00  0.00    +0.000 C 
ATOM     26  N   UNL     1      48.423   2.672   6.503  0.00  0.00    +0.000 N 
ATOM     27  O   UNL     1      47.316   0.702   6.500  0.00  0.00    +0.000 OA
ATOM     28  H   UNL     1      48.486   3.622   6.856  0.00  0.00    +0.000 HD
ATOM     29  H   UNL     1      49.145   2.288   5.910  0.00  0.00    +0.000 HD
ENDBRANCH  22  25
ENDBRANCH  17  19
ENDBRANCH  16  17
ENDBRANCH   1  16
TORSDOF 8
ENDMDL
MODEL 2
REMARK VINA RESULT:    -7.767      1.658      2.442
REMARK INTER + INTRA:         -12.083
REMARK INTER:                 -11.301
REMARK INTRA:                  -0.782
REMARK UNBOUND:                -0.684
REMARK  Name = 
REMARK  8 active torsions:
REMARK  status: ('A' for Active; 'I' for Inactive)
REMARK    1  A    between atoms: C_2  and  C_3
REMARK    2  A    between atoms: C_3  and  C_4
REMARK    3  A    between atoms: C_4  and  C_5
REMARK    4  A    between atoms: C_4  and  C_16
REMARK    5  A    between atoms: C_5  and  N_6
REMARK    6  A    between atoms: N_6  and  C_7
REMARK    7  A    between atoms: C_10  and  C_11
REMARK    8  A    between atoms: C_20  and  C_21
REMARK                            x       y       z     vdW  Elec       q    Type
REMARK                         _______ _______ _______ _____ _____    ______ ____
ROOT
ATOM      1  C   UNL     1      45.319   5.508  11.804  0.00  0.00    +0.000 C 
ENDROOT
BRANCH   1   2
ATOM      2  C   UNL     1      45.984   6.875  11.900  0.00  0.00    +0.000 A 
ATOM      3  C   UNL     1      45.223   7.991  12.277  0.00  0.00    +0.000 A 
ATOM      4  C   UNL     1      45.838   9.227  12.495  0.00  0.00    +0.000 A 
ATOM      5  C   UNL     1      47.221   9.361  12.369  0.00  0.00    +0.000 A 
ATOM      6  C   UNL     1      47.995   8.260  11.992  0.00  0.00    +0.000 A 
ATOM      7  C   UNL     1      47.367   7.036  11.731  0.00  0.00    +0.000 A 
BRANCH   6   8
ATOM      8  C   UNL     1      49.480   8.282  11.956  0.00  0.00    +0.000 C 
ATOM      9  N   UNL     1      50.145   7.130  12.250  0.00  0.00    +0.000 N 
ATOM     10  O   UNL     1      50.086   9.309  11.675  0.00  0.00    +0.000 OA
ATOM     11  H   UNL     1      49.711   6.316  12.654  0.00  0.00    +0.000 HD
ATOM     12  H   UNL     1      51.158   7.181  12.250  0.00  0.00    +0.000 HD
ENDBRANCH   6   8
ENDBRANCH   1   2
BRANCH   1  13
ATOM     13  C   UNL     1      45.073   4.868  13.175  0.00  0.00    +0.000 C 
BRANCH  13  15
ATOM     14  N   UNL     1      47.250   3.317  13.943  0.00  0.00    +0.000 NA
ATOM     15  C   UNL     1      46.262   4.020  13.595  0.00  0.00    +0.000 C 
ENDBRANCH  13  15
ENDBRANCH   1  13
BRANCH   1  16
ATOM     16  C   UNL     1      44.025   5.596  10.956  0.00  0.00    +0.000 C 
BRANCH  16  17
ATOM     17  N   UNL     1      43.710   4.318  10.315  0.00  0.00    +0.000 N 
ATOM     18  H   UNL     1      42.803   4.288   9.848  0.00  0.00    +0.000 HD
BRANCH  17  19
ATOM     19  C   UNL     1      44.678   3.690   9.531  0.00  0.00    +0.000 A 
ATOM     20  C   UNL     1      44.970   2.333   9.545  0.00  0.00    +0.000 A 
ATOM     21  N   UNL     1      45.844   1.720   8.723  0.00  0.00    +0.000 NA
ATOM     22  C   UNL     1      46.437   2.522   7.806  0.00  0.00    +0.000 A 
ATOM     23  N   UNL     1      46.232   3.844   7.667  0.00  0.00    +0.000 NA
ATOM     24  C   UNL     1      45.345   4.383   8.530  0.00  0.00    +0.000 A 
BRANCH  22  25
ATOM     25  C   UNL     1      47.388   1.844   6.852  0.00  0.00    +0.000 C 
ATOM     26  N   UNL     1      48.448   2.611   6.428  0.00  0.00    +0.000 N 
ATOM     27  O   UNL     1      47.266   0.685   6.460  0.00  0.00    +0.000 OA
ATOM     28  H   UNL     1      48.559   3.557   6.780  0.00  0.00    +0.000 HD
ATOM     29  H   UNL     1      49.135   2.200   5.813  0.00  0.00    +0.000 HD
ENDBRANCH  22  25
ENDBRANCH  17  19
ENDBRANCH  16  17
ENDBRANCH   1  16
TORSDOF 8
ENDMDL
MODEL 3
REMARK VINA RESULT:    -7.555      1.453      2.049
REMARK INTER + INTRA:         -11.773
REMARK INTER:                 -11.103
REMARK INTRA:                  -0.670
REMARK UNBOUND:                -0.684
REMARK  Name = 
REMARK  8 active torsions:
REMARK  status: ('A' for Active; 'I' for Inactive)
REMARK    1  A    between atoms: C_2  and  C_3
REMARK    2  A    between atoms: C_3  and  C_4
REMARK    3  A    between atoms: C_4  and  C_5
REMARK    4  A    between atoms: C_4  and  C_16
REMARK    5  A    between atoms: C_5  and  N_6
REMARK    6  A    between atoms: N_6  and  C_7
REMARK    7  A    between atoms: C_10  and  C_11
REMARK    8  A    between atoms: C_20  and  C_21
REMARK                            x       y       z     vdW  Elec       q    Type
REMARK                         _______ _______ _______ _____ _____    ______ ____
ROOT
ATOM      1  C   UNL     1      45.520   6.200  11.456  0.00  0.00    +0.000 C 
ENDROOT
BRANCH   1   2
ATOM      2  C   UNL     1      45.166   7.674  11.603  0.00  0.00    +0.000 A 
ATOM      3  C   UNL     1      46.123   8.572  12.097  0.00  0.00    +0.000 A 
ATOM      4  C   UNL     1      45.862   9.945  12.120  0.00  0.00    +0.000 A 
ATOM      5  C   UNL     1      44.657  10.444  11.625  0.00  0.00    +0.000 A 
ATOM      6  C   UNL     1      43.690   9.563  11.130  0.00  0.00    +0.000 A 
ATOM      7  C   UNL     1      43.941   8.186  11.152  0.00  0.00    +0.000 A 
BRANCH   6   8
ATOM      8  C   UNL     1      42.437  10.016  10.471  0.00  0.00    +0.000 C 
ATOM      9  N   UNL     1      41.253   9.715  11.073  0.00  0.00    +0.000 N 
ATOM     10  O   UNL     1      42.471  10.637   9.417  0.00  0.00    +0.000 OA
ATOM     11  H   UNL     1      41.158   9.064  11.836  0.00  0.00    +0.000 HD
ATOM     12  H   UNL     1      40.412  10.006  10.586  0.00  0.00    +0.000 HD
ENDBRANCH   6   8
ENDBRANCH   1   2
BRANCH   1  13
ATOM     13  C   UNL     1      46.469   5.704  12.553  0.00  0.00    +0.000 C 
BRANCH  13  15
ATOM     14  N   UNL     1      45.949   3.044  13.177  0.00  0.00    +0.000 NA
ATOM     15  C   UNL     1      46.184   4.251  12.895  0.00  0.00    +0.000 C 
ENDBRANCH  13  15
ENDBRANCH   1  13
BRANCH   1  16
ATOM     16  C   UNL     1      44.233   5.343  11.360  0.00  0.00    +0.000 C 
BRANCH  16  17
ATOM     17  N   UNL     1      43.949   4.944   9.981  0.00  0.00    +0.000 N 
ATOM     18  H   UNL     1      43.634   5.701   9.374  0.00  0.00    +0.000 HD
BRANCH  17  19
ATOM     19  C   UNL     1      44.856   4.128   9.305  0.00  0.00    +0.000 A 
ATOM     20  C   UNL     1      44.901   2.743   9.374  0.00  0.00    +0.000 A 
ATOM     21  N   UNL     1      45.723   1.956   8.650  0.00  0.00    +0.000 NA
ATOM     22  C   UNL     1      46.527   2.609   7.776  0.00  0.00    +0.000 A 
ATOM     23  N   UNL     1      46.572   3.941   7.592  0.00  0.00    +0.000 NA
ATOM     24  C   UNL     1      45.722   4.658   8.356  0.00  0.00    +0.000 A 
BRANCH  22  25
ATOM     25  C   UNL     1      47.424   1.741   6.930  0.00  0.00    +0.000 C 
ATOM     26  N   UNL     1      48.522   2.371   6.393  0.00  0.00    +0.000 N 
ATOM     27  O   UNL     1      47.228   0.546   6.716  0.00  0.00    +0.000 OA
ATOM     28  H   UNL     1      48.693   3.351   6.599  0.00  0.00    +0.000 HD
ATOM     29  H   UNL     1      49.175   1.833   5.842  0.00  0.00    +0.000 HD
ENDBRANCH  22  25
ENDBRANCH  17  19
ENDBRANCH  16  17
ENDBRANCH   1  16
TORSDOF 8
ENDMDL
MODEL 4
REMARK VINA RESULT:    -7.506      2.520      3.006
REMARK INTER + INTRA:         -11.700
REMARK INTER:                 -10.982
REMARK INTRA:                  -0.718
REMARK UNBOUND:                -0.684
REMARK  Name = 
REMARK  8 active torsions:
REMARK  status: ('A' for Active; 'I' for Inactive)
REMARK    1  A    between atoms: C_2  and  C_3
REMARK    2  A    between atoms: C_3  and  C_4
REMARK    3  A    between atoms: C_4  and  C_5
REMARK    4  A    between atoms: C_4  and  C_16
REMARK    5  A    between atoms: C_5  and  N_6
REMARK    6  A    between atoms: N_6  and  C_7
REMARK    7  A    between atoms: C_10  and  C_11
REMARK    8  A    between atoms: C_20  and  C_21
REMARK                            x       y       z     vdW  Elec       q    Type
REMARK                         _______ _______ _______ _____ _____    ______ ____
ROOT
ATOM      1  C   UNL     1      45.817   5.290  12.030  0.00  0.00    +0.000 C 
ENDROOT
BRANCH   1   2
ATOM      2  C   UNL     1      47.022   6.130  12.433  0.00  0.00    +0.000 A 
ATOM      3  C   UNL     1      47.468   7.155  11.586  0.00  0.00    +0.000 A 
ATOM      4  C   UNL     1      48.489   8.018  11.994  0.00  0.00    +0.000 A 
ATOM      5  C   UNL     1      49.059   7.890  13.261  0.00  0.00    +0.000 A 
ATOM      6  C   UNL     1      48.628   6.873  14.118  0.00  0.00    +0.000 A 
ATOM      7  C   UNL     1      47.637   5.984  13.685  0.00  0.00    +0.000 A 
BRANCH   6   8
ATOM      8  C   UNL     1      49.090   6.743  15.524  0.00  0.00    +0.000 C 
ATOM      9  N   UNL     1      48.212   7.054  16.518  0.00  0.00    +0.000 N 
ATOM     10  O   UNL     1      50.229   6.372  15.780  0.00  0.00    +0.000 OA
ATOM     11  H   UNL     1      47.335   7.526  16.367  0.00  0.00    +0.000 HD
ATOM     12  H   UNL     1      48.562   6.988  17.467  0.00  0.00    +0.000 HD
ENDBRANCH   6   8
ENDBRANCH   1   2
BRANCH   1  13
ATOM     13  C   UNL     1      44.967   4.856  13.229  0.00  0.00    +0.000 C 
BRANCH  13  15
ATOM     14  N   UNL     1      43.472   2.594  12.611  0.00  0.00    +0.000 NA
ATOM     15  C   UNL     1      44.150   3.620  12.891  0.00  0.00    +0.000 C 
ENDBRANCH  13  15
ENDBRANCH   1  13
BRANCH   1  16
ATOM     16  C   UNL     1      44.981   6.028  10.954  0.00  0.00    +0.000 C 
BRANCH  16  17
ATOM     17  N   UNL     1      44.281   5.090  10.074  0.00  0.00    +0.000 N 
ATOM     18  H   UNL     1      43.460   5.475   9.608  0.00  0.00    +0.000 HD
BRANCH  17  19
ATOM     19  C   UNL     1      45.019   4.308   9.186  0.00  0.00    +0.000 A 
ATOM     20  C   UNL     1      45.967   4.781   8.290  0.00  0.00    +0.000 A 
ATOM     21  N   UNL     1      46.738   4.011   7.498  0.00  0.00    +0.000 NA
ATOM     22  C   UNL     1      46.565   2.674   7.644  0.00  0.00    +0.000 A 
ATOM     23  N   UNL     1      45.700   2.081   8.485  0.00  0.00    +0.000 NA
ATOM     24  C   UNL     1      44.962   2.921   9.241  0.00  0.00    +0.000 A 
BRANCH  22  25
ATOM     25  C   UNL     1      47.449   1.797   6.793  0.00  0.00    +0.000 C 
ATOM     26  N   UNL     1      48.507   2.433   6.188  0.00  0.00    +0.000 N 
ATOM     27  O   UNL     1      47.275   0.591   6.631  0.00  0.00    +0.000 OA
ATOM     28  H   UNL     1      48.661   3.424   6.351  0.00  0.00    +0.000 HD
ATOM     29  H   UNL     1      49.151   1.891   5.631  0.00  0.00    +0.000 HD
ENDBRANCH  22  25
ENDBRANCH  17  19
ENDBRANCH  16  17
ENDBRANCH   1  16
TORSDOF 8
ENDMDL
MODEL 5
REMARK VINA RESULT:    -6.789      3.137      7.065
REMARK INTER + INTRA:         -10.649
REMARK INTER:                  -9.750
REMARK INTRA:                  -0.899
REMARK UNBOUND:                -0.684
REMARK  Name = 
REMARK  8 active torsions:
REMARK  status: ('A' for Active; 'I' for Inactive)
REMARK    1  A    between atoms: C_2  and  C_3
REMARK    2  A    between atoms: C_3  and  C_4
REMARK    3  A    between atoms: C_4  and  C_5
REMARK    4  A    between atoms: C_4  and  C_16
REMARK    5  A    between atoms: C_5  and  N_6
REMARK    6  A    between atoms: N_6  and  C_7
REMARK    7  A    between atoms: C_10  and  C_11
REMARK    8  A    between atoms: C_20  and  C_21
REMARK                            x       y       z     vdW  Elec       q    Type
REMARK                         _______ _______ _______ _____ _____    ______ ____
ROOT
ATOM      1  C   UNL     1      45.284   7.421  11.557  0.00  0.00    +0.000 C 
ENDROOT
BRANCH   1   2
ATOM      2  C   UNL     1      44.691   6.019  11.522  0.00  0.00    +0.000 A 
ATOM      3  C   UNL     1      43.736   5.645  12.478  0.00  0.00    +0.000 A 
ATOM      4  C   UNL     1      43.087   4.410  12.388  0.00  0.00    +0.000 A 
ATOM      5  C   UNL     1      43.359   3.544  11.328  0.00  0.00    +0.000 A 
ATOM      6  C   UNL     1      44.310   3.899  10.367  0.00  0.00    +0.000 A 
ATOM      7  C   UNL     1      44.989   5.117  10.489  0.00  0.00    +0.000 A 
BRANCH   6   8
ATOM      8  C   UNL     1      44.570   3.097   9.143  0.00  0.00    +0.000 C 
ATOM      9  N   UNL     1      44.742   1.753   9.284  0.00  0.00    +0.000 N 
ATOM     10  O   UNL     1      44.630   3.631   8.043  0.00  0.00    +0.000 OA
ATOM     11  H   UNL     1      44.877   1.292  10.169  0.00  0.00    +0.000 HD
ATOM     12  H   UNL     1      44.950   1.233   8.438  0.00  0.00    +0.000 HD
ENDBRANCH   6   8
ENDBRANCH   1   2
BRANCH   1  13
ATOM     13  C   UNL     1      44.231   8.517  11.365  0.00  0.00    +0.000 C 
BRANCH  13  15
ATOM     14  N   UNL     1      45.276  11.014  12.002  0.00  0.00    +0.000 NA
ATOM     15  C   UNL     1      44.803   9.881  11.713  0.00  0.00    +0.000 C 
ENDBRANCH  13  15
ENDBRANCH   1  13
BRANCH   1  16
ATOM     16  C   UNL     1      46.114   7.623  12.850  0.00  0.00    +0.000 C 
BRANCH  16  17
ATOM     17  N   UNL     1      47.355   6.847  12.824  0.00  0.00    +0.000 N 
ATOM     18  H   UNL     1      48.196   7.394  12.638  0.00  0.00    +0.000 HD
BRANCH  17  19
ATOM     19  C   UNL     1      47.598   5.914  13.832  0.00  0.00    +0.000 A 
ATOM     20  C   UNL     1      48.234   6.177  15.037  0.00  0.00    +0.000 A 
ATOM     21  N   UNL     1      48.387   5.293  16.043  0.00  0.00    +0.000 NA
ATOM     22  C   UNL     1      47.833   4.074  15.831  0.00  0.00    +0.000 A 
ATOM     23  N   UNL     1      47.173   3.692  14.723  0.00  0.00    +0.000 NA
ATOM     24  C   UNL     1      47.066   4.634  13.762  0.00  0.00    +0.000 A 
BRANCH  22  25
ATOM     25  C   UNL     1      47.960   3.086  16.962  0.00  0.00    +0.000 C 
ATOM     26  N   UNL     1      46.801   2.827  17.656  0.00  0.00    +0.000 N 
ATOM     27  O   UNL     1      49.007   2.521  17.273  0.00  0.00    +0.000 OA
ATOM     28  H   UNL     1      45.934   3.275  17.374  0.00  0.00    +0.000 HD
ATOM     29  H   UNL     1      46.818   2.151  18.405  0.00  0.00    +0.000 HD
ENDBRANCH  22  25
ENDBRANCH  17  19
ENDBRANCH  16  17
ENDBRANCH   1  16
TORSDOF 8
ENDMDL
MODEL 6
REMARK VINA RESULT:    -6.773      3.704      6.968
REMARK INTER + INTRA:         -10.624
REMARK INTER:                  -9.721
REMARK INTRA:                  -0.903
REMARK UNBOUND:                -0.684
REMARK  Name = 
REMARK  8 active torsions:
REMARK  status: ('A' for Active; 'I' for Inactive)
REMARK    1  A    between atoms: C_2  and  C_3
REMARK    2  A    between atoms: C_3  and  C_4
REMARK    3  A    between atoms: C_4  and  C_5
REMARK    4  A    between atoms: C_4  and  C_16
REMARK    5  A    between atoms: C_5  and  N_6
REMARK    6  A    between atoms: N_6  and  C_7
REMARK    7  A    between atoms: C_10  and  C_11
REMARK    8  A    between atoms: C_20  and  C_21
REMARK                            x       y       z     vdW  Elec       q    Type
REMARK                         _______ _______ _______ _____ _____    ______ ____
ROOT
ATOM      1  C   UNL     1      46.070   7.203  11.239  0.00  0.00    +0.000 C 
ENDROOT
BRANCH   1   2
ATOM      2  C   UNL     1      45.466   5.920  10.682  0.00  0.00    +0.000 A 
ATOM      3  C   UNL     1      45.820   5.488   9.396  0.00  0.00    +0.000 A 
ATOM      4  C   UNL     1      45.378   4.252   8.916  0.00  0.00    +0.000 A 
ATOM      5  C   UNL     1      44.602   3.417   9.722  0.00  0.00    +0.000 A 
ATOM      6  C   UNL     1      44.238   3.833  11.006  0.00  0.00    +0.000 A 
ATOM      7  C   UNL     1      44.646   5.092  11.462  0.00  0.00    +0.000 A 
BRANCH   6   8
ATOM      8  C   UNL     1      43.523   2.959  11.972  0.00  0.00    +0.000 C 
ATOM      9  N   UNL     1      43.600   3.271  13.296  0.00  0.00    +0.000 N 
ATOM     10  O   UNL     1      42.887   1.985  11.587  0.00  0.00    +0.000 OA
ATOM     11  H   UNL     1      44.243   3.945  13.679  0.00  0.00    +0.000 HD
ATOM     12  H   UNL     1      43.130   2.640  13.936  0.00  0.00    +0.000 HD
ENDBRANCH   6   8
ENDBRANCH   1   2
BRANCH   1  13
ATOM     13  C   UNL     1      45.130   7.932  12.205  0.00  0.00    +0.000 C 
BRANCH  13  15
ATOM     14  N   UNL     1      44.907  10.619  11.523  0.00  0.00    +0.000 NA
ATOM     15  C   UNL     1      45.008   9.400  11.833  0.00  0.00    +0.000 C 
ENDBRANCH  13  15
ENDBRANCH   1  13
BRANCH   1  16
ATOM     16  C   UNL     1      47.455   6.916  11.871  0.00  0.00    +0.000 C 
BRANCH  16  17
ATOM     17  N   UNL     1      47.452   7.158  13.315  0.00  0.00    +0.000 N 
ATOM     18  H   UNL     1      46.731   7.804  13.638  0.00  0.00    +0.000 HD
BRANCH  17  19
ATOM     19  C   UNL     1      47.557   6.076  14.189  0.00  0.00    +0.000 A 
ATOM     20  C   UNL     1      46.990   4.825  13.996  0.00  0.00    +0.000 A 
ATOM     21  N   UNL     1      47.169   3.758  14.800  0.00  0.00    +0.000 NA
ATOM     22  C   UNL     1      48.003   3.959  15.850  0.00  0.00    +0.000 A 
ATOM     23  N   UNL     1      48.634   5.110  16.144  0.00  0.00    +0.000 NA
ATOM     24  C   UNL     1      48.400   6.130  15.292  0.00  0.00    +0.000 A 
BRANCH  22  25
ATOM     25  C   UNL     1      48.246   2.765  16.737  0.00  0.00    +0.000 C 
ATOM     26  N   UNL     1      47.492   2.717  17.885  0.00  0.00    +0.000 N 
ATOM     27  O   UNL     1      49.049   1.868  16.485  0.00  0.00    +0.000 OA
ATOM     28  H   UNL     1      46.809   3.446  18.071  0.00  0.00    +0.000 HD
ATOM     29  H   UNL     1      47.589   1.925  18.504  0.00  0.00    +0.000 HD
ENDBRANCH  22  25
ENDBRANCH  17  19
ENDBRANCH  16  17
ENDBRANCH   1  16
TORSDOF 8
ENDMDL
MODEL 7
REMARK VINA RESULT:    -6.268      4.179      6.401
REMARK INTER + INTRA:          -9.884
REMARK INTER:                  -9.037
REMARK INTRA:                  -0.846
REMARK UNBOUND:                -0.684
REMARK  Name = 
REMARK  8 active torsions:
REMARK  status: ('A' for Active; 'I' for Inactive)
REMARK    1  A    between atoms: C_2  and  C_3
REMARK    2  A    between atoms: C_3  and  C_4
REMARK    3  A    between atoms: C_4  and  C_5
REMARK    4  A    between atoms: C_4  and  C_16
REMARK    5  A    between atoms: C_5  and  N_6
REMARK    6  A    between atoms: N_6  and  C_7
REMARK    7  A    between atoms: C_10  and  C_11
REMARK    8  A    between atoms: C_20  and  C_21
REMARK                            x       y       z     vdW  Elec       q    Type
REMARK                         _______ _______ _______ _____ _____    ______ ____
ROOT
ATOM      1  C   UNL     1      48.611   7.553  15.002  0.00  0.00    +0.000 C 
ENDROOT
BRANCH   1   2
ATOM      2  C   UNL     1      49.152   6.436  15.885  0.00  0.00    +0.000 A 
ATOM      3  C   UNL     1      50.475   6.496  16.348  0.00  0.00    +0.000 A 
ATOM      4  C   UNL     1      50.950   5.551  17.261  0.00  0.00    +0.000 A 
ATOM      5  C   UNL     1      50.108   4.550  17.747  0.00  0.00    +0.000 A 
ATOM      6  C   UNL     1      48.787   4.473  17.294  0.00  0.00    +0.000 A 
ATOM      7  C   UNL     1      48.331   5.397  16.346  0.00  0.00    +0.000 A 
BRANCH   6   8
ATOM      8  C   UNL     1      47.790   3.522  17.850  0.00  0.00    +0.000 C 
ATOM      9  N   UNL     1      48.101   2.872  19.006  0.00  0.00    +0.000 N 
ATOM     10  O   UNL     1      46.723   3.326  17.282  0.00  0.00    +0.000 OA
ATOM     11  H   UNL     1      49.022   2.860  19.416  0.00  0.00    +0.000 HD
ATOM     12  H   UNL     1      47.418   2.204  19.347  0.00  0.00    +0.000 HD
ENDBRANCH   6   8
ENDBRANCH   1   2
BRANCH   1  13
ATOM     13  C   UNL     1      49.627   8.678  14.777  0.00  0.00    +0.000 C 
BRANCH  13  15
ATOM     14  N   UNL     1      48.506  10.730  13.272  0.00  0.00    +0.000 NA
ATOM     15  C   UNL     1      49.015   9.800  13.955  0.00  0.00    +0.000 C 
ENDBRANCH  13  15
ENDBRANCH   1  13
BRANCH   1  16
ATOM     16  C   UNL     1      48.073   6.973  13.670  0.00  0.00    +0.000 C 
BRANCH  16  17
ATOM     17  N   UNL     1      46.619   7.113  13.566  0.00  0.00    +0.000 N 
ATOM     18  H   UNL     1      46.301   8.021  13.226  0.00  0.00    +0.000 HD
BRANCH  17  19
ATOM     19  C   UNL     1      45.874   6.090  12.981  0.00  0.00    +0.000 A 
ATOM     20  C   UNL     1      45.325   6.119  11.707  0.00  0.00    +0.000 A 
ATOM     21  N   UNL     1      44.682   5.093  11.114  0.00  0.00    +0.000 NA
ATOM     22  C   UNL     1      44.619   3.952  11.844  0.00  0.00    +0.000 A 
ATOM     23  N   UNL     1      45.124   3.778  13.078  0.00  0.00    +0.000 NA
ATOM     24  C   UNL     1      45.749   4.854  13.602  0.00  0.00    +0.000 A 
BRANCH  22  25
ATOM     25  C   UNL     1      43.938   2.782  11.180  0.00  0.00    +0.000 C 
ATOM     26  N   UNL     1      44.507   2.355  10.004  0.00  0.00    +0.000 N 
ATOM     27  O   UNL     1      42.944   2.214  11.630  0.00  0.00    +0.000 OA
ATOM     28  H   UNL     1      45.345   2.811   9.654  0.00  0.00    +0.000 HD
ATOM     29  H   UNL     1      44.113   1.556   9.529  0.00  0.00    +0.000 HD
ENDBRANCH  22  25
ENDBRANCH  17  19
ENDBRANCH  16  17
ENDBRANCH   1  16
TORSDOF 8
ENDMDL
MODEL 8
REMARK VINA RESULT:    -5.937      3.926      6.605
REMARK INTER + INTRA:          -9.397
REMARK INTER:                  -8.660
REMARK INTRA:                  -0.737
REMARK UNBOUND:                -0.684
REMARK  Name = 
REMARK  8 active torsions:
REMARK  status: ('A' for Active; 'I' for Inactive)
REMARK    1  A    between atoms: C_2  and  C_3
REMARK    2  A    between atoms: C_3  and  C_4
REMARK    3  A    between atoms: C_4  and  C_5
REMARK    4  A    between atoms: C_4  and  C_16
REMARK    5  A    between atoms: C_5  and  N_6
REMARK    6  A    between atoms: N_6  and  C_7
REMARK    7  A    between atoms: C_10  and  C_11
REMARK    8  A    between atoms: C_20  and  C_21
REMARK                            x       y       z     vdW  Elec       q    Type
REMARK                         _______ _______ _______ _____ _____    ______ ____
ROOT
ATOM      1  C   UNL     1      45.496   5.292  13.089  0.00  0.00    +0.000 C 
ENDROOT
BRANCH   1   2
ATOM      2  C   UNL     1      45.995   6.708  12.836  0.00  0.00    +0.000 A 
ATOM      3  C   UNL     1      47.372   6.974  12.861  0.00  0.00    +0.000 A 
ATOM      4  C   UNL     1      47.857   8.236  12.507  0.00  0.00    +0.000 A 
ATOM      5  C   UNL     1      46.981   9.241  12.095  0.00  0.00    +0.000 A 
ATOM      6  C   UNL     1      45.605   8.995  12.067  0.00  0.00    +0.000 A 
ATOM      7  C   UNL     1      45.123   7.742  12.466  0.00  0.00    +0.000 A 
BRANCH   6   8
ATOM      8  C   UNL     1      44.616   9.962  11.525  0.00  0.00    +0.000 C 
ATOM      9  N   UNL     1      43.810   9.551  10.506  0.00  0.00    +0.000 N 
ATOM     10  O   UNL     1      44.532  11.096  11.980  0.00  0.00    +0.000 OA
ATOM     11  H   UNL     1      43.952   8.702   9.983  0.00  0.00    +0.000 HD
ATOM     12  H   UNL     1      43.166  10.241  10.133  0.00  0.00    +0.000 HD
ENDBRANCH   6   8
ENDBRANCH   1   2
BRANCH   1  13
ATOM     13  C   UNL     1      44.918   4.632  11.832  0.00  0.00    +0.000 C 
BRANCH  13  15
ATOM     14  N   UNL     1      43.431   2.377  12.496  0.00  0.00    +0.000 NA
ATOM     15  C   UNL     1      44.106   3.400  12.196  0.00  0.00    +0.000 C 
ENDBRANCH  13  15
ENDBRANCH   1  13
BRANCH   1  16
ATOM     16  C   UNL     1      46.612   4.436  13.740  0.00  0.00    +0.000 C 
BRANCH  16  17
ATOM     17  N   UNL     1      46.467   4.375  15.196  0.00  0.00    +0.000 N 
ATOM     18  H   UNL     1      45.713   3.772  15.525  0.00  0.00    +0.000 HD
BRANCH  17  19
ATOM     19  C   UNL     1      47.602   4.207  15.989  0.00  0.00    +0.000 A 
ATOM     20  C   UNL     1      48.112   2.990  16.418  0.00  0.00    +0.000 A 
ATOM     21  N   UNL     1      49.259   2.830  17.109  0.00  0.00    +0.000 NA
ATOM     22  C   UNL     1      49.951   3.969  17.354  0.00  0.00    +0.000 A 
ATOM     23  N   UNL     1      49.585   5.207  16.979  0.00  0.00    +0.000 NA
ATOM     24  C   UNL     1      48.424   5.284  16.294  0.00  0.00    +0.000 A 
BRANCH  22  25
ATOM     25  C   UNL     1      51.256   3.802  18.091  0.00  0.00    +0.000 C 
ATOM     26  N   UNL     1      51.783   2.532  18.083  0.00  0.00    +0.000 N 
ATOM     27  O   UNL     1      51.846   4.714  18.667  0.00  0.00    +0.000 OA
ATOM     28  H   UNL     1      51.305   1.791  17.579  0.00  0.00    +0.000 HD
ATOM     29  H   UNL     1      52.670   2.366  18.534  0.00  0.00    +0.000 HD
ENDBRANCH  22  25
ENDBRANCH  17  19
ENDBRANCH  16  17
ENDBRANCH   1  16
TORSDOF 8
ENDMDL
MODEL 9
REMARK VINA RESULT:    -5.830      3.966      6.907
REMARK INTER + INTRA:          -9.241
REMARK INTER:                  -8.333
REMARK INTRA:                  -0.908
REMARK UNBOUND:                -0.684
REMARK  Name = 
REMARK  8 active torsions:
REMARK  status: ('A' for Active; 'I' for Inactive)
REMARK    1  A    between atoms: C_2  and  C_3
REMARK    2  A    between atoms: C_3  and  C_4
REMARK    3  A    between atoms: C_4  and  C_5
REMARK    4  A    between atoms: C_4  and  C_16
REMARK    5  A    between atoms: C_5  and  N_6
REMARK    6  A    between atoms: N_6  and  C_7
REMARK    7  A    between atoms: C_10  and  C_11
REMARK    8  A    between atoms: C_20  and  C_21
REMARK                            x       y       z     vdW  Elec       q    Type
REMARK                         _______ _______ _______ _____ _____    ______ ____
ROOT
ATOM      1  C   UNL     1      45.506   5.335  12.784  0.00  0.00    +0.000 C 
ENDROOT
BRANCH   1   2
ATOM      2  C   UNL     1      46.217   6.649  12.488  0.00  0.00    +0.000 A 
ATOM      3  C   UNL     1      45.479   7.840  12.433  0.00  0.00    +0.000 A 
ATOM      4  C   UNL     1      46.127   9.070  12.290  0.00  0.00    +0.000 A 
ATOM      5  C   UNL     1      47.520   9.133  12.228  0.00  0.00    +0.000 A 
ATOM      6  C   UNL     1      48.272   7.955  12.279  0.00  0.00    +0.000 A 
ATOM      7  C   UNL     1      47.613   6.724  12.377  0.00  0.00    +0.000 A 
BRANCH   6   8
ATOM      8  C   UNL     1      49.756   7.940  12.346  0.00  0.00    +0.000 C 
ATOM      9  N   UNL     1      50.341   7.462  13.480  0.00  0.00    +0.000 N 
ATOM     10  O   UNL     1      50.432   8.349  11.410  0.00  0.00    +0.000 OA
ATOM     11  H   UNL     1      49.843   7.280  14.337  0.00  0.00    +0.000 HD
ATOM     12  H   UNL     1      51.354   7.492  13.513  0.00  0.00    +0.000 HD
ENDBRANCH   6   8
ENDBRANCH   1   2
BRANCH   1  13
ATOM     13  C   UNL     1      44.881   4.703  11.535  0.00  0.00    +0.000 C 
BRANCH  13  15
ATOM     14  N   UNL     1      43.302   2.518  12.220  0.00  0.00    +0.000 NA
ATOM     15  C   UNL     1      44.019   3.509  11.910  0.00  0.00    +0.000 C 
ENDBRANCH  13  15
ENDBRANCH   1  13
BRANCH   1  16
ATOM     16  C   UNL     1      46.460   4.361  13.521  0.00  0.00    +0.000 C 
BRANCH  16  17
ATOM     17  N   UNL     1      46.300   4.442  14.974  0.00  0.00    +0.000 N 
ATOM     18  H   UNL     1      45.534   3.884  15.351  0.00  0.00    +0.000 HD
BRANCH  17  19
ATOM     19  C   UNL     1      47.425   4.334  15.792  0.00  0.00    +0.000 A 
ATOM     20  C   UNL     1      47.904   3.159  16.353  0.00  0.00    +0.000 A 
ATOM     21  N   UNL     1      49.040   3.048  17.069  0.00  0.00    +0.000 NA
ATOM     22  C   UNL     1      49.756   4.191  17.198  0.00  0.00    +0.000 A 
ATOM     23  N   UNL     1      49.422   5.391  16.690  0.00  0.00    +0.000 NA
ATOM     24  C   UNL     1      48.269   5.419  15.990  0.00  0.00    +0.000 A 
BRANCH  22  25
ATOM     25  C   UNL     1      51.051   4.076  17.963  0.00  0.00    +0.000 C 
ATOM     26  N   UNL     1      51.518   2.796  18.146  0.00  0.00    +0.000 N 
ATOM     27  O   UNL     1      51.683   5.035  18.403  0.00  0.00    +0.000 OA
ATOM     28  H   UNL     1      51.007   2.011  17.753  0.00  0.00    +0.000 HD
ATOM     29  H   UNL     1      52.396   2.658  18.624  0.00  0.00    +0.000 HD
ENDBRANCH  22  25
ENDBRANCH  17  19
ENDBRANCH  16  17
ENDBRANCH   1  16
TORSDOF 8
ENDMDL
