MODEL 1
REMARK VINA RESULT:    -7.798      0.000      0.000
REMARK INTER + INTRA:          -9.899
REMARK INTER:                  -9.394
REMARK INTRA:                  -0.505
REMARK UNBOUND:                -0.505
REMARK  Name = 
REMARK  5 active torsions:
REMARK  status: ('A' for Active; 'I' for Inactive)
REMARK    1  A    between atoms: C_1  and  C_2
REMARK    2  A    between atoms: C_9  and  C_10
REMARK    3  A    between atoms: C_10  and  O_12
REMARK    4  A    between atoms: N_14  and  C_15
REMARK    5  A    between atoms: C_15  and  C_16
REMARK                            x       y       z     vdW  Elec       q    Type
REMARK                         _______ _______ _______ _____ _____    ______ ____
ROOT
ATOM      1  C   UNL     1      46.780   0.778   7.643  0.00  0.00    +0.000 C 
ATOM      2  C   UNL     1      45.982   1.954   8.088  0.00  0.00    +0.000 C 
ATOM      3  C   UNL     1      46.374   3.330   7.674  0.00  0.00    +0.000 C 
ATOM      4  N   UNL     1      46.017   4.455   8.210  0.00  0.00    +0.000 NA
ATOM      5  C   UNL     1      45.184   4.438   9.305  0.00  0.00    +0.000 C 
ATOM      6  C   UNL     1      44.559   3.112   9.615  0.00  0.00    +0.000 C 
ATOM      7  C   UNL     1      44.936   1.889   8.926  0.00  0.00    +0.000 C 
ATOM      8  C   UNL     1      43.888   2.952  10.773  0.00  0.00    +0.000 C 
ATOM      9  C   UNL     1      44.074   3.958  11.796  0.00  0.00    +0.000 C 
ATOM     10  C   UNL     1      44.200   5.235  11.388  0.00  0.00    +0.000 C 
ATOM     11  N   UNL     1      45.003   5.521  10.240  0.00  0.00    +0.000 N 
ENDROOT
BRANCH   9  12
ATOM     12  C   UNL     1      45.131   3.700  12.860  0.00  0.00    +0.000 C 
ATOM     13  O   UNL     1      45.420   4.486  13.751  0.00  0.00    +0.000 OA
BRANCH  12  14
ATOM     14  O   UNL     1      45.844   2.562  12.684  0.00  0.00    +0.000 OA
ATOM     15  H   UNL     1      46.107   2.092  13.498  0.00  0.00    +0.000 HD
ENDBRANCH  12  14
ENDBRANCH   9  12
BRANCH  11  16
ATOM     16  C   UNL     1      46.257   6.295  10.574  0.00  0.00    +0.000 C 
BRANCH  16  17
ATOM     17  C   UNL     1      46.420   6.985  11.944  0.00  0.00    +0.000 C 
ATOM     18  C   UNL     1      45.974   8.448  12.134  0.00  0.00    +0.000 C 
ATOM     19  N   UNL     1      46.061   8.876  13.555  0.00  0.00    +0.000 NA
ATOM     20  C   UNL     1      47.428   8.582  14.063  0.00  0.00    +0.000 C 
ATOM     21  C   UNL     1      47.830   7.121  13.828  0.00  0.00    +0.000 C 
ATOM     22  O   UNL     1      47.767   6.799  12.432  0.00  0.00    +0.000 OA
ATOM     23  H   UNL     1      45.400   8.324  14.106  0.00  0.00    +0.000 HD
ENDBRANCH  16  17
ENDBRANCH  11  16
TORSDOF 4
ENDMDL
MODEL 2
REMARK VINA RESULT:    -7.061      1.441      1.959
REMARK INTER + INTRA:          -9.010
REMARK INTER:                  -8.486
REMARK INTRA:                  -0.524
REMARK UNBOUND:                -0.505
REMARK  Name = 
REMARK  5 active torsions:
REMARK  status: ('A' for Active; 'I' for Inactive)
REMARK    1  A    between atoms: C_1  and  C_2
REMARK    2  A    between atoms: C_9  and  C_10
REMARK    3  A    between atoms: C_10  and  O_12
REMARK    4  A    between atoms: N_14  and  C_15
REMARK    5  A    between atoms: C_15  and  C_16
REMARK                            x       y       z     vdW  Elec       q    Type
REMARK                         _______ _______ _______ _____ _____    ______ ____
ROOT
ATOM      1  C   UNL     1      46.810   1.329   7.615  0.00  0.00    +0.000 C 
ATOM      2  C   UNL     1      45.860   2.329   8.177  0.00  0.00    +0.000 C 
ATOM      3  C   UNL     1      46.010   3.775   7.853  0.00  0.00    +0.000 C 
ATOM      4  N   UNL     1      45.508   4.789   8.484  0.00  0.00    +0.000 NA
ATOM      5  C   UNL     1      44.743   4.565   9.606  0.00  0.00    +0.000 C 
ATOM      6  C   UNL     1      44.351   3.138   9.840  0.00  0.00    +0.000 C 
ATOM      7  C   UNL     1      44.880   2.041   9.048  0.00  0.00    +0.000 C 
ATOM      8  C   UNL     1      43.772   2.794  11.008  0.00  0.00    +0.000 C 
ATOM      9  C   UNL     1      43.849   3.745  12.096  0.00  0.00    +0.000 C 
ATOM     10  C   UNL     1      43.753   5.051  11.779  0.00  0.00    +0.000 C 
ATOM     11  N   UNL     1      44.442   5.539  10.626  0.00  0.00    +0.000 N 
ENDROOT
BRANCH   9  12
ATOM     12  C   UNL     1      44.985   3.589  13.095  0.00  0.00    +0.000 C 
ATOM     13  O   UNL     1      45.237   4.390  13.985  0.00  0.00    +0.000 OA
BRANCH  12  14
ATOM     14  O   UNL     1      45.804   2.537  12.860  0.00  0.00    +0.000 OA
ATOM     15  H   UNL     1      45.378   1.660  12.835  0.00  0.00    +0.000 HD
ENDBRANCH  12  14
ENDBRANCH   9  12
BRANCH  11  16
ATOM     16  C   UNL     1      45.574   6.479  10.968  0.00  0.00    +0.000 C 
BRANCH  16  17
ATOM     17  C   UNL     1      45.308   7.977  11.228  0.00  0.00    +0.000 C 
ATOM     18  C   UNL     1      45.511   8.568  12.637  0.00  0.00    +0.000 C 
ATOM     19  N   UNL     1      45.365  10.047  12.646  0.00  0.00    +0.000 NA
ATOM     20  C   UNL     1      44.066  10.405  12.013  0.00  0.00    +0.000 C 
ATOM     21  C   UNL     1      43.907   9.774  10.625  0.00  0.00    +0.000 C 
ATOM     22  O   UNL     1      44.014   8.345  10.705  0.00  0.00    +0.000 OA
ATOM     23  H   UNL     1      46.110  10.456  12.078  0.00  0.00    +0.000 HD
ENDBRANCH  16  17
ENDBRANCH  11  16
TORSDOF 4
ENDMDL
MODEL 3
REMARK VINA RESULT:    -6.553      1.745      2.217
REMARK INTER + INTRA:          -8.399
REMARK INTER:                  -7.921
REMARK INTRA:                  -0.478
REMARK UNBOUND:                -0.505
REMARK  Name = 
REMARK  5 active torsions:
REMARK  status: ('A' for Active; 'I' for Inactive)
REMARK    1  A    between atoms: C_1  and  C_2
REMARK    2  A    between atoms: C_9  and  C_10
REMARK    3  A    between atoms: C_10  and  O_12
REMARK    4  A    between atoms: N_14  and  C_15
REMARK    5  A    between atoms: C_15  and  C_16
REMARK                            x       y       z     vdW  Elec       q    Type
REMARK                         _______ _______ _______ _____ _____    ______ ____
ROOT
ATOM      1  C   UNL     1      45.244   1.764   8.597  0.00  0.00    +0.000 C 
ATOM      2  C   UNL     1      45.004   3.008   9.382  0.00  0.00    +0.000 C 
ATOM      3  C   UNL     1      45.468   4.325   8.866  0.00  0.00    +0.000 C 
ATOM      4  N   UNL     1      45.641   5.424   9.530  0.00  0.00    +0.000 NA
ATOM      5  C   UNL     1      45.391   5.433  10.883  0.00  0.00    +0.000 C 
ATOM      6  C   UNL     1      44.690   4.220  11.413  0.00  0.00    +0.000 C 
ATOM      7  C   UNL     1      44.446   3.040  10.602  0.00  0.00    +0.000 C 
ATOM      8  C   UNL     1      44.578   4.051  12.746  0.00  0.00    +0.000 C 
ATOM      9  C   UNL     1      45.411   4.875  13.595  0.00  0.00    +0.000 C 
ATOM     10  C   UNL     1      45.624   6.146  13.202  0.00  0.00    +0.000 C 
ATOM     11  N   UNL     1      45.884   6.411  11.821  0.00  0.00    +0.000 N 
ENDROOT
BRANCH   9  12
ATOM     12  C   UNL     1      46.741   4.298  14.057  0.00  0.00    +0.000 C 
ATOM     13  O   UNL     1      47.623   4.948  14.601  0.00  0.00    +0.000 OA
BRANCH  12  14
ATOM     14  O   UNL     1      46.948   3.006  13.710  0.00  0.00    +0.000 OA
ATOM     15  H   UNL     1      47.524   2.857  12.937  0.00  0.00    +0.000 HD
ENDBRANCH  12  14
ENDBRANCH   9  12
BRANCH  11  16
ATOM     16  C   UNL     1      47.293   6.890  11.567  0.00  0.00    +0.000 C 
BRANCH  16  17
ATOM     17  C   UNL     1      47.771   8.262  12.090  0.00  0.00    +0.000 C 
ATOM     18  C   UNL     1      46.781   9.438  12.198  0.00  0.00    +0.000 C 
ATOM     19  N   UNL     1      47.389  10.615  12.873  0.00  0.00    +0.000 NA
ATOM     20  C   UNL     1      48.669  10.952  12.193  0.00  0.00    +0.000 C 
ATOM     21  C   UNL     1      49.605   9.741  12.093  0.00  0.00    +0.000 C 
ATOM     22  O   UNL     1      48.966   8.667  11.389  0.00  0.00    +0.000 OA
ATOM     23  H   UNL     1      47.607  10.364  13.840  0.00  0.00    +0.000 HD
ENDBRANCH  16  17
ENDBRANCH  11  16
TORSDOF 4
ENDMDL
MODEL 4
REMARK VINA RESULT:    -6.037      3.349      5.671
REMARK INTER + INTRA:          -7.777
REMARK INTER:                  -7.245
REMARK INTRA:                  -0.532
REMARK UNBOUND:                -0.505
REMARK  Name = 
REMARK  5 active torsions:
REMARK  status: ('A' for Active; 'I' for Inactive)
REMARK    1  A    between atoms: C_1  and  C_2
REMARK    2  A    between atoms: C_9  and  C_10
REMARK    3  A    between atoms: C_10  and  O_12
REMARK    4  A    between atoms: N_14  and  C_15
REMARK    5  A    between atoms: C_15  and  C_16
REMARK                            x       y       z     vdW  Elec       q    Type
REMARK                         _______ _______ _______ _____ _____    ______ ____
ROOT
ATOM      1  C   UNL     1      50.471   8.326  11.237  0.00  0.00    +0.000 C 
ATOM      2  C   UNL     1      49.299   7.954  12.078  0.00  0.00    +0.000 C 
ATOM      3  C   UNL     1      49.489   7.171  13.330  0.00  0.00    +0.000 C 
ATOM      4  N   UNL     1      48.601   6.496  13.990  0.00  0.00    +0.000 NA
ATOM      5  C   UNL     1      47.309   6.453  13.517  0.00  0.00    +0.000 C 
ATOM      6  C   UNL     1      46.998   7.414  12.411  0.00  0.00    +0.000 C 
ATOM      7  C   UNL     1      48.022   8.212  11.758  0.00  0.00    +0.000 C 
ATOM      8  C   UNL     1      45.824   7.312  11.756  0.00  0.00    +0.000 C 
ATOM      9  C   UNL     1      45.066   6.092  11.933  0.00  0.00    +0.000 C 
ATOM     10  C   UNL     1      45.082   5.530  13.157  0.00  0.00    +0.000 C 
ATOM     11  N   UNL     1      46.315   5.473  13.880  0.00  0.00    +0.000 N 
ENDROOT
BRANCH   9  12
ATOM     12  C   UNL     1      45.255   4.985  10.907  0.00  0.00    +0.000 C 
ATOM     13  O   UNL     1      45.148   3.791  11.152  0.00  0.00    +0.000 OA
BRANCH  12  14
ATOM     14  O   UNL     1      45.683   5.406   9.693  0.00  0.00    +0.000 OA
ATOM     15  H   UNL     1      45.649   6.368   9.537  0.00  0.00    +0.000 HD
ENDBRANCH  12  14
ENDBRANCH   9  12
BRANCH  11  16
ATOM     16  C   UNL     1      46.834   4.066  14.052  0.00  0.00    +0.000 C 
BRANCH  16  17
ATOM     17  C   UNL     1      47.216   3.526  15.446  0.00  0.00    +0.000 C 
ATOM     18  C   UNL     1      47.149   4.448  16.679  0.00  0.00    +0.000 C 
ATOM     19  N   UNL     1      47.394   3.704  17.943  0.00  0.00    +0.000 NA
ATOM     20  C   UNL     1      48.667   2.945  17.815  0.00  0.00    +0.000 C 
ATOM     21  C   UNL     1      48.689   2.063  16.561  0.00  0.00    +0.000 C 
ATOM     22  O   UNL     1      48.494   2.857  15.382  0.00  0.00    +0.000 OA
ATOM     23  H   UNL     1      46.641   3.027  18.078  0.00  0.00    +0.000 HD
ENDBRANCH  16  17
ENDBRANCH  11  16
TORSDOF 4
ENDMDL
MODEL 5
REMARK VINA RESULT:    -6.006      3.454      5.705
REMARK INTER + INTRA:          -7.740
REMARK INTER:                  -7.183
REMARK INTRA:                  -0.557
REMARK UNBOUND:                -0.505
REMARK  Name = 
REMARK  5 active torsions:
REMARK  status: ('A' for Active; 'I' for Inactive)
REMARK    1  A    between atoms: C_1  and  C_2
REMARK    2  A    between atoms: C_9  and  C_10
REMARK    3  A    between atoms: C_10  and  O_12
REMARK    4  A    between atoms: N_14  and  C_15
REMARK    5  A    between atoms: C_15  and  C_16
REMARK                            x       y       z     vdW  Elec       q    Type
REMARK                         _______ _______ _______ _____ _____    ______ ____
ROOT
ATOM      1  C   UNL     1      42.283   5.518  11.762  0.00  0.00    +0.000 C 
ATOM      2  C   UNL     1      43.734   5.273  11.999  0.00  0.00    +0.000 C 
ATOM      3  C   UNL     1      44.172   4.269  13.008  0.00  0.00    +0.000 C 
ATOM      4  N   UNL     1      45.335   4.159  13.568  0.00  0.00    +0.000 NA
ATOM      5  C   UNL     1      46.322   5.060  13.239  0.00  0.00    +0.000 C 
ATOM      6  C   UNL     1      46.026   5.933  12.059  0.00  0.00    +0.000 C 
ATOM      7  C   UNL     1      44.726   5.958  11.411  0.00  0.00    +0.000 C 
ATOM      8  C   UNL     1      46.842   6.970  11.782  0.00  0.00    +0.000 C 
ATOM      9  C   UNL     1      47.771   7.381  12.812  0.00  0.00    +0.000 C 
ATOM     10  C   UNL     1      48.325   6.411  13.564  0.00  0.00    +0.000 C 
ATOM     11  N   UNL     1      47.506   5.331  14.018  0.00  0.00    +0.000 N 
ENDROOT
BRANCH   9  12
ATOM     12  C   UNL     1      47.345   8.508  13.742  0.00  0.00    +0.000 C 
ATOM     13  O   UNL     1      48.061   9.001  14.602  0.00  0.00    +0.000 OA
BRANCH  12  14
ATOM     14  O   UNL     1      46.042   8.863  13.640  0.00  0.00    +0.000 OA
ATOM     15  H   UNL     1      45.397   8.236  14.019  0.00  0.00    +0.000 HD
ENDBRANCH  12  14
ENDBRANCH   9  12
BRANCH  11  16
ATOM     16  C   UNL     1      47.302   5.333  15.515  0.00  0.00    +0.000 C 
BRANCH  16  17
ATOM     17  C   UNL     1      48.080   4.357  16.422  0.00  0.00    +0.000 C 
ATOM     18  C   UNL     1      49.329   4.838  17.187  0.00  0.00    +0.000 C 
ATOM     19  N   UNL     1      49.836   3.804  18.127  0.00  0.00    +0.000 NA
ATOM     20  C   UNL     1      50.028   2.530  17.383  0.00  0.00    +0.000 C 
ATOM     21  C   UNL     1      48.765   2.111  16.622  0.00  0.00    +0.000 C 
ATOM     22  O   UNL     1      48.365   3.138  15.703  0.00  0.00    +0.000 OA
ATOM     23  H   UNL     1      49.131   3.639  18.849  0.00  0.00    +0.000 HD
ENDBRANCH  16  17
ENDBRANCH  11  16
TORSDOF 4
ENDMDL
MODEL 6
REMARK VINA RESULT:    -5.731      2.615      4.858
REMARK INTER + INTRA:          -7.408
REMARK INTER:                  -6.934
REMARK INTRA:                  -0.474
REMARK UNBOUND:                -0.505
REMARK  Name = 
REMARK  5 active torsions:
REMARK  status: ('A' for Active; 'I' for Inactive)
REMARK    1  A    between atoms: C_1  and  C_2
REMARK    2  A    between atoms: C_9  and  C_10
REMARK    3  A    between atoms: C_10  and  O_12
REMARK    4  A    between atoms: N_14  and  C_15
REMARK    5  A    between atoms: C_15  and  C_16
REMARK                            x       y       z     vdW  Elec       q    Type
REMARK                         _______ _______ _______ _____ _____    ______ ____
ROOT
ATOM      1  C   UNL     1      44.849   9.718  10.506  0.00  0.00    +0.000 C 
ATOM      2  C   UNL     1      44.486   8.532  11.332  0.00  0.00    +0.000 C 
ATOM      3  C   UNL     1      45.210   8.249  12.602  0.00  0.00    +0.000 C 
ATOM      4  N   UNL     1      45.260   7.132  13.257  0.00  0.00    +0.000 NA
ATOM      5  C   UNL     1      44.591   6.037  12.762  0.00  0.00    +0.000 C 
ATOM      6  C   UNL     1      43.649   6.318  11.632  0.00  0.00    +0.000 C 
ATOM      7  C   UNL     1      43.571   7.615  10.982  0.00  0.00    +0.000 C 
ATOM      8  C   UNL     1      43.100   5.288  10.957  0.00  0.00    +0.000 C 
ATOM      9  C   UNL     1      43.688   3.979  11.143  0.00  0.00    +0.000 C 
ATOM     10  C   UNL     1      44.132   3.674  12.378  0.00  0.00    +0.000 C 
ATOM     11  N   UNL     1      44.844   4.664  13.124  0.00  0.00    +0.000 N 
ENDROOT
BRANCH   9  12
ATOM     12  C   UNL     1      44.741   3.526  10.142  0.00  0.00    +0.000 C 
ATOM     13  O   UNL     1      45.366   4.280   9.409  0.00  0.00    +0.000 OA
BRANCH  12  14
ATOM     14  O   UNL     1      44.863   2.183  10.019  0.00  0.00    +0.000 OA
ATOM     15  H   UNL     1      45.046   1.850   9.121  0.00  0.00    +0.000 HD
ENDBRANCH  12  14
ENDBRANCH   9  12
BRANCH  11  16
ATOM     16  C   UNL     1      46.299   4.313  13.332  0.00  0.00    +0.000 C 
BRANCH  16  17
ATOM     17  C   UNL     1      46.943   4.405  14.732  0.00  0.00    +0.000 C 
ATOM     18  C   UNL     1      47.817   5.618  15.106  0.00  0.00    +0.000 C 
ATOM     19  N   UNL     1      48.207   5.600  16.541  0.00  0.00    +0.000 NA
ATOM     20  C   UNL     1      48.823   4.283  16.855  0.00  0.00    +0.000 C 
ATOM     21  C   UNL     1      47.923   3.111  16.442  0.00  0.00    +0.000 C 
ATOM     22  O   UNL     1      47.630   3.172  15.039  0.00  0.00    +0.000 OA
ATOM     23  H   UNL     1      47.365   5.694  17.113  0.00  0.00    +0.000 HD
ENDBRANCH  16  17
ENDBRANCH  11  16
TORSDOF 4
ENDMDL
MODEL 7
REMARK VINA RESULT:    -5.593      3.126      6.670
REMARK INTER + INTRA:          -7.243
REMARK INTER:                  -6.827
REMARK INTRA:                  -0.416
REMARK UNBOUND:                -0.505
REMARK  Name = 
REMARK  5 active torsions:
REMARK  status: ('A' for Active; 'I' for Inactive)
REMARK    1  A    between atoms: C_1  and  C_2
REMARK    2  A    between atoms: C_9  and  C_10
REMARK    3  A    between atoms: C_10  and  O_12
REMARK    4  A    between atoms: N_14  and  C_15
REMARK    5  A    between atoms: C_15  and  C_16
REMARK                            x       y       z     vdW  Elec       q    Type
REMARK                         _______ _______ _______ _____ _____    ______ ____
ROOT
ATOM      1  C   UNL     1      50.267   2.523  17.459  0.00  0.00    +0.000 C 
ATOM      2  C   UNL     1      49.234   3.495  17.004  0.00  0.00    +0.000 C 
ATOM      3  C   UNL     1      48.009   3.019  16.304  0.00  0.00    +0.000 C 
ATOM      4  N   UNL     1      47.193   3.708  15.570  0.00  0.00    +0.000 NA
ATOM      5  C   UNL     1      47.445   5.046  15.368  0.00  0.00    +0.000 C 
ATOM      6  C   UNL     1      48.511   5.636  16.238  0.00  0.00    +0.000 C 
ATOM      7  C   UNL     1      49.347   4.828  17.109  0.00  0.00    +0.000 C 
ATOM      8  C   UNL     1      48.961   6.881  15.981  0.00  0.00    +0.000 C 
ATOM      9  C   UNL     1      48.627   7.459  14.697  0.00  0.00    +0.000 C 
ATOM     10  C   UNL     1      47.406   7.184  14.197  0.00  0.00    +0.000 C 
ATOM     11  N   UNL     1      46.896   5.852  14.306  0.00  0.00    +0.000 N 
ENDROOT
BRANCH   9  12
ATOM     12  C   UNL     1      49.638   7.314  13.570  0.00  0.00    +0.000 C 
ATOM     13  O   UNL     1      49.348   7.046  12.412  0.00  0.00    +0.000 OA
BRANCH  12  14
ATOM     14  O   UNL     1      50.933   7.380  13.960  0.00  0.00    +0.000 OA
ATOM     15  H   UNL     1      51.095   7.312  14.920  0.00  0.00    +0.000 HD
ENDBRANCH  12  14
ENDBRANCH   9  12
BRANCH  11  16
ATOM     16  C   UNL     1      46.772   5.157  12.971  0.00  0.00    +0.000 C 
BRANCH  16  17
ATOM     17  C   UNL     1      45.398   4.991  12.288  0.00  0.00    +0.000 C 
ATOM     18  C   UNL     1      45.165   5.543  10.868  0.00  0.00    +0.000 C 
ATOM     19  N   UNL     1      43.840   5.141  10.326  0.00  0.00    +0.000 NA
ATOM     20  C   UNL     1      42.786   5.514  11.308  0.00  0.00    +0.000 C 
ATOM     21  C   UNL     1      43.079   4.959  12.708  0.00  0.00    +0.000 C 
ATOM     22  O   UNL     1      44.349   5.428  13.180  0.00  0.00    +0.000 OA
ATOM     23  H   UNL     1      43.821   4.125  10.221  0.00  0.00    +0.000 HD
ENDBRANCH  16  17
ENDBRANCH  11  16
TORSDOF 4
ENDMDL
MODEL 8
REMARK VINA RESULT:    -5.160      3.753      6.062
REMARK INTER + INTRA:          -6.720
REMARK INTER:                  -6.198
REMARK INTRA:                  -0.522
REMARK UNBOUND:                -0.505
REMARK  Name = 
REMARK  5 active torsions:
REMARK  status: ('A' for Active; 'I' for Inactive)
REMARK    1  A    between atoms: C_1  and  C_2
REMARK    2  A    between atoms: C_9  and  C_10
REMARK    3  A    between atoms: C_10  and  O_12
REMARK    4  A    between atoms: N_14  and  C_15
REMARK    5  A    between atoms: C_15  and  C_16
REMARK                            x       y       z     vdW  Elec       q    Type
REMARK                         _______ _______ _______ _____ _____    ______ ____
ROOT
ATOM      1  C   UNL     1      43.378   5.191  12.406  0.00  0.00    +0.000 C 
ATOM      2  C   UNL     1      44.860   5.281  12.530  0.00  0.00    +0.000 C 
ATOM      3  C   UNL     1      45.564   4.608  13.656  0.00  0.00    +0.000 C 
ATOM      4  N   UNL     1      46.759   4.839  14.101  0.00  0.00    +0.000 NA
ATOM      5  C   UNL     1      47.513   5.823  13.505  0.00  0.00    +0.000 C 
ATOM      6  C   UNL     1      46.964   6.362  12.220  0.00  0.00    +0.000 C 
ATOM      7  C   UNL     1      45.647   6.006  11.721  0.00  0.00    +0.000 C 
ATOM      8  C   UNL     1      47.527   7.456  11.668  0.00  0.00    +0.000 C 
ATOM      9  C   UNL     1      48.416   8.239  12.497  0.00  0.00    +0.000 C 
ATOM     10  C   UNL     1      49.209   7.568  13.355  0.00  0.00    +0.000 C 
ATOM     11  N   UNL     1      48.663   6.468  14.089  0.00  0.00    +0.000 N 
ENDROOT
BRANCH   9  12
ATOM     12  C   UNL     1      47.829   9.431  13.239  0.00  0.00    +0.000 C 
ATOM     13  O   UNL     1      48.465  10.422  13.568  0.00  0.00    +0.000 OA
BRANCH  12  14
ATOM     14  O   UNL     1      46.543   9.272  13.635  0.00  0.00    +0.000 OA
ATOM     15  H   UNL     1      46.207   8.357  13.640  0.00  0.00    +0.000 HD
ENDBRANCH  12  14
ENDBRANCH   9  12
BRANCH  11  16
ATOM     16  C   UNL     1      48.563   6.739  15.571  0.00  0.00    +0.000 C 
BRANCH  16  17
ATOM     17  C   UNL     1      49.451   5.977  16.578  0.00  0.00    +0.000 C 
ATOM     18  C   UNL     1      50.974   6.209  16.600  0.00  0.00    +0.000 C 
ATOM     19  N   UNL     1      51.626   5.513  17.740  0.00  0.00    +0.000 NA
ATOM     20  C   UNL     1      51.226   4.080  17.721  0.00  0.00    +0.000 C 
ATOM     21  C   UNL     1      49.702   3.907  17.676  0.00  0.00    +0.000 C 
ATOM     22  O   UNL     1      49.154   4.565  16.525  0.00  0.00    +0.000 OA
ATOM     23  H   UNL     1      51.284   5.919  18.614  0.00  0.00    +0.000 HD
ENDBRANCH  16  17
ENDBRANCH  11  16
TORSDOF 4
ENDMDL
MODEL 9
REMARK VINA RESULT:    -5.077      2.503      4.837
REMARK INTER + INTRA:          -6.621
REMARK INTER:                  -6.089
REMARK INTRA:                  -0.532
REMARK UNBOUND:                -0.505
REMARK  Name = 
REMARK  5 active torsions:
REMARK  status: ('A' for Active; 'I' for Inactive)
REMARK    1  A    between atoms: C_1  and  C_2
REMARK    2  A    between atoms: C_9  and  C_10
REMARK    3  A    between atoms: C_10  and  O_12
REMARK    4  A    between atoms: N_14  and  C_15
REMARK    5  A    between atoms: C_15  and  C_16
REMARK                            x       y       z     vdW  Elec       q    Type
REMARK                         _______ _______ _______ _____ _____    ______ ____
ROOT
ATOM      1  C   UNL     1      43.634  10.475   9.979  0.00  0.00    +0.000 C 
ATOM      2  C   UNL     1      43.792   9.319  10.906  0.00  0.00    +0.000 C 
ATOM      3  C   UNL     1      44.872   9.319  11.931  0.00  0.00    +0.000 C 
ATOM      4  N   UNL     1      45.356   8.305  12.577  0.00  0.00    +0.000 NA
ATOM      5  C   UNL     1      44.858   7.049  12.317  0.00  0.00    +0.000 C 
ATOM      6  C   UNL     1      43.612   7.012  11.487  0.00  0.00    +0.000 C 
ATOM      7  C   UNL     1      43.061   8.196  10.850  0.00  0.00    +0.000 C 
ATOM      8  C   UNL     1      43.163   5.829  11.020  0.00  0.00    +0.000 C 
ATOM      9  C   UNL     1      44.071   4.705  11.070  0.00  0.00    +0.000 C 
ATOM     10  C   UNL     1      44.885   4.618  12.140  0.00  0.00    +0.000 C 
ATOM     11  N   UNL     1      45.514   5.804  12.632  0.00  0.00    +0.000 N 
ENDROOT
BRANCH   9  12
ATOM     12  C   UNL     1      44.897   4.404   9.829  0.00  0.00    +0.000 C 
ATOM     13  O   UNL     1      45.215   3.280   9.465  0.00  0.00    +0.000 OA
BRANCH  12  14
ATOM     14  O   UNL     1      45.382   5.498   9.194  0.00  0.00    +0.000 OA
ATOM     15  H   UNL     1      46.160   5.353   8.624  0.00  0.00    +0.000 HD
ENDBRANCH  12  14
ENDBRANCH   9  12
BRANCH  11  16
ATOM     16  C   UNL     1      47.012   5.801  12.437  0.00  0.00    +0.000 C 
BRANCH  16  17
ATOM     17  C   UNL     1      47.968   5.890  13.645  0.00  0.00    +0.000 C 
ATOM     18  C   UNL     1      47.560   5.288  15.004  0.00  0.00    +0.000 C 
ATOM     19  N   UNL     1      48.675   5.329  15.987  0.00  0.00    +0.000 NA
ATOM     20  C   UNL     1      49.196   6.721  16.065  0.00  0.00    +0.000 C 
ATOM     21  C   UNL     1      49.564   7.278  14.685  0.00  0.00    +0.000 C 
ATOM     22  O   UNL     1      48.428   7.249  13.810  0.00  0.00    +0.000 OA
ATOM     23  H   UNL     1      49.434   4.733  15.650  0.00  0.00    +0.000 HD
ENDBRANCH  16  17
ENDBRANCH  11  16
TORSDOF 4
ENDMDL
