MODEL 1
REMARK VINA RESULT:    -8.118      0.000      0.000
REMARK INTER + INTRA:         -12.037
REMARK INTER:                 -10.966
REMARK INTRA:                  -1.071
REMARK UNBOUND:                -1.071
REMARK  Name = 
REMARK  7 active torsions:
REMARK  status: ('A' for Active; 'I' for Inactive)
REMARK    1  A    between atoms: C_1  and  C_2
REMARK    2  A    between atoms: C_6  and  C_7
REMARK    3  A    between atoms: N_9  and  C_10
REMARK    4  A    between atoms: C_10  and  C_11
REMARK    5  A    between atoms: C_14  and  C_15
REMARK    6  A    between atoms: C_15  and  N_16
REMARK    7  A    between atoms: C_17  and  C_19
REMARK                            x       y       z     vdW  Elec       q    Type
REMARK                         _______ _______ _______ _____ _____    ______ ____
ROOT
ATOM      1  C   UNL     1      45.313   6.627  11.551  0.00  0.00    +0.000 A 
ATOM      2  C   UNL     1      46.567   6.119  11.920  0.00  0.00    +0.000 A 
ATOM      3  C   UNL     1      47.420   6.843  12.770  0.00  0.00    +0.000 A 
ATOM      4  C   UNL     1      47.033   8.085  13.291  0.00  0.00    +0.000 A 
ATOM      5  C   UNL     1      45.791   8.605  12.902  0.00  0.00    +0.000 A 
ATOM      6  C   UNL     1      44.935   7.879  12.058  0.00  0.00    +0.000 A 
ENDROOT
BRANCH   1   7
ATOM      7  C   UNL     1      44.414   5.859  10.608  0.00  0.00    +0.000 C 
BRANCH   7  10
ATOM      8  C   UNL     1      44.821   3.750   9.374  0.00  0.00    +0.000 C 
ATOM      9  O   UNL     1      43.935   3.136   9.953  0.00  0.00    +0.000 OA
ATOM     10  N   UNL     1      45.134   5.075   9.633  0.00  0.00    +0.000 N 
ATOM     11  H   UNL     1      45.873   5.488   9.073  0.00  0.00    +0.000 HD
BRANCH   8  17
ATOM     12  C   UNL     1      46.771  -0.340   7.635  0.00  0.00    +0.000 C 
ATOM     13  C   UNL     1      46.589   1.139   7.481  0.00  0.00    +0.000 A 
ATOM     14  C   UNL     1      47.168   1.823   6.416  0.00  0.00    +0.000 A 
ATOM     15  C   UNL     1      46.978   3.199   6.315  0.00  0.00    +0.000 A 
ATOM     16  C   UNL     1      46.213   3.852   7.277  0.00  0.00    +0.000 A 
ATOM     17  C   UNL     1      45.665   3.099   8.308  0.00  0.00    +0.000 A 
ATOM     18  N   UNL     1      45.841   1.754   8.430  0.00  0.00    +0.000 NA
ENDBRANCH   8  17
ENDBRANCH   7  10
ENDBRANCH   1   7
BRANCH   4  19
ATOM     19  C   UNL     1      47.925   8.830  14.258  0.00  0.00    +0.000 C 
BRANCH  19  20
ATOM     20  N   UNL     1      48.239   8.054  15.433  0.00  0.00    +0.000 N 
ATOM     21  C   UNL     1      49.484   7.499  15.615  0.00  0.00    +0.000 C 
ATOM     22  O   UNL     1      50.406   7.681  14.825  0.00  0.00    +0.000 OA
ATOM     23  H   UNL     1      47.455   7.699  15.969  0.00  0.00    +0.000 HD
BRANCH  21  24
ATOM     24  C   UNL     1      49.676   6.716  16.844  0.00  0.00    +0.000 A 
ATOM     25  C   UNL     1      50.533   7.172  17.838  0.00  0.00    +0.000 A 
ATOM     26  S   UNL     1      50.606   6.145  19.200  0.00  0.00    +0.000 S 
ATOM     27  C   UNL     1      49.528   5.036  18.492  0.00  0.00    +0.000 A 
ATOM     28  N   UNL     1      49.176   3.890  19.136  0.00  0.00    +0.000 NA
ATOM     29  C   UNL     1      48.361   3.136  18.474  0.00  0.00    +0.000 A 
ATOM     30  N   UNL     1      47.863   3.426  17.233  0.00  0.00    +0.000 N 
ATOM     31  C   UNL     1      48.174   4.580  16.553  0.00  0.00    +0.000 A 
ATOM     32  O   UNL     1      47.675   4.828  15.462  0.00  0.00    +0.000 OA
ATOM     33  C   UNL     1      49.098   5.457  17.246  0.00  0.00    +0.000 A 
ATOM     34  H   UNL     1      47.213   2.806  16.774  0.00  0.00    +0.000 HD
ENDBRANCH  21  24
ENDBRANCH  19  20
ENDBRANCH   4  19
TORSDOF 6
ENDMDL
MODEL 2
REMARK VINA RESULT:    -7.743      2.028      2.287
REMARK INTER + INTRA:         -11.530
REMARK INTER:                 -10.740
REMARK INTRA:                  -0.791
REMARK UNBOUND:                -1.071
REMARK  Name = 
REMARK  7 active torsions:
REMARK  status: ('A' for Active; 'I' for Inactive)
REMARK    1  A    between atoms: C_1  and  C_2
REMARK    2  A    between atoms: C_6  and  C_7
REMARK    3  A    between atoms: N_9  and  C_10
REMARK    4  A    between atoms: C_10  and  C_11
REMARK    5  A    between atoms: C_14  and  C_15
REMARK    6  A    between atoms: C_15  and  N_16
REMARK    7  A    between atoms: C_17  and  C_19
REMARK                            x       y       z     vdW  Elec       q    Type
REMARK                         _______ _______ _______ _____ _____    ______ ____
ROOT
ATOM      1  C   UNL     1      45.264   6.399  11.903  0.00  0.00    +0.000 A 
ATOM      2  C   UNL     1      45.090   7.787  11.814  0.00  0.00    +0.000 A 
ATOM      3  C   UNL     1      45.877   8.666  12.576  0.00  0.00    +0.000 A 
ATOM      4  C   UNL     1      46.875   8.182  13.432  0.00  0.00    +0.000 A 
ATOM      5  C   UNL     1      47.033   6.793  13.542  0.00  0.00    +0.000 A 
ATOM      6  C   UNL     1      46.250   5.914  12.775  0.00  0.00    +0.000 A 
ENDROOT
BRANCH   1   7
ATOM      7  C   UNL     1      44.390   5.456  11.106  0.00  0.00    +0.000 C 
BRANCH   7  10
ATOM      8  C   UNL     1      44.711   3.505   9.614  0.00  0.00    +0.000 C 
ATOM      9  O   UNL     1      43.767   2.881  10.078  0.00  0.00    +0.000 OA
ATOM     10  N   UNL     1      45.097   4.760  10.057  0.00  0.00    +0.000 N 
ATOM     11  H   UNL     1      45.882   5.193   9.580  0.00  0.00    +0.000 HD
BRANCH   8  17
ATOM     12  C   UNL     1      46.781  -0.406   7.621  0.00  0.00    +0.000 C 
ATOM     13  C   UNL     1      46.535   1.070   7.548  0.00  0.00    +0.000 A 
ATOM     14  C   UNL     1      47.059   1.831   6.505  0.00  0.00    +0.000 A 
ATOM     15  C   UNL     1      46.810   3.201   6.481  0.00  0.00    +0.000 A 
ATOM     16  C   UNL     1      46.044   3.772   7.492  0.00  0.00    +0.000 A 
ATOM     17  C   UNL     1      45.553   2.946   8.496  0.00  0.00    +0.000 A 
ATOM     18  N   UNL     1      45.787   1.604   8.544  0.00  0.00    +0.000 NA
ENDBRANCH   8  17
ENDBRANCH   7  10
ENDBRANCH   1   7
BRANCH   4  19
ATOM     19  C   UNL     1      47.764   9.133  14.200  0.00  0.00    +0.000 C 
BRANCH  19  20
ATOM     20  N   UNL     1      47.521   9.093  15.622  0.00  0.00    +0.000 N 
ATOM     21  C   UNL     1      48.550   8.936  16.521  0.00  0.00    +0.000 C 
ATOM     22  O   UNL     1      49.726   8.881  16.171  0.00  0.00    +0.000 OA
ATOM     23  H   UNL     1      46.570   8.903  15.918  0.00  0.00    +0.000 HD
BRANCH  21  24
ATOM     24  C   UNL     1      48.173   8.892  17.941  0.00  0.00    +0.000 A 
ATOM     25  C   UNL     1      48.028  10.070  18.663  0.00  0.00    +0.000 A 
ATOM     26  S   UNL     1      47.562   9.823  20.287  0.00  0.00    +0.000 S 
ATOM     27  C   UNL     1      47.578   8.133  20.093  0.00  0.00    +0.000 A 
ATOM     28  N   UNL     1      47.289   7.304  21.133  0.00  0.00    +0.000 NA
ATOM     29  C   UNL     1      47.353   6.046  20.844  0.00  0.00    +0.000 A 
ATOM     30  N   UNL     1      47.674   5.543  19.613  0.00  0.00    +0.000 N 
ATOM     31  C   UNL     1      47.952   6.340  18.529  0.00  0.00    +0.000 A 
ATOM     32  O   UNL     1      48.192   5.857  17.428  0.00  0.00    +0.000 OA
ATOM     33  C   UNL     1      47.909   7.764  18.801  0.00  0.00    +0.000 A 
ATOM     34  H   UNL     1      47.687   4.549  19.443  0.00  0.00    +0.000 HD
ENDBRANCH  21  24
ENDBRANCH  19  20
ENDBRANCH   4  19
TORSDOF 6
ENDMDL
MODEL 3
REMARK VINA RESULT:    -7.357      1.850      2.600
REMARK INTER + INTRA:         -11.008
REMARK INTER:                 -10.112
REMARK INTRA:                  -0.896
REMARK UNBOUND:                -1.071
REMARK  Name = 
REMARK  7 active torsions:
REMARK  status: ('A' for Active; 'I' for Inactive)
REMARK    1  A    between atoms: C_1  and  C_2
REMARK    2  A    between atoms: C_6  and  C_7
REMARK    3  A    between atoms: N_9  and  C_10
REMARK    4  A    between atoms: C_10  and  C_11
REMARK    5  A    between atoms: C_14  and  C_15
REMARK    6  A    between atoms: C_15  and  N_16
REMARK    7  A    between atoms: C_17  and  C_19
REMARK                            x       y       z     vdW  Elec       q    Type
REMARK                         _______ _______ _______ _____ _____    ______ ____
ROOT
ATOM      1  C   UNL     1      44.925   4.880  12.122  0.00  0.00    +0.000 A 
ATOM      2  C   UNL     1      44.341   6.123  11.836  0.00  0.00    +0.000 A 
ATOM      3  C   UNL     1      44.949   7.320  12.249  0.00  0.00    +0.000 A 
ATOM      4  C   UNL     1      46.168   7.308  12.940  0.00  0.00    +0.000 A 
ATOM      5  C   UNL     1      46.739   6.066  13.249  0.00  0.00    +0.000 A 
ATOM      6  C   UNL     1      46.135   4.869  12.831  0.00  0.00    +0.000 A 
ENDROOT
BRANCH   1   7
ATOM      7  C   UNL     1      44.248   3.593  11.706  0.00  0.00    +0.000 C 
BRANCH   7  10
ATOM      8  C   UNL     1      44.838   3.284   9.320  0.00  0.00    +0.000 C 
ATOM      9  O   UNL     1      44.157   4.226   8.937  0.00  0.00    +0.000 OA
ATOM     10  N   UNL     1      44.936   2.894  10.646  0.00  0.00    +0.000 N 
ATOM     11  H   UNL     1      45.551   2.112  10.849  0.00  0.00    +0.000 HD
BRANCH   8  17
ATOM     12  C   UNL     1      47.389   3.128   5.194  0.00  0.00    +0.000 C 
ATOM     13  C   UNL     1      46.865   2.386   6.386  0.00  0.00    +0.000 A 
ATOM     14  C   UNL     1      47.130   1.029   6.556  0.00  0.00    +0.000 A 
ATOM     15  C   UNL     1      46.617   0.378   7.676  0.00  0.00    +0.000 A 
ATOM     16  C   UNL     1      45.860   1.098   8.594  0.00  0.00    +0.000 A 
ATOM     17  C   UNL     1      45.643   2.450   8.357  0.00  0.00    +0.000 A 
ATOM     18  N   UNL     1      46.130   3.108   7.266  0.00  0.00    +0.000 NA
ENDBRANCH   8  17
ENDBRANCH   7  10
ENDBRANCH   1   7
BRANCH   4  19
ATOM     19  C   UNL     1      46.851   8.601  13.324  0.00  0.00    +0.000 C 
BRANCH  19  20
ATOM     20  N   UNL     1      47.152   8.672  14.732  0.00  0.00    +0.000 N 
ATOM     21  C   UNL     1      48.442   8.825  15.184  0.00  0.00    +0.000 C 
ATOM     22  O   UNL     1      49.393   8.969  14.420  0.00  0.00    +0.000 OA
ATOM     23  H   UNL     1      46.442   8.328  15.370  0.00  0.00    +0.000 HD
BRANCH  21  24
ATOM     24  C   UNL     1      48.622   8.865  16.642  0.00  0.00    +0.000 A 
ATOM     25  C   UNL     1      48.329  10.023  17.352  0.00  0.00    +0.000 A 
ATOM     26  S   UNL     1      48.574   9.873  19.035  0.00  0.00    +0.000 S 
ATOM     27  C   UNL     1      49.119   8.270  18.870  0.00  0.00    +0.000 A 
ATOM     28  N   UNL     1      49.521   7.550  19.952  0.00  0.00    +0.000 NA
ATOM     29  C   UNL     1      49.922   6.353  19.675  0.00  0.00    +0.000 A 
ATOM     30  N   UNL     1      49.952   5.810  18.419  0.00  0.00    +0.000 N 
ATOM     31  C   UNL     1      49.537   6.491  17.300  0.00  0.00    +0.000 A 
ATOM     32  O   UNL     1      49.536   5.960  16.196  0.00  0.00    +0.000 OA
ATOM     33  C   UNL     1      49.089   7.848  17.552  0.00  0.00    +0.000 A 
ATOM     34  H   UNL     1      50.258   4.861  18.269  0.00  0.00    +0.000 HD
ENDBRANCH  21  24
ENDBRANCH  19  20
ENDBRANCH   4  19
TORSDOF 6
ENDMDL
MODEL 4
REMARK VINA RESULT:    -6.953      2.003      2.531
REMARK INTER + INTRA:         -10.463
REMARK INTER:                  -9.692
REMARK INTRA:                  -0.772
REMARK UNBOUND:                -1.071
REMARK  Name = 
REMARK  7 active torsions:
REMARK  status: ('A' for Active; 'I' for Inactive)
REMARK    1  A    between atoms: C_1  and  C_2
REMARK    2  A    between atoms: C_6  and  C_7
REMARK    3  A    between atoms: N_9  and  C_10
REMARK    4  A    between atoms: C_10  and  C_11
REMARK    5  A    between atoms: C_14  and  C_15
REMARK    6  A    between atoms: C_15  and  N_16
REMARK    7  A    between atoms: C_17  and  C_19
REMARK                            x       y       z     vdW  Elec       q    Type
REMARK                         _______ _______ _______ _____ _____    ______ ____
ROOT
ATOM      1  C   UNL     1      45.361   4.792  12.092  0.00  0.00    +0.000 A 
ATOM      2  C   UNL     1      45.299   6.178  11.891  0.00  0.00    +0.000 A 
ATOM      3  C   UNL     1      46.149   7.050  12.591  0.00  0.00    +0.000 A 
ATOM      4  C   UNL     1      47.100   6.558  13.494  0.00  0.00    +0.000 A 
ATOM      5  C   UNL     1      47.146   5.175  13.715  0.00  0.00    +0.000 A 
ATOM      6  C   UNL     1      46.300   4.302  13.010  0.00  0.00    +0.000 A 
ENDROOT
BRANCH   1   7
ATOM      7  C   UNL     1      44.419   3.861  11.362  0.00  0.00    +0.000 C 
BRANCH   7  10
ATOM      8  C   UNL     1      45.325   3.871   9.056  0.00  0.00    +0.000 C 
ATOM      9  O   UNL     1      45.094   5.059   8.875  0.00  0.00    +0.000 OA
ATOM     10  N   UNL     1      45.023   3.199  10.229  0.00  0.00    +0.000 N 
ATOM     11  H   UNL     1      45.283   2.218  10.275  0.00  0.00    +0.000 HD
BRANCH   8  17
ATOM     12  C   UNL     1      46.755  -0.555   7.669  0.00  0.00    +0.000 C 
ATOM     13  C   UNL     1      46.648   0.902   7.335  0.00  0.00    +0.000 A 
ATOM     14  C   UNL     1      47.119   1.393   6.120  0.00  0.00    +0.000 A 
ATOM     15  C   UNL     1      47.004   2.755   5.854  0.00  0.00    +0.000 A 
ATOM     16  C   UNL     1      46.421   3.587   6.805  0.00  0.00    +0.000 A 
ATOM     17  C   UNL     1      45.972   3.021   7.992  0.00  0.00    +0.000 A 
ATOM     18  N   UNL     1      46.078   1.693   8.277  0.00  0.00    +0.000 NA
ENDBRANCH   8  17
ENDBRANCH   7  10
ENDBRANCH   1   7
BRANCH   4  19
ATOM     19  C   UNL     1      48.058   7.495  14.195  0.00  0.00    +0.000 C 
BRANCH  19  20
ATOM     20  N   UNL     1      48.236   7.165  15.588  0.00  0.00    +0.000 N 
ATOM     21  C   UNL     1      49.486   6.951  16.121  0.00  0.00    +0.000 C 
ATOM     22  O   UNL     1      50.513   7.087  15.461  0.00  0.00    +0.000 OA
ATOM     23  H   UNL     1      47.421   6.823  16.085  0.00  0.00    +0.000 HD
BRANCH  21  24
ATOM     24  C   UNL     1      49.535   6.604  17.548  0.00  0.00    +0.000 A 
ATOM     25  C   UNL     1      50.245   5.487  17.973  0.00  0.00    +0.000 A 
ATOM     26  S   UNL     1      50.211   5.259  19.664  0.00  0.00    +0.000 S 
ATOM     27  C   UNL     1      49.215   6.620  19.885  0.00  0.00    +0.000 A 
ATOM     28  N   UNL     1      48.783   6.981  21.123  0.00  0.00    +0.000 NA
ATOM     29  C   UNL     1      48.023   8.026  21.139  0.00  0.00    +0.000 A 
ATOM     30  N   UNL     1      47.660   8.743  20.031  0.00  0.00    +0.000 N 
ATOM     31  C   UNL     1      48.087   8.429  18.764  0.00  0.00    +0.000 A 
ATOM     32  O   UNL     1      47.778   9.119  17.799  0.00  0.00    +0.000 OA
ATOM     33  C   UNL     1      48.934   7.254  18.687  0.00  0.00    +0.000 A 
ATOM     34  H   UNL     1      47.078   9.564  20.109  0.00  0.00    +0.000 HD
ENDBRANCH  21  24
ENDBRANCH  19  20
ENDBRANCH   4  19
TORSDOF 6
ENDMDL
MODEL 5
REMARK VINA RESULT:    -6.935      4.160      9.073
REMARK INTER + INTRA:         -10.439
REMARK INTER:                  -9.461
REMARK INTRA:                  -0.978
REMARK UNBOUND:                -1.071
REMARK  Name = 
REMARK  7 active torsions:
REMARK  status: ('A' for Active; 'I' for Inactive)
REMARK    1  A    between atoms: C_1  and  C_2
REMARK    2  A    between atoms: C_6  and  C_7
REMARK    3  A    between atoms: N_9  and  C_10
REMARK    4  A    between atoms: C_10  and  C_11
REMARK    5  A    between atoms: C_14  and  C_15
REMARK    6  A    between atoms: C_15  and  N_16
REMARK    7  A    between atoms: C_17  and  C_19
REMARK                            x       y       z     vdW  Elec       q    Type
REMARK                         _______ _______ _______ _____ _____    ______ ____
ROOT
ATOM      1  C   UNL     1      49.133   4.710  17.409  0.00  0.00    +0.000 A 
ATOM      2  C   UNL     1      48.029   4.275  16.661  0.00  0.00    +0.000 A 
ATOM      3  C   UNL     1      47.610   4.973  15.517  0.00  0.00    +0.000 A 
ATOM      4  C   UNL     1      48.296   6.112  15.076  0.00  0.00    +0.000 A 
ATOM      5  C   UNL     1      49.384   6.562  15.837  0.00  0.00    +0.000 A 
ATOM      6  C   UNL     1      49.807   5.861  16.978  0.00  0.00    +0.000 A 
ENDROOT
BRANCH   1   7
ATOM      7  C   UNL     1      49.558   3.974  18.660  0.00  0.00    +0.000 C 
BRANCH   7  10
ATOM      8  C   UNL     1      51.187   2.314  17.807  0.00  0.00    +0.000 C 
ATOM      9  O   UNL     1      50.356   1.705  17.146  0.00  0.00    +0.000 OA
ATOM     10  N   UNL     1      50.891   3.423  18.583  0.00  0.00    +0.000 N 
ATOM     11  H   UNL     1      51.666   3.861  19.070  0.00  0.00    +0.000 HD
BRANCH   8  17
ATOM     12  C   UNL     1      54.398  -1.261  18.489  0.00  0.00    +0.000 C 
ATOM     13  C   UNL     1      54.162   0.181  18.155  0.00  0.00    +0.000 A 
ATOM     14  C   UNL     1      55.229   1.036  17.889  0.00  0.00    +0.000 A 
ATOM     15  C   UNL     1      54.964   2.370  17.589  0.00  0.00    +0.000 A 
ATOM     16  C   UNL     1      53.645   2.811  17.559  0.00  0.00    +0.000 A 
ATOM     17  C   UNL     1      52.635   1.896  17.832  0.00  0.00    +0.000 A 
ATOM     18  N   UNL     1      52.870   0.588  18.133  0.00  0.00    +0.000 NA
ENDBRANCH   8  17
ENDBRANCH   7  10
ENDBRANCH   1   7
BRANCH   4  19
ATOM     19  C   UNL     1      47.883   6.822  13.807  0.00  0.00    +0.000 C 
BRANCH  19  20
ATOM     20  N   UNL     1      47.207   5.949  12.879  0.00  0.00    +0.000 N 
ATOM     21  C   UNL     1      46.368   6.445  11.908  0.00  0.00    +0.000 C 
ATOM     22  O   UNL     1      46.197   7.650  11.741  0.00  0.00    +0.000 OA
ATOM     23  H   UNL     1      47.144   4.970  13.135  0.00  0.00    +0.000 HD
BRANCH  21  24
ATOM     24  C   UNL     1      45.724   5.454  11.035  0.00  0.00    +0.000 A 
ATOM     25  C   UNL     1      45.836   5.560   9.653  0.00  0.00    +0.000 A 
ATOM     26  S   UNL     1      45.046   4.306   8.806  0.00  0.00    +0.000 S 
ATOM     27  C   UNL     1      44.492   3.602  10.251  0.00  0.00    +0.000 A 
ATOM     28  N   UNL     1      43.716   2.484  10.236  0.00  0.00    +0.000 NA
ATOM     29  C   UNL     1      43.358   2.068  11.406  0.00  0.00    +0.000 A 
ATOM     30  N   UNL     1      43.709   2.663  12.587  0.00  0.00    +0.000 N 
ATOM     31  C   UNL     1      44.507   3.780  12.654  0.00  0.00    +0.000 A 
ATOM     32  O   UNL     1      44.838   4.262  13.731  0.00  0.00    +0.000 OA
ATOM     33  C   UNL     1      44.926   4.299  11.366  0.00  0.00    +0.000 A 
ATOM     34  H   UNL     1      43.414   2.279  13.472  0.00  0.00    +0.000 HD
ENDBRANCH  21  24
ENDBRANCH  19  20
ENDBRANCH   4  19
TORSDOF 6
ENDMDL
MODEL 6
REMARK VINA RESULT:    -6.743      1.871      2.556
REMARK INTER + INTRA:         -10.179
REMARK INTER:                  -9.399
REMARK INTRA:                  -0.780
REMARK UNBOUND:                -1.071
REMARK  Name = 
REMARK  7 active torsions:
REMARK  status: ('A' for Active; 'I' for Inactive)
REMARK    1  A    between atoms: C_1  and  C_2
REMARK    2  A    between atoms: C_6  and  C_7
REMARK    3  A    between atoms: N_9  and  C_10
REMARK    4  A    between atoms: C_10  and  C_11
REMARK    5  A    between atoms: C_14  and  C_15
REMARK    6  A    between atoms: C_15  and  N_16
REMARK    7  A    between atoms: C_17  and  C_19
REMARK                            x       y       z     vdW  Elec       q    Type
REMARK                         _______ _______ _______ _____ _____    ______ ____
ROOT
ATOM      1  C   UNL     1      45.007   4.971  11.897  0.00  0.00    +0.000 A 
ATOM      2  C   UNL     1      45.890   4.331  12.779  0.00  0.00    +0.000 A 
ATOM      3  C   UNL     1      46.819   5.066  13.533  0.00  0.00    +0.000 A 
ATOM      4  C   UNL     1      46.877   6.462  13.442  0.00  0.00    +0.000 A 
ATOM      5  C   UNL     1      46.013   7.101  12.542  0.00  0.00    +0.000 A 
ATOM      6  C   UNL     1      45.079   6.367  11.792  0.00  0.00    +0.000 A 
ENDROOT
BRANCH   1   7
ATOM      7  C   UNL     1      44.032   4.171  11.062  0.00  0.00    +0.000 C 
BRANCH   7  10
ATOM      8  C   UNL     1      45.293   3.729   8.975  0.00  0.00    +0.000 C 
ATOM      9  O   UNL     1      45.339   4.907   8.648  0.00  0.00    +0.000 OA
ATOM     10  N   UNL     1      44.671   3.274  10.127  0.00  0.00    +0.000 N 
ATOM     11  H   UNL     1      44.718   2.277  10.309  0.00  0.00    +0.000 HD
BRANCH   8  17
ATOM     12  C   UNL     1      47.813   2.616   4.980  0.00  0.00    +0.000 C 
ATOM     13  C   UNL     1      47.133   2.129   6.223  0.00  0.00    +0.000 A 
ATOM     14  C   UNL     1      47.114   0.773   6.542  0.00  0.00    +0.000 A 
ATOM     15  C   UNL     1      46.465   0.364   7.704  0.00  0.00    +0.000 A 
ATOM     16  C   UNL     1      45.858   1.317   8.517  0.00  0.00    +0.000 A 
ATOM     17  C   UNL     1      45.925   2.651   8.133  0.00  0.00    +0.000 A 
ATOM     18  N   UNL     1      46.549   3.075   6.998  0.00  0.00    +0.000 NA
ENDBRANCH   8  17
ENDBRANCH   7  10
ENDBRANCH   1   7
BRANCH   4  19
ATOM     19  C   UNL     1      47.833   7.255  14.304  0.00  0.00    +0.000 C 
BRANCH  19  20
ATOM     20  N   UNL     1      48.352   6.486  15.409  0.00  0.00    +0.000 N 
ATOM     21  C   UNL     1      48.745   7.088  16.581  0.00  0.00    +0.000 C 
ATOM     22  O   UNL     1      48.622   8.295  16.773  0.00  0.00    +0.000 OA
ATOM     23  H   UNL     1      48.677   5.548  15.200  0.00  0.00    +0.000 HD
BRANCH  21  24
ATOM     24  C   UNL     1      49.273   6.199  17.625  0.00  0.00    +0.000 A 
ATOM     25  C   UNL     1      48.440   5.732  18.635  0.00  0.00    +0.000 A 
ATOM     26  S   UNL     1      49.223   4.692  19.740  0.00  0.00    +0.000 S 
ATOM     27  C   UNL     1      50.711   4.862  18.933  0.00  0.00    +0.000 A 
ATOM     28  N   UNL     1      51.831   4.238  19.387  0.00  0.00    +0.000 NA
ATOM     29  C   UNL     1      52.890   4.467  18.683  0.00  0.00    +0.000 A 
ATOM     30  N   UNL     1      52.930   5.259  17.568  0.00  0.00    +0.000 N 
ATOM     31  C   UNL     1      51.822   5.892  17.060  0.00  0.00    +0.000 A 
ATOM     32  O   UNL     1      51.884   6.558  16.033  0.00  0.00    +0.000 OA
ATOM     33  C   UNL     1      50.605   5.680  17.821  0.00  0.00    +0.000 A 
ATOM     34  H   UNL     1      53.786   5.384  17.048  0.00  0.00    +0.000 HD
ENDBRANCH  21  24
ENDBRANCH  19  20
ENDBRANCH   4  19
TORSDOF 6
ENDMDL
MODEL 7
REMARK VINA RESULT:    -6.614      2.727      3.292
REMARK INTER + INTRA:         -10.006
REMARK INTER:                  -9.117
REMARK INTRA:                  -0.889
REMARK UNBOUND:                -1.071
REMARK  Name = 
REMARK  7 active torsions:
REMARK  status: ('A' for Active; 'I' for Inactive)
REMARK    1  A    between atoms: C_1  and  C_2
REMARK    2  A    between atoms: C_6  and  C_7
REMARK    3  A    between atoms: N_9  and  C_10
REMARK    4  A    between atoms: C_10  and  C_11
REMARK    5  A    between atoms: C_14  and  C_15
REMARK    6  A    between atoms: C_15  and  N_16
REMARK    7  A    between atoms: C_17  and  C_19
REMARK                            x       y       z     vdW  Elec       q    Type
REMARK                         _______ _______ _______ _____ _____    ______ ____
ROOT
ATOM      1  C   UNL     1      44.487   4.719  11.958  0.00  0.00    +0.000 A 
ATOM      2  C   UNL     1      43.798   5.931  11.813  0.00  0.00    +0.000 A 
ATOM      3  C   UNL     1      44.348   7.137  12.277  0.00  0.00    +0.000 A 
ATOM      4  C   UNL     1      45.614   7.167  12.878  0.00  0.00    +0.000 A 
ATOM      5  C   UNL     1      46.293   5.952  13.047  0.00  0.00    +0.000 A 
ATOM      6  C   UNL     1      45.745   4.747  12.577  0.00  0.00    +0.000 A 
ENDROOT
BRANCH   1   7
ATOM      7  C   UNL     1      43.874   3.418  11.488  0.00  0.00    +0.000 C 
BRANCH   7  10
ATOM      8  C   UNL     1      44.757   3.241   9.180  0.00  0.00    +0.000 C 
ATOM      9  O   UNL     1      44.201   4.260   8.793  0.00  0.00    +0.000 OA
ATOM     10  N   UNL     1      44.648   2.747  10.470  0.00  0.00    +0.000 N 
ATOM     11  H   UNL     1      45.174   1.906  10.685  0.00  0.00    +0.000 HD
BRANCH   8  17
ATOM     12  C   UNL     1      47.423   3.088   5.128  0.00  0.00    +0.000 C 
ATOM     13  C   UNL     1      46.901   2.356   6.326  0.00  0.00    +0.000 A 
ATOM     14  C   UNL     1      47.223   1.018   6.543  0.00  0.00    +0.000 A 
ATOM     15  C   UNL     1      46.711   0.376   7.667  0.00  0.00    +0.000 A 
ATOM     16  C   UNL     1      45.897   1.085   8.545  0.00  0.00    +0.000 A 
ATOM     17  C   UNL     1      45.625   2.419   8.263  0.00  0.00    +0.000 A 
ATOM     18  N   UNL     1      46.110   3.067   7.167  0.00  0.00    +0.000 NA
ENDBRANCH   8  17
ENDBRANCH   7  10
ENDBRANCH   1   7
BRANCH   4  19
ATOM     19  C   UNL     1      46.232   8.475  13.316  0.00  0.00    +0.000 C 
BRANCH  19  20
ATOM     20  N   UNL     1      47.408   8.288  14.129  0.00  0.00    +0.000 N 
ATOM     21  C   UNL     1      48.623   8.821  13.768  0.00  0.00    +0.000 C 
ATOM     22  O   UNL     1      48.760   9.529  12.773  0.00  0.00    +0.000 OA
ATOM     23  H   UNL     1      47.380   7.535  14.808  0.00  0.00    +0.000 HD
BRANCH  21  24
ATOM     24  C   UNL     1      49.750   8.546  14.669  0.00  0.00    +0.000 A 
ATOM     25  C   UNL     1      50.970   8.120  14.155  0.00  0.00    +0.000 A 
ATOM     26  S   UNL     1      52.166   7.877  15.349  0.00  0.00    +0.000 S 
ATOM     27  C   UNL     1      51.086   8.293  16.596  0.00  0.00    +0.000 A 
ATOM     28  N   UNL     1      51.476   8.266  17.900  0.00  0.00    +0.000 NA
ATOM     29  C   UNL     1      50.548   8.592  18.739  0.00  0.00    +0.000 A 
ATOM     30  N   UNL     1      49.272   8.946  18.393  0.00  0.00    +0.000 N 
ATOM     31  C   UNL     1      48.840   9.008  17.090  0.00  0.00    +0.000 A 
ATOM     32  O   UNL     1      47.703   9.372  16.814  0.00  0.00    +0.000 OA
ATOM     33  C   UNL     1      49.839   8.637  16.106  0.00  0.00    +0.000 A 
ATOM     34  H   UNL     1      48.597   9.211  19.095  0.00  0.00    +0.000 HD
ENDBRANCH  21  24
ENDBRANCH  19  20
ENDBRANCH   4  19
TORSDOF 6
ENDMDL
MODEL 8
REMARK VINA RESULT:    -6.458      3.289      4.350
REMARK INTER + INTRA:          -9.795
REMARK INTER:                  -8.939
REMARK INTRA:                  -0.856
REMARK UNBOUND:                -1.071
REMARK  Name = 
REMARK  7 active torsions:
REMARK  status: ('A' for Active; 'I' for Inactive)
REMARK    1  A    between atoms: C_1  and  C_2
REMARK    2  A    between atoms: C_6  and  C_7
REMARK    3  A    between atoms: N_9  and  C_10
REMARK    4  A    between atoms: C_10  and  C_11
REMARK    5  A    between atoms: C_14  and  C_15
REMARK    6  A    between atoms: C_15  and  N_16
REMARK    7  A    between atoms: C_17  and  C_19
REMARK                            x       y       z     vdW  Elec       q    Type
REMARK                         _______ _______ _______ _____ _____    ______ ____
ROOT
ATOM      1  C   UNL     1      44.995   4.762  12.259  0.00  0.00    +0.000 A 
ATOM      2  C   UNL     1      44.276   5.952  12.077  0.00  0.00    +0.000 A 
ATOM      3  C   UNL     1      44.813   7.190  12.467  0.00  0.00    +0.000 A 
ATOM      4  C   UNL     1      46.094   7.274  13.029  0.00  0.00    +0.000 A 
ATOM      5  C   UNL     1      46.803   6.082  13.236  0.00  0.00    +0.000 A 
ATOM      6  C   UNL     1      46.268   4.845  12.840  0.00  0.00    +0.000 A 
ENDROOT
BRANCH   1   7
ATOM      7  C   UNL     1      44.397   3.429  11.869  0.00  0.00    +0.000 C 
BRANCH   7  10
ATOM      8  C   UNL     1      44.858   3.210   9.445  0.00  0.00    +0.000 C 
ATOM      9  O   UNL     1      44.095   4.112   9.127  0.00  0.00    +0.000 OA
ATOM     10  N   UNL     1      45.062   2.800  10.753  0.00  0.00    +0.000 N 
ATOM     11  H   UNL     1      45.738   2.056  10.899  0.00  0.00    +0.000 HD
BRANCH   8  17
ATOM     12  C   UNL     1      47.254   3.338   5.227  0.00  0.00    +0.000 C 
ATOM     13  C   UNL     1      46.803   2.523   6.401  0.00  0.00    +0.000 A 
ATOM     14  C   UNL     1      47.123   1.171   6.498  0.00  0.00    +0.000 A 
ATOM     15  C   UNL     1      46.678   0.451   7.603  0.00  0.00    +0.000 A 
ATOM     16  C   UNL     1      45.931   1.100   8.582  0.00  0.00    +0.000 A 
ATOM     17  C   UNL     1      45.656   2.452   8.416  0.00  0.00    +0.000 A 
ATOM     18  N   UNL     1      46.076   3.176   7.340  0.00  0.00    +0.000 NA
ENDBRANCH   8  17
ENDBRANCH   7  10
ENDBRANCH   1   7
BRANCH   4  19
ATOM     19  C   UNL     1      46.695   8.614  13.386  0.00  0.00    +0.000 C 
BRANCH  19  20
ATOM     20  N   UNL     1      48.069   8.509  13.815  0.00  0.00    +0.000 N 
ATOM     21  C   UNL     1      49.041   9.347  13.320  0.00  0.00    +0.000 C 
ATOM     22  O   UNL     1      48.786  10.260  12.540  0.00  0.00    +0.000 OA
ATOM     23  H   UNL     1      48.343   7.641  14.262  0.00  0.00    +0.000 HD
BRANCH  21  24
ATOM     24  C   UNL     1      50.405   9.129  13.820  0.00  0.00    +0.000 A 
ATOM     25  C   UNL     1      50.728   9.442  15.135  0.00  0.00    +0.000 A 
ATOM     26  S   UNL     1      52.350   9.096  15.541  0.00  0.00    +0.000 S 
ATOM     27  C   UNL     1      52.689   8.555  13.964  0.00  0.00    +0.000 A 
ATOM     28  N   UNL     1      53.935   8.130  13.620  0.00  0.00    +0.000 NA
ATOM     29  C   UNL     1      54.049   7.760  12.387  0.00  0.00    +0.000 A 
ATOM     30  N   UNL     1      53.033   7.773  11.471  0.00  0.00    +0.000 N 
ATOM     31  C   UNL     1      51.755   8.173  11.777  0.00  0.00    +0.000 A 
ATOM     32  O   UNL     1      50.858   8.130  10.943  0.00  0.00    +0.000 OA
ATOM     33  C   UNL     1      51.573   8.613  13.147  0.00  0.00    +0.000 A 
ATOM     34  H   UNL     1      53.180   7.453  10.525  0.00  0.00    +0.000 HD
ENDBRANCH  21  24
ENDBRANCH  19  20
ENDBRANCH   4  19
TORSDOF 6
ENDMDL
MODEL 9
REMARK VINA RESULT:    -6.168      5.838      8.081
REMARK INTER + INTRA:          -9.403
REMARK INTER:                  -8.482
REMARK INTRA:                  -0.921
REMARK UNBOUND:                -1.071
REMARK  Name = 
REMARK  7 active torsions:
REMARK  status: ('A' for Active; 'I' for Inactive)
REMARK    1  A    between atoms: C_1  and  C_2
REMARK    2  A    between atoms: C_6  and  C_7
REMARK    3  A    between atoms: N_9  and  C_10
REMARK    4  A    between atoms: C_10  and  C_11
REMARK    5  A    between atoms: C_14  and  C_15
REMARK    6  A    between atoms: C_15  and  N_16
REMARK    7  A    between atoms: C_17  and  C_19
REMARK                            x       y       z     vdW  Elec       q    Type
REMARK                         _______ _______ _______ _____ _____    ______ ____
ROOT
ATOM      1  C   UNL     1      49.213   7.371  13.521  0.00  0.00    +0.000 A 
ATOM      2  C   UNL     1      49.163   7.564  12.133  0.00  0.00    +0.000 A 
ATOM      3  C   UNL     1      50.220   8.186  11.450  0.00  0.00    +0.000 A 
ATOM      4  C   UNL     1      51.367   8.612  12.132  0.00  0.00    +0.000 A 
ATOM      5  C   UNL     1      51.408   8.443  13.524  0.00  0.00    +0.000 A 
ATOM      6  C   UNL     1      50.353   7.815  14.206  0.00  0.00    +0.000 A 
ENDROOT
BRANCH   1   7
ATOM      7  C   UNL     1      48.056   6.732  14.256  0.00  0.00    +0.000 C 
BRANCH   7  10
ATOM      8  C   UNL     1      46.304   5.082  13.668  0.00  0.00    +0.000 C 
ATOM      9  O   UNL     1      46.497   4.390  14.658  0.00  0.00    +0.000 OA
ATOM     10  N   UNL     1      47.019   6.234  13.383  0.00  0.00    +0.000 N 
ATOM     11  H   UNL     1      46.755   6.741  12.544  0.00  0.00    +0.000 HD
BRANCH   8  17
ATOM     12  C   UNL     1      45.194   4.394   8.994  0.00  0.00    +0.000 C 
ATOM     13  C   UNL     1      44.726   4.398  10.417  0.00  0.00    +0.000 A 
ATOM     14  C   UNL     1      43.407   4.088  10.737  0.00  0.00    +0.000 A 
ATOM     15  C   UNL     1      43.014   4.111  12.073  0.00  0.00    +0.000 A 
ATOM     16  C   UNL     1      43.948   4.436  13.051  0.00  0.00    +0.000 A 
ATOM     17  C   UNL     1      45.247   4.729  12.654  0.00  0.00    +0.000 A 
ATOM     18  N   UNL     1      45.653   4.720  11.353  0.00  0.00    +0.000 NA
ENDBRANCH   8  17
ENDBRANCH   7  10
ENDBRANCH   1   7
BRANCH   4  19
ATOM     19  C   UNL     1      52.532   9.220  11.384  0.00  0.00    +0.000 C 
BRANCH  19  20
ATOM     20  N   UNL     1      52.717   8.637  10.078  0.00  0.00    +0.000 N 
ATOM     21  C   UNL     1      53.903   8.769   9.394  0.00  0.00    +0.000 C 
ATOM     22  O   UNL     1      54.880   9.333   9.879  0.00  0.00    +0.000 OA
ATOM     23  H   UNL     1      51.878   8.379   9.569  0.00  0.00    +0.000 HD
BRANCH  21  24
ATOM     24  C   UNL     1      53.962   8.146   8.065  0.00  0.00    +0.000 A 
ATOM     25  C   UNL     1      54.090   8.935   6.927  0.00  0.00    +0.000 A 
ATOM     26  S   UNL     1      54.169   8.036   5.479  0.00  0.00    +0.000 S 
ATOM     27  C   UNL     1      53.994   6.565   6.315  0.00  0.00    +0.000 A 
ATOM     28  N   UNL     1      53.956   5.379   5.650  0.00  0.00    +0.000 NA
ATOM     29  C   UNL     1      53.807   4.345   6.412  0.00  0.00    +0.000 A 
ATOM     30  N   UNL     1      53.697   4.390   7.775  0.00  0.00    +0.000 N 
ATOM     31  C   UNL     1      53.751   5.562   8.491  0.00  0.00    +0.000 A 
ATOM     32  O   UNL     1      53.693   5.562   9.716  0.00  0.00    +0.000 OA
ATOM     33  C   UNL     1      53.904   6.756   7.683  0.00  0.00    +0.000 A 
ATOM     34  H   UNL     1      53.602   3.546   8.318  0.00  0.00    +0.000 HD
ENDBRANCH  21  24
ENDBRANCH  19  20
ENDBRANCH   4  19
TORSDOF 6
ENDMDL
