MODEL 1
REMARK VINA RESULT:    -7.695      0.000      0.000
REMARK INTER + INTRA:          -9.596
REMARK INTER:                  -9.495
REMARK INTRA:                  -0.101
REMARK UNBOUND:                -0.101
REMARK  Name = 
REMARK  6 active torsions:
REMARK  status: ('A' for Active; 'I' for Inactive)
REMARK    1  A    between atoms: C_1  and  C_2
REMARK    2  A    between atoms: C_4  and  N_5
REMARK    3  A    between atoms: C_4  and  C_16
REMARK    4  A    between atoms: N_5  and  C_6
REMARK    5  A    between atoms: C_9  and  C_10
REMARK    6  A    between atoms: C_16  and  C_17
REMARK                            x       y       z     vdW  Elec       q    Type
REMARK                         _______ _______ _______ _____ _____    ______ ____
ROOT
ATOM      1  N   UNL     1      44.117   4.706   9.881  0.00  0.00    +0.000 N 
ATOM      2  H   UNL     1      43.149   4.569   9.596  0.00  0.00    +0.000 HD
ENDROOT
BRANCH   1   3
ATOM      3  C   UNL     1      44.999   4.027   9.002  0.00  0.00    +0.000 A 
ATOM      4  C   UNL     1      45.901   4.812   8.262  0.00  0.00    +0.000 A 
ATOM      5  C   UNL     1      46.825   4.233   7.383  0.00  0.00    +0.000 A 
ATOM      6  C   UNL     1      46.859   2.844   7.224  0.00  0.00    +0.000 A 
ATOM      7  C   UNL     1      45.965   2.050   7.944  0.00  0.00    +0.000 A 
ATOM      8  C   UNL     1      45.057   2.639   8.825  0.00  0.00    +0.000 A 
ATOM      9  F   UNL     1      44.212   1.823   9.474  0.00  0.00    +0.000 F 
BRANCH   6  10
ATOM     10  C   UNL     1      47.797   2.174   6.287  0.00  0.00    +0.000 C 
ATOM     11  N   UNL     1      48.088   2.803   5.114  0.00  0.00    +0.000 N 
ATOM     12  O   UNL     1      48.318   1.097   6.564  0.00  0.00    +0.000 OA
ATOM     13  H   UNL     1      47.882   3.775   4.942  0.00  0.00    +0.000 HD
ATOM     14  H   UNL     1      48.802   2.367   4.547  0.00  0.00    +0.000 HD
ENDBRANCH   6  10
ENDBRANCH   1   3
BRANCH   1  18
ATOM     15  C   UNL     1      43.032   4.384  13.686  0.00  0.00    +0.000 C 
ATOM     16  C   UNL     1      43.453   4.031  12.304  0.00  0.00    +0.000 C 
ATOM     17  C   UNL     1      44.846   3.574  12.027  0.00  0.00    +0.000 C 
ATOM     18  C   UNL     1      44.357   4.869  11.357  0.00  0.00    +0.000 C 
BRANCH  18  19
ATOM     19  C   UNL     1      45.123   6.182  11.744  0.00  0.00    +0.000 C 
ATOM     20  C   UNL     1      44.268   7.427  11.403  0.00  0.00    +0.000 C 
ATOM     21  C   UNL     1      45.599   6.284  13.203  0.00  0.00    +0.000 C 
ATOM     22  C   UNL     1      46.747   7.288  13.217  0.00  0.00    +0.000 C 
ATOM     23  C   UNL     1      47.329   7.271  11.809  0.00  0.00    +0.000 C 
ATOM     24  C   UNL     1      46.482   6.281  11.005  0.00  0.00    +0.000 C 
ENDBRANCH  18  19
ENDBRANCH   1  18
TORSDOF 4
ENDMDL
MODEL 2
REMARK VINA RESULT:    -7.573      1.137      2.414
REMARK INTER + INTRA:          -9.445
REMARK INTER:                  -9.538
REMARK INTRA:                   0.093
REMARK UNBOUND:                -0.101
REMARK  Name = 
REMARK  6 active torsions:
REMARK  status: ('A' for Active; 'I' for Inactive)
REMARK    1  A    between atoms: C_1  and  C_2
REMARK    2  A    between atoms: C_4  and  N_5
REMARK    3  A    between atoms: C_4  and  C_16
REMARK    4  A    between atoms: N_5  and  C_6
REMARK    5  A    between atoms: C_9  and  C_10
REMARK    6  A    between atoms: C_16  and  C_17
REMARK                            x       y       z     vdW  Elec       q    Type
REMARK                         _______ _______ _______ _____ _____    ______ ____
ROOT
ATOM      1  N   UNL     1      43.930   4.848  10.044  0.00  0.00    +0.000 N 
ATOM      2  H   UNL     1      42.969   4.514  10.097  0.00  0.00    +0.000 HD
ENDROOT
BRANCH   1   3
ATOM      3  C   UNL     1      44.726   3.966   9.271  0.00  0.00    +0.000 A 
ATOM      4  C   UNL     1      45.624   4.544   8.356  0.00  0.00    +0.000 A 
ATOM      5  C   UNL     1      46.468   3.756   7.562  0.00  0.00    +0.000 A 
ATOM      6  C   UNL     1      46.423   2.362   7.668  0.00  0.00    +0.000 A 
ATOM      7  C   UNL     1      45.531   1.772   8.565  0.00  0.00    +0.000 A 
ATOM      8  C   UNL     1      44.704   2.568   9.358  0.00  0.00    +0.000 A 
ATOM      9  F   UNL     1      43.856   1.940  10.187  0.00  0.00    +0.000 F 
BRANCH   6  10
ATOM     10  C   UNL     1      47.273   1.474   6.834  0.00  0.00    +0.000 C 
ATOM     11  N   UNL     1      48.324   2.033   6.171  0.00  0.00    +0.000 N 
ATOM     12  O   UNL     1      47.056   0.268   6.758  0.00  0.00    +0.000 OA
ATOM     13  H   UNL     1      48.685   2.951   6.380  0.00  0.00    +0.000 HD
ATOM     14  H   UNL     1      48.937   1.385   5.694  0.00  0.00    +0.000 HD
ENDBRANCH   6  10
ENDBRANCH   1   3
BRANCH   1  18
ATOM     15  C   UNL     1      45.910   7.842  11.740  0.00  0.00    +0.000 C 
ATOM     16  C   UNL     1      44.878   7.079  10.990  0.00  0.00    +0.000 C 
ATOM     17  C   UNL     1      43.540   6.813  11.595  0.00  0.00    +0.000 C 
ATOM     18  C   UNL     1      44.432   5.611  11.240  0.00  0.00    +0.000 C 
BRANCH  18  19
ATOM     19  C   UNL     1      44.885   4.706  12.438  0.00  0.00    +0.000 C 
ATOM     20  C   UNL     1      43.677   3.924  13.011  0.00  0.00    +0.000 C 
ATOM     21  C   UNL     1      46.028   3.719  12.147  0.00  0.00    +0.000 C 
ATOM     22  C   UNL     1      46.665   3.383  13.492  0.00  0.00    +0.000 C 
ATOM     23  C   UNL     1      46.362   4.569  14.401  0.00  0.00    +0.000 C 
ATOM     24  C   UNL     1      45.528   5.546  13.570  0.00  0.00    +0.000 C 
ENDBRANCH  18  19
ENDBRANCH   1  18
TORSDOF 4
ENDMDL
MODEL 3
REMARK VINA RESULT:    -6.973      1.484      1.827
REMARK INTER + INTRA:          -8.705
REMARK INTER:                  -8.584
REMARK INTRA:                  -0.122
REMARK UNBOUND:                -0.101
REMARK  Name = 
REMARK  6 active torsions:
REMARK  status: ('A' for Active; 'I' for Inactive)
REMARK    1  A    between atoms: C_1  and  C_2
REMARK    2  A    between atoms: C_4  and  N_5
REMARK    3  A    between atoms: C_4  and  C_16
REMARK    4  A    between atoms: N_5  and  C_6
REMARK    5  A    between atoms: C_9  and  C_10
REMARK    6  A    between atoms: C_16  and  C_17
REMARK                            x       y       z     vdW  Elec       q    Type
REMARK                         _______ _______ _______ _____ _____    ______ ____
ROOT
ATOM      1  N   UNL     1      44.245   4.945   9.873  0.00  0.00    +0.000 N 
ATOM      2  H   UNL     1      43.315   5.053   9.470  0.00  0.00    +0.000 HD
ENDROOT
BRANCH   1   3
ATOM      3  C   UNL     1      44.980   3.952   9.178  0.00  0.00    +0.000 A 
ATOM      4  C   UNL     1      44.602   2.613   9.377  0.00  0.00    +0.000 A 
ATOM      5  C   UNL     1      45.254   1.562   8.719  0.00  0.00    +0.000 A 
ATOM      6  C   UNL     1      46.312   1.837   7.846  0.00  0.00    +0.000 A 
ATOM      7  C   UNL     1      46.707   3.160   7.644  0.00  0.00    +0.000 A 
ATOM      8  C   UNL     1      46.041   4.198   8.297  0.00  0.00    +0.000 A 
ATOM      9  F   UNL     1      46.480   5.447   8.075  0.00  0.00    +0.000 F 
BRANCH   6  10
ATOM     10  C   UNL     1      47.060   0.765   7.140  0.00  0.00    +0.000 C 
ATOM     11  N   UNL     1      46.770  -0.530   7.454  0.00  0.00    +0.000 N 
ATOM     12  O   UNL     1      47.898   1.027   6.283  0.00  0.00    +0.000 OA
ATOM     13  H   UNL     1      45.944  -0.804   7.964  0.00  0.00    +0.000 HD
ATOM     14  H   UNL     1      47.226  -1.232   6.887  0.00  0.00    +0.000 HD
ENDBRANCH   6  10
ENDBRANCH   1   3
BRANCH   1  18
ATOM     15  C   UNL     1      42.785   5.007  13.565  0.00  0.00    +0.000 C 
ATOM     16  C   UNL     1      43.299   4.516  12.259  0.00  0.00    +0.000 C 
ATOM     17  C   UNL     1      44.664   3.924  12.154  0.00  0.00    +0.000 C 
ATOM     18  C   UNL     1      44.359   5.200  11.351  0.00  0.00    +0.000 C 
BRANCH  18  19
ATOM     19  C   UNL     1      45.202   6.470  11.722  0.00  0.00    +0.000 C 
ATOM     20  C   UNL     1      44.436   7.759  11.336  0.00  0.00    +0.000 C 
ATOM     21  C   UNL     1      45.657   6.577  13.188  0.00  0.00    +0.000 C 
ATOM     22  C   UNL     1      46.867   7.506  13.200  0.00  0.00    +0.000 C 
ATOM     23  C   UNL     1      47.472   7.416  11.804  0.00  0.00    +0.000 C 
ATOM     24  C   UNL     1      46.577   6.464  11.007  0.00  0.00    +0.000 C 
ENDBRANCH  18  19
ENDBRANCH   1  18
TORSDOF 4
ENDMDL
MODEL 4
REMARK VINA RESULT:    -6.570      3.506      5.427
REMARK INTER + INTRA:          -8.207
REMARK INTER:                  -7.618
REMARK INTRA:                  -0.590
REMARK UNBOUND:                -0.101
REMARK  Name = 
REMARK  6 active torsions:
REMARK  status: ('A' for Active; 'I' for Inactive)
REMARK    1  A    between atoms: C_1  and  C_2
REMARK    2  A    between atoms: C_4  and  N_5
REMARK    3  A    between atoms: C_4  and  C_16
REMARK    4  A    between atoms: N_5  and  C_6
REMARK    5  A    between atoms: C_9  and  C_10
REMARK    6  A    between atoms: C_16  and  C_17
REMARK                            x       y       z     vdW  Elec       q    Type
REMARK                         _______ _______ _______ _____ _____    ______ ____
ROOT
ATOM      1  N   UNL     1      46.554   7.523  13.491  0.00  0.00    +0.000 N 
ATOM      2  H   UNL     1      46.123   7.725  14.392  0.00  0.00    +0.000 HD
ENDROOT
BRANCH   1   3
ATOM      3  C   UNL     1      45.968   6.375  12.901  0.00  0.00    +0.000 A 
ATOM      4  C   UNL     1      45.412   6.523  11.618  0.00  0.00    +0.000 A 
ATOM      5  C   UNL     1      44.829   5.442  10.944  0.00  0.00    +0.000 A 
ATOM      6  C   UNL     1      44.787   4.183  11.551  0.00  0.00    +0.000 A 
ATOM      7  C   UNL     1      45.326   4.020  12.828  0.00  0.00    +0.000 A 
ATOM      8  C   UNL     1      45.915   5.102  13.484  0.00  0.00    +0.000 A 
ATOM      9  F   UNL     1      46.399   4.885  14.716  0.00  0.00    +0.000 F 
BRANCH   6  10
ATOM     10  C   UNL     1      44.159   3.006  10.898  0.00  0.00    +0.000 C 
ATOM     11  N   UNL     1      44.852   2.379   9.907  0.00  0.00    +0.000 N 
ATOM     12  O   UNL     1      43.059   2.590  11.251  0.00  0.00    +0.000 OA
ATOM     13  H   UNL     1      45.836   2.526   9.741  0.00  0.00    +0.000 HD
ATOM     14  H   UNL     1      44.438   1.526   9.553  0.00  0.00    +0.000 HD
ENDBRANCH   6  10
ENDBRANCH   1   3
BRANCH   1  18
ATOM     15  C   UNL     1      50.337   7.480  14.694  0.00  0.00    +0.000 C 
ATOM     16  C   UNL     1      49.023   7.041  14.156  0.00  0.00    +0.000 C 
ATOM     17  C   UNL     1      48.844   6.787  12.697  0.00  0.00    +0.000 C 
ATOM     18  C   UNL     1      48.005   7.897  13.352  0.00  0.00    +0.000 C 
BRANCH  18  19
ATOM     19  C   UNL     1      48.247   9.354  12.824  0.00  0.00    +0.000 C 
ATOM     20  C   UNL     1      48.632  10.295  13.992  0.00  0.00    +0.000 C 
ATOM     21  C   UNL     1      49.283   9.503  11.697  0.00  0.00    +0.000 C 
ATOM     22  C   UNL     1      48.959  10.809  10.978  0.00  0.00    +0.000 C 
ATOM     23  C   UNL     1      47.478  11.062  11.229  0.00  0.00    +0.000 C 
ATOM     24  C   UNL     1      46.988   9.915  12.115  0.00  0.00    +0.000 C 
ENDBRANCH  18  19
ENDBRANCH   1  18
TORSDOF 4
ENDMDL
MODEL 5
REMARK VINA RESULT:    -6.363      5.284      7.952
REMARK INTER + INTRA:          -7.953
REMARK INTER:                  -7.429
REMARK INTRA:                  -0.524
REMARK UNBOUND:                -0.101
REMARK  Name = 
REMARK  6 active torsions:
REMARK  status: ('A' for Active; 'I' for Inactive)
REMARK    1  A    between atoms: C_1  and  C_2
REMARK    2  A    between atoms: C_4  and  N_5
REMARK    3  A    between atoms: C_4  and  C_16
REMARK    4  A    between atoms: N_5  and  C_6
REMARK    5  A    between atoms: C_9  and  C_10
REMARK    6  A    between atoms: C_16  and  C_17
REMARK                            x       y       z     vdW  Elec       q    Type
REMARK                         _______ _______ _______ _____ _____    ______ ____
ROOT
ATOM      1  N   UNL     1      47.539   5.104  13.533  0.00  0.00    +0.000 N 
ATOM      2  H   UNL     1      47.713   4.170  13.164  0.00  0.00    +0.000 HD
ENDROOT
BRANCH   1   3
ATOM      3  C   UNL     1      47.705   5.127  14.940  0.00  0.00    +0.000 A 
ATOM      4  C   UNL     1      47.021   4.152  15.685  0.00  0.00    +0.000 A 
ATOM      5  C   UNL     1      47.137   4.079  17.080  0.00  0.00    +0.000 A 
ATOM      6  C   UNL     1      47.945   4.996  17.759  0.00  0.00    +0.000 A 
ATOM      7  C   UNL     1      48.625   5.978  17.036  0.00  0.00    +0.000 A 
ATOM      8  C   UNL     1      48.510   6.031  15.646  0.00  0.00    +0.000 A 
ATOM      9  F   UNL     1      49.174   7.009  15.011  0.00  0.00    +0.000 F 
BRANCH   6  10
ATOM     10  C   UNL     1      48.088   4.988  19.238  0.00  0.00    +0.000 C 
ATOM     11  N   UNL     1      48.555   3.852  19.829  0.00  0.00    +0.000 N 
ATOM     12  O   UNL     1      47.818   5.977  19.913  0.00  0.00    +0.000 OA
ATOM     13  H   UNL     1      49.007   3.109  19.319  0.00  0.00    +0.000 HD
ATOM     14  H   UNL     1      48.731   3.915  20.822  0.00  0.00    +0.000 HD
ENDBRANCH   6  10
ENDBRANCH   1   3
BRANCH   1  18
ATOM     15  C   UNL     1      45.513   8.457  12.886  0.00  0.00    +0.000 C 
ATOM     16  C   UNL     1      46.625   7.473  12.963  0.00  0.00    +0.000 C 
ATOM     17  C   UNL     1      47.168   6.841  11.726  0.00  0.00    +0.000 C 
ATOM     18  C   UNL     1      46.527   5.932  12.788  0.00  0.00    +0.000 C 
BRANCH  18  19
ATOM     19  C   UNL     1      45.249   5.139  12.342  0.00  0.00    +0.000 C 
ATOM     20  C   UNL     1      45.497   3.613  12.444  0.00  0.00    +0.000 C 
ATOM     21  C   UNL     1      43.944   5.485  13.080  0.00  0.00    +0.000 C 
ATOM     22  C   UNL     1      42.801   5.064  12.162  0.00  0.00    +0.000 C 
ATOM     23  C   UNL     1      43.374   5.089  10.750  0.00  0.00    +0.000 C 
ATOM     24  C   UNL     1      44.844   5.490  10.888  0.00  0.00    +0.000 C 
ENDBRANCH  18  19
ENDBRANCH   1  18
TORSDOF 4
ENDMDL
MODEL 6
REMARK VINA RESULT:    -6.226      4.181      6.103
REMARK INTER + INTRA:          -7.783
REMARK INTER:                  -7.162
REMARK INTRA:                  -0.621
REMARK UNBOUND:                -0.101
REMARK  Name = 
REMARK  6 active torsions:
REMARK  status: ('A' for Active; 'I' for Inactive)
REMARK    1  A    between atoms: C_1  and  C_2
REMARK    2  A    between atoms: C_4  and  N_5
REMARK    3  A    between atoms: C_4  and  C_16
REMARK    4  A    between atoms: N_5  and  C_6
REMARK    5  A    between atoms: C_9  and  C_10
REMARK    6  A    between atoms: C_16  and  C_17
REMARK                            x       y       z     vdW  Elec       q    Type
REMARK                         _______ _______ _______ _____ _____    ______ ____
ROOT
ATOM      1  N   UNL     1      48.498   6.202  13.057  0.00  0.00    +0.000 N 
ATOM      2  H   UNL     1      49.120   5.748  12.389  0.00  0.00    +0.000 HD
ENDROOT
BRANCH   1   3
ATOM      3  C   UNL     1      47.144   5.900  12.767  0.00  0.00    +0.000 A 
ATOM      4  C   UNL     1      46.620   6.389  11.557  0.00  0.00    +0.000 A 
ATOM      5  C   UNL     1      45.299   6.127  11.172  0.00  0.00    +0.000 A 
ATOM      6  C   UNL     1      44.469   5.367  12.003  0.00  0.00    +0.000 A 
ATOM      7  C   UNL     1      44.970   4.882  13.212  0.00  0.00    +0.000 A 
ATOM      8  C   UNL     1      46.291   5.140  13.579  0.00  0.00    +0.000 A 
ATOM      9  F   UNL     1      46.707   4.661  14.761  0.00  0.00    +0.000 F 
BRANCH   6  10
ATOM     10  C   UNL     1      43.052   5.079  11.663  0.00  0.00    +0.000 C 
ATOM     11  N   UNL     1      42.156   6.103  11.735  0.00  0.00    +0.000 N 
ATOM     12  O   UNL     1      42.695   3.960  11.304  0.00  0.00    +0.000 OA
ATOM     13  H   UNL     1      42.428   7.073  11.791  0.00  0.00    +0.000 HD
ATOM     14  H   UNL     1      41.224   5.895  11.403  0.00  0.00    +0.000 HD
ENDBRANCH   6  10
ENDBRANCH   1   3
BRANCH   1  18
ATOM     15  C   UNL     1      48.239   9.267  15.567  0.00  0.00    +0.000 C 
ATOM     16  C   UNL     1      48.458   7.898  15.029  0.00  0.00    +0.000 C 
ATOM     17  C   UNL     1      49.838   7.354  14.871  0.00  0.00    +0.000 C 
ATOM     18  C   UNL     1      48.970   7.518  13.612  0.00  0.00    +0.000 C 
BRANCH  18  19
ATOM     19  C   UNL     1      49.501   8.520  12.529  0.00  0.00    +0.000 C 
ATOM     20  C   UNL     1      50.126   7.750  11.340  0.00  0.00    +0.000 C 
ATOM     21  C   UNL     1      48.482   9.537  11.988  0.00  0.00    +0.000 C 
ATOM     22  C   UNL     1      49.287  10.706  11.431  0.00  0.00    +0.000 C 
ATOM     23  C   UNL     1      50.616  10.685  12.176  0.00  0.00    +0.000 C 
ATOM     24  C   UNL     1      50.561   9.483  13.122  0.00  0.00    +0.000 C 
ENDBRANCH  18  19
ENDBRANCH   1  18
TORSDOF 4
ENDMDL
MODEL 7
REMARK VINA RESULT:    -6.121      3.606      5.853
REMARK INTER + INTRA:          -7.653
REMARK INTER:                  -7.165
REMARK INTRA:                  -0.489
REMARK UNBOUND:                -0.101
REMARK  Name = 
REMARK  6 active torsions:
REMARK  status: ('A' for Active; 'I' for Inactive)
REMARK    1  A    between atoms: C_1  and  C_2
REMARK    2  A    between atoms: C_4  and  N_5
REMARK    3  A    between atoms: C_4  and  C_16
REMARK    4  A    between atoms: N_5  and  C_6
REMARK    5  A    between atoms: C_9  and  C_10
REMARK    6  A    between atoms: C_16  and  C_17
REMARK                            x       y       z     vdW  Elec       q    Type
REMARK                         _______ _______ _______ _____ _____    ______ ____
ROOT
ATOM      1  N   UNL     1      46.607   7.810  13.430  0.00  0.00    +0.000 N 
ATOM      2  H   UNL     1      46.259   7.931  14.380  0.00  0.00    +0.000 HD
ENDROOT
BRANCH   1   3
ATOM      3  C   UNL     1      45.985   6.699  12.807  0.00  0.00    +0.000 A 
ATOM      4  C   UNL     1      46.260   5.426  13.338  0.00  0.00    +0.000 A 
ATOM      5  C   UNL     1      45.678   4.269  12.804  0.00  0.00    +0.000 A 
ATOM      6  C   UNL     1      44.806   4.366  11.715  0.00  0.00    +0.000 A 
ATOM      7  C   UNL     1      44.530   5.622  11.169  0.00  0.00    +0.000 A 
ATOM      8  C   UNL     1      45.107   6.767  11.718  0.00  0.00    +0.000 A 
ATOM      9  F   UNL     1      44.816   7.941  11.137  0.00  0.00    +0.000 F 
BRANCH   6  10
ATOM     10  C   UNL     1      44.180   3.174  11.088  0.00  0.00    +0.000 C 
ATOM     11  N   UNL     1      44.924   2.452  10.203  0.00  0.00    +0.000 N 
ATOM     12  O   UNL     1      43.036   2.829  11.371  0.00  0.00    +0.000 OA
ATOM     13  H   UNL     1      45.924   2.547  10.114  0.00  0.00    +0.000 HD
ATOM     14  H   UNL     1      44.502   1.595   9.872  0.00  0.00    +0.000 HD
ENDBRANCH   6  10
ENDBRANCH   1   3
BRANCH   1  18
ATOM     15  C   UNL     1      50.023   7.684  11.413  0.00  0.00    +0.000 C 
ATOM     16  C   UNL     1      48.606   7.951  11.771  0.00  0.00    +0.000 C 
ATOM     17  C   UNL     1      48.158   9.330  12.125  0.00  0.00    +0.000 C 
ATOM     18  C   UNL     1      48.032   8.226  13.189  0.00  0.00    +0.000 C 
BRANCH  18  19
ATOM     19  C   UNL     1      48.876   8.424  14.497  0.00  0.00    +0.000 C 
ATOM     20  C   UNL     1      49.463   7.071  14.971  0.00  0.00    +0.000 C 
ATOM     21  C   UNL     1      50.007   9.463  14.423  0.00  0.00    +0.000 C 
ATOM     22  C   UNL     1      50.295   9.895  15.857  0.00  0.00    +0.000 C 
ATOM     23  C   UNL     1      49.009   9.639  16.632  0.00  0.00    +0.000 C 
ATOM     24  C   UNL     1      48.019   9.032  15.636  0.00  0.00    +0.000 C 
ENDBRANCH  18  19
ENDBRANCH   1  18
TORSDOF 4
ENDMDL
MODEL 8
REMARK VINA RESULT:    -5.808      4.030      6.243
REMARK INTER + INTRA:          -7.268
REMARK INTER:                  -6.762
REMARK INTRA:                  -0.505
REMARK UNBOUND:                -0.101
REMARK  Name = 
REMARK  6 active torsions:
REMARK  status: ('A' for Active; 'I' for Inactive)
REMARK    1  A    between atoms: C_1  and  C_2
REMARK    2  A    between atoms: C_4  and  N_5
REMARK    3  A    between atoms: C_4  and  C_16
REMARK    4  A    between atoms: N_5  and  C_6
REMARK    5  A    between atoms: C_9  and  C_10
REMARK    6  A    between atoms: C_16  and  C_17
REMARK                            x       y       z     vdW  Elec       q    Type
REMARK                         _______ _______ _______ _____ _____    ______ ____
ROOT
ATOM      1  N   UNL     1      48.348   6.422  13.222  0.00  0.00    +0.000 N 
ATOM      2  H   UNL     1      49.054   6.167  12.533  0.00  0.00    +0.000 HD
ENDROOT
BRANCH   1   3
ATOM      3  C   UNL     1      47.078   5.914  12.850  0.00  0.00    +0.000 A 
ATOM      4  C   UNL     1      46.601   6.247  11.571  0.00  0.00    +0.000 A 
ATOM      5  C   UNL     1      45.367   5.777  11.104  0.00  0.00    +0.000 A 
ATOM      6  C   UNL     1      44.578   4.961  11.921  0.00  0.00    +0.000 A 
ATOM      7  C   UNL     1      45.032   4.627  13.198  0.00  0.00    +0.000 A 
ATOM      8  C   UNL     1      46.269   5.093  13.647  0.00  0.00    +0.000 A 
ATOM      9  F   UNL     1      46.641   4.752  14.890  0.00  0.00    +0.000 F 
BRANCH   6  10
ATOM     10  C   UNL     1      43.249   4.453  11.493  0.00  0.00    +0.000 C 
ATOM     11  N   UNL     1      42.170   5.268  11.660  0.00  0.00    +0.000 N 
ATOM     12  O   UNL     1      43.121   3.344  10.982  0.00  0.00    +0.000 OA
ATOM     13  H   UNL     1      42.246   6.256  11.849  0.00  0.00    +0.000 HD
ATOM     14  H   UNL     1      41.300   4.931  11.269  0.00  0.00    +0.000 HD
ENDBRANCH   6  10
ENDBRANCH   1   3
BRANCH   1  18
ATOM     15  C   UNL     1      49.178  10.303  13.292  0.00  0.00    +0.000 C 
ATOM     16  C   UNL     1      48.471   9.016  13.064  0.00  0.00    +0.000 C 
ATOM     17  C   UNL     1      47.308   8.626  13.913  0.00  0.00    +0.000 C 
ATOM     18  C   UNL     1      48.559   7.731  13.933  0.00  0.00    +0.000 C 
BRANCH  18  19
ATOM     19  C   UNL     1      49.298   7.604  15.311  0.00  0.00    +0.000 C 
ATOM     20  C   UNL     1      50.833   7.663  15.107  0.00  0.00    +0.000 C 
ATOM     21  C   UNL     1      48.896   8.621  16.392  0.00  0.00    +0.000 C 
ATOM     22  C   UNL     1      49.270   8.000  17.734  0.00  0.00    +0.000 C 
ATOM     23  C   UNL     1      49.273   6.493  17.506  0.00  0.00    +0.000 C 
ATOM     24  C   UNL     1      48.933   6.280  16.029  0.00  0.00    +0.000 C 
ENDBRANCH  18  19
ENDBRANCH   1  18
TORSDOF 4
ENDMDL
MODEL 9
REMARK VINA RESULT:    -5.690      5.272      7.479
REMARK INTER + INTRA:          -7.122
REMARK INTER:                  -6.582
REMARK INTRA:                  -0.540
REMARK UNBOUND:                -0.101
REMARK  Name = 
REMARK  6 active torsions:
REMARK  status: ('A' for Active; 'I' for Inactive)
REMARK    1  A    between atoms: C_1  and  C_2
REMARK    2  A    between atoms: C_4  and  N_5
REMARK    3  A    between atoms: C_4  and  C_16
REMARK    4  A    between atoms: N_5  and  C_6
REMARK    5  A    between atoms: C_9  and  C_10
REMARK    6  A    between atoms: C_16  and  C_17
REMARK                            x       y       z     vdW  Elec       q    Type
REMARK                         _______ _______ _______ _____ _____    ______ ____
ROOT
ATOM      1  N   UNL     1      46.328   5.197  14.839  0.00  0.00    +0.000 N 
ATOM      2  H   UNL     1      45.717   5.703  15.479  0.00  0.00    +0.000 HD
ENDROOT
BRANCH   1   3
ATOM      3  C   UNL     1      47.391   4.579  15.544  0.00  0.00    +0.000 A 
ATOM      4  C   UNL     1      47.500   3.180  15.448  0.00  0.00    +0.000 A 
ATOM      5  C   UNL     1      48.529   2.480  16.092  0.00  0.00    +0.000 A 
ATOM      6  C   UNL     1      49.473   3.175  16.855  0.00  0.00    +0.000 A 
ATOM      7  C   UNL     1      49.374   4.563  16.968  0.00  0.00    +0.000 A 
ATOM      8  C   UNL     1      48.352   5.249  16.312  0.00  0.00    +0.000 A 
ATOM      9  F   UNL     1      48.301   6.580  16.475  0.00  0.00    +0.000 F 
BRANCH   6  10
ATOM     10  C   UNL     1      50.570   2.486  17.582  0.00  0.00    +0.000 C 
ATOM     11  N   UNL     1      51.250   3.192  18.529  0.00  0.00    +0.000 N 
ATOM     12  O   UNL     1      50.846   1.311  17.360  0.00  0.00    +0.000 OA
ATOM     13  H   UNL     1      50.920   4.064  18.913  0.00  0.00    +0.000 HD
ATOM     14  H   UNL     1      51.922   2.665  19.071  0.00  0.00    +0.000 HD
ENDBRANCH   6  10
ENDBRANCH   1   3
BRANCH   1  18
ATOM     15  C   UNL     1      47.004   8.169  12.296  0.00  0.00    +0.000 C 
ATOM     16  C   UNL     1      47.216   7.114  13.321  0.00  0.00    +0.000 C 
ATOM     17  C   UNL     1      47.911   5.842  12.970  0.00  0.00    +0.000 C 
ATOM     18  C   UNL     1      46.453   5.767  13.452  0.00  0.00    +0.000 C 
BRANCH  18  19
ATOM     19  C   UNL     1      45.411   5.199  12.426  0.00  0.00    +0.000 C 
ATOM     20  C   UNL     1      43.979   5.658  12.800  0.00  0.00    +0.000 C 
ATOM     21  C   UNL     1      45.671   5.525  10.946  0.00  0.00    +0.000 C 
ATOM     22  C   UNL     1      44.934   4.466  10.132  0.00  0.00    +0.000 C 
ATOM     23  C   UNL     1      44.812   3.253  11.045  0.00  0.00    +0.000 C 
ATOM     24  C   UNL     1      45.451   3.651  12.378  0.00  0.00    +0.000 C 
ENDBRANCH  18  19
ENDBRANCH   1  18
TORSDOF 4
ENDMDL
