MODEL 1
REMARK VINA RESULT:    -7.151      0.000      0.000
REMARK INTER + INTRA:          -9.928
REMARK INTER:                  -9.242
REMARK INTRA:                  -0.687
REMARK UNBOUND:                -0.687
REMARK  Name = 
REMARK  6 active torsions:
REMARK  status: ('A' for Active; 'I' for Inactive)
REMARK    1  A    between atoms: C_1  and  S_2
REMARK    2  A    between atoms: S_2  and  C_3
REMARK    3  A    between atoms: C_6  and  C_7
REMARK    4  A    between atoms: C_11  and  C_12
REMARK    5  A    between atoms: C_12  and  N_13
REMARK    6  A    between atoms: N_13  and  C_14
REMARK                            x       y       z     vdW  Elec       q    Type
REMARK                         _______ _______ _______ _____ _____    ______ ____
ROOT
ATOM      1  C   UNL     1      45.630   5.310  12.413  0.00  0.00    +0.000 A 
ATOM      2  N   UNL     1      46.466   6.134  13.091  0.00  0.00    +0.000 NA
ATOM      3  C   UNL     1      46.307   7.470  12.936  0.00  0.00    +0.000 A 
ATOM      4  C   UNL     1      45.330   8.043  12.140  0.00  0.00    +0.000 A 
ATOM      5  C   UNL     1      44.483   7.187  11.436  0.00  0.00    +0.000 A 
ATOM      6  C   UNL     1      44.632   5.791  11.547  0.00  0.00    +0.000 A 
ENDROOT
BRANCH   4   7
ATOM      7  C   UNL     1      45.244   9.517  12.067  0.00  0.00    +0.000 C 
ATOM      8  N   UNL     1      44.020  10.092  12.260  0.00  0.00    +0.000 N 
ATOM      9  O   UNL     1      46.240  10.201  11.869  0.00  0.00    +0.000 OA
ATOM     10  H   UNL     1      43.219   9.594  12.623  0.00  0.00    +0.000 HD
ATOM     11  H   UNL     1      43.990  11.104  12.282  0.00  0.00    +0.000 HD
ENDBRANCH   4   7
BRANCH   1  13
ATOM     12  C   UNL     1      47.049   3.560  14.055  0.00  0.00    +0.000 C 
ATOM     13  S   UNL     1      45.839   3.553  12.707  0.00  0.00    +0.000 S 
ENDBRANCH   1  13
BRANCH   6  14
ATOM     14  C   UNL     1      43.664   4.851  10.865  0.00  0.00    +0.000 C 
BRANCH  14  15
ATOM     15  N   UNL     1      43.849   4.812   9.407  0.00  0.00    +0.000 N 
ATOM     16  H   UNL     1      44.121   5.727   9.052  0.00  0.00    +0.000 HD
BRANCH  15  17
ATOM     17  C   UNL     1      44.743   3.829   8.927  0.00  0.00    +0.000 A 
ATOM     18  C   UNL     1      44.588   2.460   9.190  0.00  0.00    +0.000 A 
ATOM     19  C   UNL     1      45.474   1.516   8.664  0.00  0.00    +0.000 A 
ATOM     20  C   UNL     1      46.503   1.935   7.834  0.00  0.00    +0.000 A 
ATOM     21  F   UNL     1      47.355   1.032   7.332  0.00  0.00    +0.000 F 
ATOM     22  C   UNL     1      46.649   3.275   7.509  0.00  0.00    +0.000 A 
ATOM     23  C   UNL     1      45.758   4.216   8.041  0.00  0.00    +0.000 A 
ENDBRANCH  15  17
ENDBRANCH  14  15
ENDBRANCH   6  14
TORSDOF 5
ENDMDL
MODEL 2
REMARK VINA RESULT:    -6.698      2.038      2.645
REMARK INTER + INTRA:          -9.342
REMARK INTER:                  -8.749
REMARK INTRA:                  -0.594
REMARK UNBOUND:                -0.687
REMARK  Name = 
REMARK  6 active torsions:
REMARK  status: ('A' for Active; 'I' for Inactive)
REMARK    1  A    between atoms: C_1  and  S_2
REMARK    2  A    between atoms: S_2  and  C_3
REMARK    3  A    between atoms: C_6  and  C_7
REMARK    4  A    between atoms: C_11  and  C_12
REMARK    5  A    between atoms: C_12  and  N_13
REMARK    6  A    between atoms: N_13  and  C_14
REMARK                            x       y       z     vdW  Elec       q    Type
REMARK                         _______ _______ _______ _____ _____    ______ ____
ROOT
ATOM      1  C   UNL     1      45.441   4.938  12.534  0.00  0.00    +0.000 A 
ATOM      2  N   UNL     1      46.208   5.215  13.617  0.00  0.00    +0.000 NA
ATOM      3  C   UNL     1      47.222   6.102  13.469  0.00  0.00    +0.000 A 
ATOM      4  C   UNL     1      47.509   6.754  12.281  0.00  0.00    +0.000 A 
ATOM      5  C   UNL     1      46.722   6.452  11.171  0.00  0.00    +0.000 A 
ATOM      6  C   UNL     1      45.676   5.514  11.274  0.00  0.00    +0.000 A 
ENDROOT
BRANCH   4   7
ATOM      7  C   UNL     1      48.631   7.715  12.250  0.00  0.00    +0.000 C 
ATOM      8  N   UNL     1      49.900   7.212  12.313  0.00  0.00    +0.000 N 
ATOM      9  O   UNL     1      48.433   8.918  12.142  0.00  0.00    +0.000 OA
ATOM     10  H   UNL     1      50.119   6.232  12.199  0.00  0.00    +0.000 HD
ATOM     11  H   UNL     1      50.658   7.875  12.215  0.00  0.00    +0.000 HD
ENDBRANCH   4   7
BRANCH   1  13
ATOM     12  C   UNL     1      42.699   4.969  13.031  0.00  0.00    +0.000 C 
ATOM     13  S   UNL     1      44.072   3.810  12.802  0.00  0.00    +0.000 S 
ENDBRANCH   1  13
BRANCH   6  14
ATOM     14  C   UNL     1      44.756   5.247  10.104  0.00  0.00    +0.000 C 
BRANCH  14  15
ATOM     15  N   UNL     1      45.473   5.204   8.822  0.00  0.00    +0.000 N 
ATOM     16  H   UNL     1      46.296   5.804   8.846  0.00  0.00    +0.000 HD
BRANCH  15  17
ATOM     17  C   UNL     1      45.836   3.918   8.363  0.00  0.00    +0.000 A 
ATOM     18  C   UNL     1      46.808   3.704   7.374  0.00  0.00    +0.000 A 
ATOM     19  C   UNL     1      47.164   2.413   6.975  0.00  0.00    +0.000 A 
ATOM     20  C   UNL     1      46.576   1.321   7.595  0.00  0.00    +0.000 A 
ATOM     21  F   UNL     1      46.914   0.082   7.212  0.00  0.00    +0.000 F 
ATOM     22  C   UNL     1      45.653   1.498   8.616  0.00  0.00    +0.000 A 
ATOM     23  C   UNL     1      45.300   2.795   9.010  0.00  0.00    +0.000 A 
ENDBRANCH  15  17
ENDBRANCH  14  15
ENDBRANCH   6  14
TORSDOF 5
ENDMDL
MODEL 3
REMARK VINA RESULT:    -6.680      2.490      3.888
REMARK INTER + INTRA:          -9.319
REMARK INTER:                  -8.730
REMARK INTRA:                  -0.589
REMARK UNBOUND:                -0.687
REMARK  Name = 
REMARK  6 active torsions:
REMARK  status: ('A' for Active; 'I' for Inactive)
REMARK    1  A    between atoms: C_1  and  S_2
REMARK    2  A    between atoms: S_2  and  C_3
REMARK    3  A    between atoms: C_6  and  C_7
REMARK    4  A    between atoms: C_11  and  C_12
REMARK    5  A    between atoms: C_12  and  N_13
REMARK    6  A    between atoms: N_13  and  C_14
REMARK                            x       y       z     vdW  Elec       q    Type
REMARK                         _______ _______ _______ _____ _____    ______ ____
ROOT
ATOM      1  C   UNL     1      45.380   6.891  12.387  0.00  0.00    +0.000 A 
ATOM      2  N   UNL     1      46.523   7.146  13.070  0.00  0.00    +0.000 NA
ATOM      3  C   UNL     1      47.006   6.179  13.887  0.00  0.00    +0.000 A 
ATOM      4  C   UNL     1      46.410   4.941  14.052  0.00  0.00    +0.000 A 
ATOM      5  C   UNL     1      45.228   4.693  13.356  0.00  0.00    +0.000 A 
ATOM      6  C   UNL     1      44.676   5.681  12.517  0.00  0.00    +0.000 A 
ENDROOT
BRANCH   4   7
ATOM      7  C   UNL     1      47.044   3.961  14.959  0.00  0.00    +0.000 C 
ATOM      8  N   UNL     1      46.925   4.172  16.304  0.00  0.00    +0.000 N 
ATOM      9  O   UNL     1      47.630   2.979  14.522  0.00  0.00    +0.000 OA
ATOM     10  H   UNL     1      46.289   4.843  16.711  0.00  0.00    +0.000 HD
ATOM     11  H   UNL     1      47.299   3.454  16.912  0.00  0.00    +0.000 HD
ENDBRANCH   4   7
BRANCH   1  13
ATOM     12  C   UNL     1      45.274   9.669  12.190  0.00  0.00    +0.000 C 
ATOM     13  S   UNL     1      44.822   8.177  11.268  0.00  0.00    +0.000 S 
ENDBRANCH   1  13
BRANCH   6  14
ATOM     14  C   UNL     1      43.447   5.393  11.684  0.00  0.00    +0.000 C 
BRANCH  14  15
ATOM     15  N   UNL     1      43.374   3.991  11.253  0.00  0.00    +0.000 N 
ATOM     16  H   UNL     1      42.408   3.711  11.090  0.00  0.00    +0.000 HD
BRANCH  15  17
ATOM     17  C   UNL     1      44.165   3.650  10.133  0.00  0.00    +0.000 A 
ATOM     18  C   UNL     1      44.754   4.606   9.293  0.00  0.00    +0.000 A 
ATOM     19  C   UNL     1      45.561   4.226   8.217  0.00  0.00    +0.000 A 
ATOM     20  C   UNL     1      45.818   2.882   7.998  0.00  0.00    +0.000 A 
ATOM     21  F   UNL     1      46.589   2.516   6.965  0.00  0.00    +0.000 F 
ATOM     22  C   UNL     1      45.297   1.915   8.845  0.00  0.00    +0.000 A 
ATOM     23  C   UNL     1      44.488   2.302   9.921  0.00  0.00    +0.000 A 
ENDBRANCH  15  17
ENDBRANCH  14  15
ENDBRANCH   6  14
TORSDOF 5
ENDMDL
MODEL 4
REMARK VINA RESULT:    -6.160      4.439      7.426
REMARK INTER + INTRA:          -8.648
REMARK INTER:                  -8.206
REMARK INTRA:                  -0.442
REMARK UNBOUND:                -0.687
REMARK  Name = 
REMARK  6 active torsions:
REMARK  status: ('A' for Active; 'I' for Inactive)
REMARK    1  A    between atoms: C_1  and  S_2
REMARK    2  A    between atoms: S_2  and  C_3
REMARK    3  A    between atoms: C_6  and  C_7
REMARK    4  A    between atoms: C_11  and  C_12
REMARK    5  A    between atoms: C_12  and  N_13
REMARK    6  A    between atoms: N_13  and  C_14
REMARK                            x       y       z     vdW  Elec       q    Type
REMARK                         _______ _______ _______ _____ _____    ______ ____
ROOT
ATOM      1  C   UNL     1      46.092   6.375  12.126  0.00  0.00    +0.000 A 
ATOM      2  N   UNL     1      45.280   6.382  11.041  0.00  0.00    +0.000 NA
ATOM      3  C   UNL     1      44.647   5.230  10.713  0.00  0.00    +0.000 A 
ATOM      4  C   UNL     1      44.768   4.052  11.430  0.00  0.00    +0.000 A 
ATOM      5  C   UNL     1      45.617   4.052  12.537  0.00  0.00    +0.000 A 
ATOM      6  C   UNL     1      46.316   5.221  12.897  0.00  0.00    +0.000 A 
ENDROOT
BRANCH   4   7
ATOM      7  C   UNL     1      44.012   2.864  10.983  0.00  0.00    +0.000 C 
ATOM      8  N   UNL     1      44.495   2.171   9.909  0.00  0.00    +0.000 N 
ATOM      9  O   UNL     1      43.002   2.497  11.570  0.00  0.00    +0.000 OA
ATOM     10  H   UNL     1      45.419   2.311   9.523  0.00  0.00    +0.000 HD
ATOM     11  H   UNL     1      44.009   1.318   9.661  0.00  0.00    +0.000 HD
ENDBRANCH   4   7
BRANCH   1  13
ATOM     12  C   UNL     1      45.414   9.045  12.553  0.00  0.00    +0.000 C 
ATOM     13  S   UNL     1      46.851   7.943  12.557  0.00  0.00    +0.000 S 
ENDBRANCH   1  13
BRANCH   6  14
ATOM     14  C   UNL     1      47.165   5.263  14.147  0.00  0.00    +0.000 C 
BRANCH  14  15
ATOM     15  N   UNL     1      46.696   4.327  15.178  0.00  0.00    +0.000 N 
ATOM     16  H   UNL     1      46.627   3.382  14.806  0.00  0.00    +0.000 HD
BRANCH  15  17
ATOM     17  C   UNL     1      47.438   4.314  16.380  0.00  0.00    +0.000 A 
ATOM     18  C   UNL     1      47.433   3.230  17.271  0.00  0.00    +0.000 A 
ATOM     19  C   UNL     1      48.212   3.242  18.431  0.00  0.00    +0.000 A 
ATOM     20  C   UNL     1      49.036   4.326  18.688  0.00  0.00    +0.000 A 
ATOM     21  F   UNL     1      49.781   4.340  19.802  0.00  0.00    +0.000 F 
ATOM     22  C   UNL     1      49.108   5.388  17.798  0.00  0.00    +0.000 A 
ATOM     23  C   UNL     1      48.324   5.370  16.638  0.00  0.00    +0.000 A 
ENDBRANCH  15  17
ENDBRANCH  14  15
ENDBRANCH   6  14
TORSDOF 5
ENDMDL
MODEL 5
REMARK VINA RESULT:    -5.719      3.820      5.507
REMARK INTER + INTRA:          -8.077
REMARK INTER:                  -7.565
REMARK INTRA:                  -0.512
REMARK UNBOUND:                -0.687
REMARK  Name = 
REMARK  6 active torsions:
REMARK  status: ('A' for Active; 'I' for Inactive)
REMARK    1  A    between atoms: C_1  and  S_2
REMARK    2  A    between atoms: S_2  and  C_3
REMARK    3  A    between atoms: C_6  and  C_7
REMARK    4  A    between atoms: C_11  and  C_12
REMARK    5  A    between atoms: C_12  and  N_13
REMARK    6  A    between atoms: N_13  and  C_14
REMARK                            x       y       z     vdW  Elec       q    Type
REMARK                         _______ _______ _______ _____ _____    ______ ____
ROOT
ATOM      1  C   UNL     1      48.881   6.648  14.962  0.00  0.00    +0.000 A 
ATOM      2  N   UNL     1      49.412   6.492  16.200  0.00  0.00    +0.000 NA
ATOM      3  C   UNL     1      48.909   5.514  16.990  0.00  0.00    +0.000 A 
ATOM      4  C   UNL     1      47.896   4.653  16.601  0.00  0.00    +0.000 A 
ATOM      5  C   UNL     1      47.349   4.829  15.331  0.00  0.00    +0.000 A 
ATOM      6  C   UNL     1      47.823   5.853  14.488  0.00  0.00    +0.000 A 
ENDROOT
BRANCH   4   7
ATOM      7  C   UNL     1      47.445   3.611  17.547  0.00  0.00    +0.000 C 
ATOM      8  N   UNL     1      48.180   3.426  18.685  0.00  0.00    +0.000 N 
ATOM      9  O   UNL     1      46.433   2.956  17.335  0.00  0.00    +0.000 OA
ATOM     10  H   UNL     1      48.894   4.067  19.000  0.00  0.00    +0.000 HD
ATOM     11  H   UNL     1      47.817   2.762  19.358  0.00  0.00    +0.000 HD
ENDBRANCH   4   7
BRANCH   1  13
ATOM     12  C   UNL     1      51.259   8.080  14.705  0.00  0.00    +0.000 C 
ATOM     13  S   UNL     1      49.629   7.912  13.933  0.00  0.00    +0.000 S 
ENDBRANCH   1  13
BRANCH   6  14
ATOM     14  C   UNL     1      47.304   5.997  13.075  0.00  0.00    +0.000 C 
BRANCH  14  15
ATOM     15  N   UNL     1      45.858   5.752  12.979  0.00  0.00    +0.000 N 
ATOM     16  H   UNL     1      45.336   6.621  13.080  0.00  0.00    +0.000 HD
BRANCH  15  17
ATOM     17  C   UNL     1      45.426   5.069  11.820  0.00  0.00    +0.000 A 
ATOM     18  C   UNL     1      45.678   5.532  10.520  0.00  0.00    +0.000 A 
ATOM     19  C   UNL     1      45.265   4.806   9.400  0.00  0.00    +0.000 A 
ATOM     20  C   UNL     1      44.630   3.586   9.574  0.00  0.00    +0.000 A 
ATOM     21  F   UNL     1      44.231   2.891   8.500  0.00  0.00    +0.000 F 
ATOM     22  C   UNL     1      44.417   3.074  10.845  0.00  0.00    +0.000 A 
ATOM     23  C   UNL     1      44.832   3.807  11.963  0.00  0.00    +0.000 A 
ENDBRANCH  15  17
ENDBRANCH  14  15
ENDBRANCH   6  14
TORSDOF 5
ENDMDL
MODEL 6
REMARK VINA RESULT:    -5.620      4.640      7.119
REMARK INTER + INTRA:          -7.950
REMARK INTER:                  -7.438
REMARK INTRA:                  -0.512
REMARK UNBOUND:                -0.687
REMARK  Name = 
REMARK  6 active torsions:
REMARK  status: ('A' for Active; 'I' for Inactive)
REMARK    1  A    between atoms: C_1  and  S_2
REMARK    2  A    between atoms: S_2  and  C_3
REMARK    3  A    between atoms: C_6  and  C_7
REMARK    4  A    between atoms: C_11  and  C_12
REMARK    5  A    between atoms: C_12  and  N_13
REMARK    6  A    between atoms: N_13  and  C_14
REMARK                            x       y       z     vdW  Elec       q    Type
REMARK                         _______ _______ _______ _____ _____    ______ ____
ROOT
ATOM      1  C   UNL     1      46.810   6.720  12.464  0.00  0.00    +0.000 A 
ATOM      2  N   UNL     1      45.965   7.422  11.669  0.00  0.00    +0.000 NA
ATOM      3  C   UNL     1      44.739   6.899  11.424  0.00  0.00    +0.000 A 
ATOM      4  C   UNL     1      44.293   5.700  11.954  0.00  0.00    +0.000 A 
ATOM      5  C   UNL     1      45.174   4.980  12.759  0.00  0.00    +0.000 A 
ATOM      6  C   UNL     1      46.468   5.473  13.016  0.00  0.00    +0.000 A 
ENDROOT
BRANCH   4   7
ATOM      7  C   UNL     1      42.925   5.244  11.629  0.00  0.00    +0.000 C 
ATOM      8  N   UNL     1      41.912   6.157  11.724  0.00  0.00    +0.000 N 
ATOM      9  O   UNL     1      42.709   4.097  11.260  0.00  0.00    +0.000 OA
ATOM     10  H   UNL     1      42.064   7.151  11.824  0.00  0.00    +0.000 HD
ATOM     11  H   UNL     1      40.994   5.851  11.426  0.00  0.00    +0.000 HD
ENDBRANCH   4   7
BRANCH   1  13
ATOM     12  C   UNL     1      47.984   8.516  14.243  0.00  0.00    +0.000 C 
ATOM     13  S   UNL     1      48.394   7.488  12.809  0.00  0.00    +0.000 S 
ENDBRANCH   1  13
BRANCH   6  14
ATOM     14  C   UNL     1      47.400   4.751  13.962  0.00  0.00    +0.000 C 
BRANCH  14  15
ATOM     15  N   UNL     1      46.741   4.367  15.218  0.00  0.00    +0.000 N 
ATOM     16  H   UNL     1      46.287   3.459  15.127  0.00  0.00    +0.000 HD
BRANCH  15  17
ATOM     17  C   UNL     1      47.559   4.377  16.370  0.00  0.00    +0.000 A 
ATOM     18  C   UNL     1      48.390   5.455  16.708  0.00  0.00    +0.000 A 
ATOM     19  C   UNL     1      49.156   5.441  17.877  0.00  0.00    +0.000 A 
ATOM     20  C   UNL     1      49.063   4.360  18.740  0.00  0.00    +0.000 A 
ATOM     21  F   UNL     1      49.798   4.344  19.860  0.00  0.00    +0.000 F 
ATOM     22  C   UNL     1      48.206   3.305  18.463  0.00  0.00    +0.000 A 
ATOM     23  C   UNL     1      47.443   3.325  17.289  0.00  0.00    +0.000 A 
ENDBRANCH  15  17
ENDBRANCH  14  15
ENDBRANCH   6  14
TORSDOF 5
ENDMDL
MODEL 7
REMARK VINA RESULT:    -5.507      2.682      3.679
REMARK INTER + INTRA:          -7.803
REMARK INTER:                  -7.214
REMARK INTRA:                  -0.590
REMARK UNBOUND:                -0.687
REMARK  Name = 
REMARK  6 active torsions:
REMARK  status: ('A' for Active; 'I' for Inactive)
REMARK    1  A    between atoms: C_1  and  S_2
REMARK    2  A    between atoms: S_2  and  C_3
REMARK    3  A    between atoms: C_6  and  C_7
REMARK    4  A    between atoms: C_11  and  C_12
REMARK    5  A    between atoms: C_12  and  N_13
REMARK    6  A    between atoms: N_13  and  C_14
REMARK                            x       y       z     vdW  Elec       q    Type
REMARK                         _______ _______ _______ _____ _____    ______ ____
ROOT
ATOM      1  C   UNL     1      47.844   5.265  15.243  0.00  0.00    +0.000 A 
ATOM      2  N   UNL     1      48.871   6.059  15.634  0.00  0.00    +0.000 NA
ATOM      3  C   UNL     1      49.290   7.024  14.779  0.00  0.00    +0.000 A 
ATOM      4  C   UNL     1      48.719   7.257  13.540  0.00  0.00    +0.000 A 
ATOM      5  C   UNL     1      47.672   6.427  13.143  0.00  0.00    +0.000 A 
ATOM      6  C   UNL     1      47.224   5.393  13.988  0.00  0.00    +0.000 A 
ENDROOT
BRANCH   4   7
ATOM      7  C   UNL     1      49.253   8.353  12.705  0.00  0.00    +0.000 C 
ATOM      8  N   UNL     1      49.949   9.348  13.333  0.00  0.00    +0.000 N 
ATOM      9  O   UNL     1      49.103   8.357  11.490  0.00  0.00    +0.000 OA
ATOM     10  H   UNL     1      50.270   9.288  14.289  0.00  0.00    +0.000 HD
ATOM     11  H   UNL     1      50.372  10.052  12.740  0.00  0.00    +0.000 HD
ENDBRANCH   4   7
BRANCH   1  13
ATOM     12  C   UNL     1      47.485   4.961  17.991  0.00  0.00    +0.000 C 
ATOM     13  S   UNL     1      47.284   4.050  16.439  0.00  0.00    +0.000 S 
ENDBRANCH   1  13
BRANCH   6  14
ATOM     14  C   UNL     1      46.030   4.546  13.612  0.00  0.00    +0.000 C 
BRANCH  14  15
ATOM     15  N   UNL     1      45.117   5.236  12.689  0.00  0.00    +0.000 N 
ATOM     16  H   UNL     1      45.311   6.236  12.669  0.00  0.00    +0.000 HD
BRANCH  15  17
ATOM     17  C   UNL     1      45.078   4.731  11.371  0.00  0.00    +0.000 A 
ATOM     18  C   UNL     1      45.568   5.440  10.265  0.00  0.00    +0.000 A 
ATOM     19  C   UNL     1      45.544   4.888   8.981  0.00  0.00    +0.000 A 
ATOM     20  C   UNL     1      45.064   3.600   8.801  0.00  0.00    +0.000 A 
ATOM     21  F   UNL     1      45.037   3.071   7.571  0.00  0.00    +0.000 F 
ATOM     22  C   UNL     1      44.625   2.851   9.883  0.00  0.00    +0.000 A 
ATOM     23  C   UNL     1      44.651   3.411  11.167  0.00  0.00    +0.000 A 
ENDBRANCH  15  17
ENDBRANCH  14  15
ENDBRANCH   6  14
TORSDOF 5
ENDMDL
MODEL 8
REMARK VINA RESULT:    -5.054      4.721      6.671
REMARK INTER + INTRA:          -7.218
REMARK INTER:                  -6.593
REMARK INTRA:                  -0.625
REMARK UNBOUND:                -0.687
REMARK  Name = 
REMARK  6 active torsions:
REMARK  status: ('A' for Active; 'I' for Inactive)
REMARK    1  A    between atoms: C_1  and  S_2
REMARK    2  A    between atoms: S_2  and  C_3
REMARK    3  A    between atoms: C_6  and  C_7
REMARK    4  A    between atoms: C_11  and  C_12
REMARK    5  A    between atoms: C_12  and  N_13
REMARK    6  A    between atoms: N_13  and  C_14
REMARK                            x       y       z     vdW  Elec       q    Type
REMARK                         _______ _______ _______ _____ _____    ______ ____
ROOT
ATOM      1  C   UNL     1      48.977   7.273  16.513  0.00  0.00    +0.000 A 
ATOM      2  N   UNL     1      49.099   6.953  17.825  0.00  0.00    +0.000 NA
ATOM      3  C   UNL     1      48.647   5.742  18.230  0.00  0.00    +0.000 A 
ATOM      4  C   UNL     1      48.084   4.805  17.379  0.00  0.00    +0.000 A 
ATOM      5  C   UNL     1      47.951   5.149  16.035  0.00  0.00    +0.000 A 
ATOM      6  C   UNL     1      48.382   6.410  15.577  0.00  0.00    +0.000 A 
ENDROOT
BRANCH   4   7
ATOM      7  C   UNL     1      47.645   3.510  17.938  0.00  0.00    +0.000 C 
ATOM      8  N   UNL     1      48.306   3.035  19.036  0.00  0.00    +0.000 N 
ATOM      9  O   UNL     1      46.704   2.895  17.453  0.00  0.00    +0.000 OA
ATOM     10  H   UNL     1      48.945   3.591  19.588  0.00  0.00    +0.000 HD
ATOM     11  H   UNL     1      47.947   2.184  19.451  0.00  0.00    +0.000 HD
ENDBRANCH   4   7
BRANCH   1  13
ATOM     12  C   UNL     1      48.446  10.000  16.742  0.00  0.00    +0.000 C 
ATOM     13  S   UNL     1      49.653   8.859  16.019  0.00  0.00    +0.000 S 
ENDBRANCH   1  13
BRANCH   6  14
ATOM     14  C   UNL     1      48.330   6.760  14.107  0.00  0.00    +0.000 C 
BRANCH  14  15
ATOM     15  N   UNL     1      47.877   5.636  13.275  0.00  0.00    +0.000 N 
ATOM     16  H   UNL     1      47.983   4.753  13.772  0.00  0.00    +0.000 HD
BRANCH  15  17
ATOM     17  C   UNL     1      46.566   5.741  12.762  0.00  0.00    +0.000 A 
ATOM     18  C   UNL     1      45.484   5.008  13.272  0.00  0.00    +0.000 A 
ATOM     19  C   UNL     1      44.193   5.169  12.760  0.00  0.00    +0.000 A 
ATOM     20  C   UNL     1      43.970   6.098  11.755  0.00  0.00    +0.000 A 
ATOM     21  F   UNL     1      42.734   6.252  11.261  0.00  0.00    +0.000 F 
ATOM     22  C   UNL     1      45.008   6.879  11.269  0.00  0.00    +0.000 A 
ATOM     23  C   UNL     1      46.298   6.712  11.786  0.00  0.00    +0.000 A 
ENDBRANCH  15  17
ENDBRANCH  14  15
ENDBRANCH   6  14
TORSDOF 5
ENDMDL
MODEL 9
REMARK VINA RESULT:    -4.898      4.561      6.952
REMARK INTER + INTRA:          -7.017
REMARK INTER:                  -6.439
REMARK INTRA:                  -0.578
REMARK UNBOUND:                -0.687
REMARK  Name = 
REMARK  6 active torsions:
REMARK  status: ('A' for Active; 'I' for Inactive)
REMARK    1  A    between atoms: C_1  and  S_2
REMARK    2  A    between atoms: S_2  and  C_3
REMARK    3  A    between atoms: C_6  and  C_7
REMARK    4  A    between atoms: C_11  and  C_12
REMARK    5  A    between atoms: C_12  and  N_13
REMARK    6  A    between atoms: N_13  and  C_14
REMARK                            x       y       z     vdW  Elec       q    Type
REMARK                         _______ _______ _______ _____ _____    ______ ____
ROOT
ATOM      1  C   UNL     1      46.870   8.062  12.444  0.00  0.00    +0.000 A 
ATOM      2  N   UNL     1      45.705   8.337  11.808  0.00  0.00    +0.000 NA
ATOM      3  C   UNL     1      44.745   7.382  11.797  0.00  0.00    +0.000 A 
ATOM      4  C   UNL     1      44.877   6.148  12.412  0.00  0.00    +0.000 A 
ATOM      5  C   UNL     1      46.084   5.871  13.053  0.00  0.00    +0.000 A 
ATOM      6  C   UNL     1      47.120   6.826  13.063  0.00  0.00    +0.000 A 
ENDROOT
BRANCH   4   7
ATOM      7  C   UNL     1      43.750   5.196  12.347  0.00  0.00    +0.000 C 
ATOM      8  N   UNL     1      42.634   5.482  13.083  0.00  0.00    +0.000 N 
ATOM      9  O   UNL     1      43.800   4.199  11.638  0.00  0.00    +0.000 OA
ATOM     10  H   UNL     1      42.465   6.379  13.517  0.00  0.00    +0.000 HD
ATOM     11  H   UNL     1      41.842   4.860  12.970  0.00  0.00    +0.000 HD
ENDBRANCH   4   7
BRANCH   1  13
ATOM     12  C   UNL     1      47.137  10.752  11.762  0.00  0.00    +0.000 C 
ATOM     13  S   UNL     1      48.081   9.386  12.486  0.00  0.00    +0.000 S 
ENDBRANCH   1  13
BRANCH   6  14
ATOM     14  C   UNL     1      48.397   6.575  13.833  0.00  0.00    +0.000 C 
BRANCH  14  15
ATOM     15  N   UNL     1      48.244   6.819  15.274  0.00  0.00    +0.000 N 
ATOM     16  H   UNL     1      47.357   7.279  15.471  0.00  0.00    +0.000 HD
BRANCH  15  17
ATOM     17  C   UNL     1      48.391   5.688  16.107  0.00  0.00    +0.000 A 
ATOM     18  C   UNL     1      47.557   4.564  16.026  0.00  0.00    +0.000 A 
ATOM     19  C   UNL     1      47.760   3.449  16.845  0.00  0.00    +0.000 A 
ATOM     20  C   UNL     1      48.830   3.437  17.726  0.00  0.00    +0.000 A 
ATOM     21  F   UNL     1      49.025   2.371  18.514  0.00  0.00    +0.000 F 
ATOM     22  C   UNL     1      49.707   4.510  17.790  0.00  0.00    +0.000 A 
ATOM     23  C   UNL     1      49.497   5.624  16.967  0.00  0.00    +0.000 A 
ENDBRANCH  15  17
ENDBRANCH  14  15
ENDBRANCH   6  14
TORSDOF 5
ENDMDL
