MODEL 1
REMARK VINA RESULT:    -6.909      0.000      0.000
REMARK INTER + INTRA:          -8.031
REMARK INTER:                  -7.717
REMARK INTRA:                  -0.314
REMARK UNBOUND:                -0.314
REMARK  Name = 
REMARK  4 active torsions:
REMARK  status: ('A' for Active; 'I' for Inactive)
REMARK    1  A    between atoms: C_1  and  C_2
REMARK    2  A    between atoms: C_9  and  C_10
REMARK    3  A    between atoms: C_13  and  C_14
REMARK    4  A    between atoms: C_21  and  C_22
REMARK                            x       y       z     vdW  Elec       q    Type
REMARK                         _______ _______ _______ _____ _____    ______ ____
ROOT
ATOM      1  C   UNL     1      48.573   8.029  19.227  0.00  0.00    +0.000 C 
ATOM      2  C   UNL     1      49.713   7.023  19.098  0.00  0.00    +0.000 C 
ATOM      3  C   UNL     1      50.374   7.018  17.703  0.00  0.00    +0.000 C 
ATOM      4  N   UNL     1      49.634   6.175  16.771  0.00  0.00    +0.000 N 
ATOM      5  C   UNL     1      49.032   6.691  15.655  0.00  0.00    +0.000 A 
ATOM      6  N   UNL     1      49.250   7.971  15.327  0.00  0.00    +0.000 NA
ATOM      7  C   UNL     1      48.665   8.443  14.213  0.00  0.00    +0.000 A 
ATOM      8  C   UNL     1      47.857   7.686  13.406  0.00  0.00    +0.000 A 
ATOM      9  C   UNL     1      47.663   6.379  13.803  0.00  0.00    +0.000 A 
ATOM     10  N   UNL     1      48.254   5.884  14.915  0.00  0.00    +0.000 NA
ATOM     11  C   UNL     1      49.337   4.830  17.248  0.00  0.00    +0.000 C 
ATOM     12  C   UNL     1      48.634   4.885  18.617  0.00  0.00    +0.000 C 
ATOM     13  C   UNL     1      47.150   5.232  18.520  0.00  0.00    +0.000 C 
ATOM     14  O   UNL     1      49.327   5.718  19.564  0.00  0.00    +0.000 OA
ENDROOT
BRANCH   9  15
ATOM     15  C   UNL     1      46.782   5.452  13.066  0.00  0.00    +0.000 A 
ATOM     16  C   UNL     1      46.511   4.154  13.512  0.00  0.00    +0.000 A 
ATOM     17  N   UNL     1      45.666   3.290  12.882  0.00  0.00    +0.000 NA
ATOM     18  C   UNL     1      45.088   3.788  11.755  0.00  0.00    +0.000 A 
ATOM     19  C   UNL     1      45.350   5.066  11.288  0.00  0.00    +0.000 A 
ATOM     20  N   UNL     1      46.198   5.918  11.924  0.00  0.00    +0.000 NA
BRANCH  18  21
ATOM     21  C   UNL     1      44.130   2.916  11.022  0.00  0.00    +0.000 C 
ATOM     22  N   UNL     1      44.627   2.279   9.921  0.00  0.00    +0.000 N 
ATOM     23  O   UNL     1      42.970   2.770  11.388  0.00  0.00    +0.000 OA
ATOM     24  H   UNL     1      45.596   2.410   9.650  0.00  0.00    +0.000 HD
ATOM     25  H   UNL     1      44.032   1.657   9.392  0.00  0.00    +0.000 HD
ENDBRANCH  18  21
ENDBRANCH   9  15
TORSDOF 2
ENDMDL
MODEL 2
REMARK VINA RESULT:    -6.566      1.951      7.337
REMARK INTER + INTRA:          -7.647
REMARK INTER:                  -7.335
REMARK INTRA:                  -0.312
REMARK UNBOUND:                -0.314
REMARK  Name = 
REMARK  4 active torsions:
REMARK  status: ('A' for Active; 'I' for Inactive)
REMARK    1  A    between atoms: C_1  and  C_2
REMARK    2  A    between atoms: C_9  and  C_10
REMARK    3  A    between atoms: C_13  and  C_14
REMARK    4  A    between atoms: C_21  and  C_22
REMARK                            x       y       z     vdW  Elec       q    Type
REMARK                         _______ _______ _______ _____ _____    ______ ____
ROOT
ATOM      1  C   UNL     1      44.963   3.889   9.410  0.00  0.00    +0.000 C 
ATOM      2  C   UNL     1      43.781   4.615  10.045  0.00  0.00    +0.000 C 
ATOM      3  C   UNL     1      44.165   5.955  10.708  0.00  0.00    +0.000 C 
ATOM      4  N   UNL     1      44.661   5.750  12.064  0.00  0.00    +0.000 N 
ATOM      5  C   UNL     1      45.944   6.071  12.417  0.00  0.00    +0.000 A 
ATOM      6  N   UNL     1      46.720   6.725  11.542  0.00  0.00    +0.000 NA
ATOM      7  C   UNL     1      47.967   7.047  11.925  0.00  0.00    +0.000 A 
ATOM      8  C   UNL     1      48.482   6.736  13.156  0.00  0.00    +0.000 A 
ATOM      9  C   UNL     1      47.639   6.053  14.007  0.00  0.00    +0.000 A 
ATOM     10  N   UNL     1      46.376   5.731  13.642  0.00  0.00    +0.000 NA
ATOM     11  C   UNL     1      43.814   4.932  12.922  0.00  0.00    +0.000 C 
ATOM     12  C   UNL     1      43.498   3.586  12.242  0.00  0.00    +0.000 C 
ATOM     13  C   UNL     1      44.644   2.581  12.332  0.00  0.00    +0.000 C 
ATOM     14  O   UNL     1      43.015   3.743  10.896  0.00  0.00    +0.000 OA
ENDROOT
BRANCH   9  15
ATOM     15  C   UNL     1      48.063   5.605  15.348  0.00  0.00    +0.000 A 
ATOM     16  C   UNL     1      48.890   6.374  16.174  0.00  0.00    +0.000 A 
ATOM     17  N   UNL     1      49.261   6.012  17.434  0.00  0.00    +0.000 NA
ATOM     18  C   UNL     1      48.760   4.816  17.848  0.00  0.00    +0.000 A 
ATOM     19  C   UNL     1      47.949   4.032  17.044  0.00  0.00    +0.000 A 
ATOM     20  N   UNL     1      47.588   4.403  15.786  0.00  0.00    +0.000 NA
BRANCH  18  21
ATOM     21  C   UNL     1      49.097   4.360  19.225  0.00  0.00    +0.000 C 
ATOM     22  N   UNL     1      48.415   3.264  19.673  0.00  0.00    +0.000 N 
ATOM     23  O   UNL     1      49.938   4.927  19.911  0.00  0.00    +0.000 OA
ATOM     24  H   UNL     1      47.732   2.810  19.076  0.00  0.00    +0.000 HD
ATOM     25  H   UNL     1      48.613   2.895  20.592  0.00  0.00    +0.000 HD
ENDBRANCH  18  21
ENDBRANCH   9  15
TORSDOF 2
ENDMDL
MODEL 3
REMARK VINA RESULT:    -6.038      1.835      3.233
REMARK INTER + INTRA:          -7.058
REMARK INTER:                  -6.746
REMARK INTRA:                  -0.312
REMARK UNBOUND:                -0.314
REMARK  Name = 
REMARK  4 active torsions:
REMARK  status: ('A' for Active; 'I' for Inactive)
REMARK    1  A    between atoms: C_1  and  C_2
REMARK    2  A    between atoms: C_9  and  C_10
REMARK    3  A    between atoms: C_13  and  C_14
REMARK    4  A    between atoms: C_21  and  C_22
REMARK                            x       y       z     vdW  Elec       q    Type
REMARK                         _______ _______ _______ _____ _____    ______ ____
ROOT
ATOM      1  C   UNL     1      52.395   6.321  16.933  0.00  0.00    +0.000 C 
ATOM      2  C   UNL     1      51.467   7.256  17.701  0.00  0.00    +0.000 C 
ATOM      3  C   UNL     1      50.171   6.573  18.188  0.00  0.00    +0.000 C 
ATOM      4  N   UNL     1      49.156   6.560  17.140  0.00  0.00    +0.000 N 
ATOM      5  C   UNL     1      48.682   5.389  16.612  0.00  0.00    +0.000 A 
ATOM      6  N   UNL     1      49.045   4.226  17.168  0.00  0.00    +0.000 NA
ATOM      7  C   UNL     1      48.545   3.095  16.643  0.00  0.00    +0.000 A 
ATOM      8  C   UNL     1      47.694   3.073  15.570  0.00  0.00    +0.000 A 
ATOM      9  C   UNL     1      47.367   4.301  15.035  0.00  0.00    +0.000 A 
ATOM     10  N   UNL     1      47.852   5.451  15.559  0.00  0.00    +0.000 NA
ATOM     11  C   UNL     1      48.899   7.846  16.504  0.00  0.00    +0.000 C 
ATOM     12  C   UNL     1      50.212   8.466  15.990  0.00  0.00    +0.000 C 
ATOM     13  C   UNL     1      50.694   7.856  14.675  0.00  0.00    +0.000 C 
ATOM     14  O   UNL     1      51.245   8.488  16.991  0.00  0.00    +0.000 OA
ENDROOT
BRANCH   9  15
ATOM     15  C   UNL     1      46.500   4.441  13.848  0.00  0.00    +0.000 A 
ATOM     16  C   UNL     1      46.137   5.685  13.321  0.00  0.00    +0.000 A 
ATOM     17  N   UNL     1      45.379   5.849  12.200  0.00  0.00    +0.000 NA
ATOM     18  C   UNL     1      44.985   4.687  11.611  0.00  0.00    +0.000 A 
ATOM     19  C   UNL     1      45.323   3.444  12.121  0.00  0.00    +0.000 A 
ATOM     20  N   UNL     1      46.077   3.293  13.243  0.00  0.00    +0.000 NA
BRANCH  18  21
ATOM     21  C   UNL     1      44.176   4.779  10.365  0.00  0.00    +0.000 C 
ATOM     22  N   UNL     1      44.851   4.558   9.198  0.00  0.00    +0.000 N 
ATOM     23  O   UNL     1      42.977   5.029  10.384  0.00  0.00    +0.000 OA
ATOM     24  H   UNL     1      45.842   4.342   9.216  0.00  0.00    +0.000 HD
ATOM     25  H   UNL     1      44.353   4.588   8.320  0.00  0.00    +0.000 HD
ENDBRANCH  18  21
ENDBRANCH   9  15
TORSDOF 2
ENDMDL
MODEL 4
REMARK VINA RESULT:    -5.958      2.772      4.445
REMARK INTER + INTRA:          -6.969
REMARK INTER:                  -6.662
REMARK INTRA:                  -0.308
REMARK UNBOUND:                -0.314
REMARK  Name = 
REMARK  4 active torsions:
REMARK  status: ('A' for Active; 'I' for Inactive)
REMARK    1  A    between atoms: C_1  and  C_2
REMARK    2  A    between atoms: C_9  and  C_10
REMARK    3  A    between atoms: C_13  and  C_14
REMARK    4  A    between atoms: C_21  and  C_22
REMARK                            x       y       z     vdW  Elec       q    Type
REMARK                         _______ _______ _______ _____ _____    ______ ____
ROOT
ATOM      1  C   UNL     1      53.041   8.562  13.523  0.00  0.00    +0.000 C 
ATOM      2  C   UNL     1      52.174   9.776  13.205  0.00  0.00    +0.000 C 
ATOM      3  C   UNL     1      50.885   9.850  14.050  0.00  0.00    +0.000 C 
ATOM      4  N   UNL     1      49.822   9.041  13.464  0.00  0.00    +0.000 N 
ATOM      5  C   UNL     1      49.293   7.962  14.120  0.00  0.00    +0.000 A 
ATOM      6  N   UNL     1      49.651   7.729  15.390  0.00  0.00    +0.000 NA
ATOM      7  C   UNL     1      49.098   6.676  16.015  0.00  0.00    +0.000 A 
ATOM      8  C   UNL     1      48.197   5.833  15.420  0.00  0.00    +0.000 A 
ATOM      9  C   UNL     1      47.877   6.119  14.109  0.00  0.00    +0.000 A 
ATOM     10  N   UNL     1      48.417   7.182  13.468  0.00  0.00    +0.000 NA
ATOM     11  C   UNL     1      49.569   9.274  12.048  0.00  0.00    +0.000 C 
ATOM     12  C   UNL     1      50.873   9.142  11.238  0.00  0.00    +0.000 C 
ATOM     13  C   UNL     1      51.276   7.692  10.977  0.00  0.00    +0.000 C 
ATOM     14  O   UNL     1      51.951   9.916  11.790  0.00  0.00    +0.000 OA
ENDROOT
BRANCH   9  15
ATOM     15  C   UNL     1      46.960   5.277  13.317  0.00  0.00    +0.000 A 
ATOM     16  C   UNL     1      46.667   3.952  13.659  0.00  0.00    +0.000 A 
ATOM     17  N   UNL     1      45.789   3.164  12.978  0.00  0.00    +0.000 NA
ATOM     18  C   UNL     1      45.200   3.767  11.910  0.00  0.00    +0.000 A 
ATOM     19  C   UNL     1      45.483   5.074  11.546  0.00  0.00    +0.000 A 
ATOM     20  N   UNL     1      46.364   5.850  12.232  0.00  0.00    +0.000 NA
BRANCH  18  21
ATOM     21  C   UNL     1      44.207   2.981  11.128  0.00  0.00    +0.000 C 
ATOM     22  N   UNL     1      44.710   2.251  10.089  0.00  0.00    +0.000 N 
ATOM     23  O   UNL     1      43.014   2.981  11.404  0.00  0.00    +0.000 OA
ATOM     24  H   UNL     1      45.705   2.262   9.893  0.00  0.00    +0.000 HD
ATOM     25  H   UNL     1      44.089   1.681   9.532  0.00  0.00    +0.000 HD
ENDBRANCH  18  21
ENDBRANCH   9  15
TORSDOF 2
ENDMDL
MODEL 5
REMARK VINA RESULT:    -5.763      2.172      3.610
REMARK INTER + INTRA:          -6.751
REMARK INTER:                  -6.445
REMARK INTRA:                  -0.306
REMARK UNBOUND:                -0.314
REMARK  Name = 
REMARK  4 active torsions:
REMARK  status: ('A' for Active; 'I' for Inactive)
REMARK    1  A    between atoms: C_1  and  C_2
REMARK    2  A    between atoms: C_9  and  C_10
REMARK    3  A    between atoms: C_13  and  C_14
REMARK    4  A    between atoms: C_21  and  C_22
REMARK                            x       y       z     vdW  Elec       q    Type
REMARK                         _______ _______ _______ _____ _____    ______ ____
ROOT
ATOM      1  C   UNL     1      52.686   4.982  18.565  0.00  0.00    +0.000 C 
ATOM      2  C   UNL     1      51.929   6.108  19.263  0.00  0.00    +0.000 C 
ATOM      3  C   UNL     1      50.442   5.782  19.523  0.00  0.00    +0.000 C 
ATOM      4  N   UNL     1      49.625   6.070  18.349  0.00  0.00    +0.000 N 
ATOM      5  C   UNL     1      48.947   5.085  17.684  0.00  0.00    +0.000 A 
ATOM      6  N   UNL     1      48.909   3.851  18.205  0.00  0.00    +0.000 NA
ATOM      7  C   UNL     1      48.216   2.910  17.542  0.00  0.00    +0.000 A 
ATOM      8  C   UNL     1      47.557   3.148  16.364  0.00  0.00    +0.000 A 
ATOM      9  C   UNL     1      47.643   4.434  15.874  0.00  0.00    +0.000 A 
ATOM     10  N   UNL     1      48.327   5.397  16.535  0.00  0.00    +0.000 NA
ATOM     11  C   UNL     1      49.808   7.396  17.772  0.00  0.00    +0.000 C 
ATOM     12  C   UNL     1      51.298   7.659  17.483  0.00  0.00    +0.000 C 
ATOM     13  C   UNL     1      51.794   6.981  16.208  0.00  0.00    +0.000 C 
ATOM     14  O   UNL     1      52.142   7.375  18.614  0.00  0.00    +0.000 OA
ENDROOT
BRANCH   9  15
ATOM     15  C   UNL     1      47.027   4.834  14.594  0.00  0.00    +0.000 A 
ATOM     16  C   UNL     1      47.440   5.964  13.879  0.00  0.00    +0.000 A 
ATOM     17  N   UNL     1      46.927   6.335  12.673  0.00  0.00    +0.000 NA
ATOM     18  C   UNL     1      45.956   5.509  12.195  0.00  0.00    +0.000 A 
ATOM     19  C   UNL     1      45.523   4.392  12.890  0.00  0.00    +0.000 A 
ATOM     20  N   UNL     1      46.041   4.034  14.096  0.00  0.00    +0.000 NA
BRANCH  18  21
ATOM     21  C   UNL     1      45.362   5.830  10.868  0.00  0.00    +0.000 C 
ATOM     22  N   UNL     1      44.208   6.560  10.893  0.00  0.00    +0.000 N 
ATOM     23  O   UNL     1      45.880   5.470   9.819  0.00  0.00    +0.000 OA
ATOM     24  H   UNL     1      43.809   6.854  11.779  0.00  0.00    +0.000 HD
ATOM     25  H   UNL     1      43.767   6.827  10.024  0.00  0.00    +0.000 HD
ENDBRANCH  18  21
ENDBRANCH   9  15
TORSDOF 2
ENDMDL
MODEL 6
REMARK VINA RESULT:    -5.759      3.615      5.448
REMARK INTER + INTRA:          -6.747
REMARK INTER:                  -6.420
REMARK INTRA:                  -0.326
REMARK UNBOUND:                -0.314
REMARK  Name = 
REMARK  4 active torsions:
REMARK  status: ('A' for Active; 'I' for Inactive)
REMARK    1  A    between atoms: C_1  and  C_2
REMARK    2  A    between atoms: C_9  and  C_10
REMARK    3  A    between atoms: C_13  and  C_14
REMARK    4  A    between atoms: C_21  and  C_22
REMARK                            x       y       z     vdW  Elec       q    Type
REMARK                         _______ _______ _______ _____ _____    ______ ____
ROOT
ATOM      1  C   UNL     1      47.943   7.702  15.197  0.00  0.00    +0.000 C 
ATOM      2  C   UNL     1      47.748   8.924  14.305  0.00  0.00    +0.000 C 
ATOM      3  C   UNL     1      46.408   8.918  13.538  0.00  0.00    +0.000 C 
ATOM      4  N   UNL     1      46.508   8.139  12.308  0.00  0.00    +0.000 N 
ATOM      5  C   UNL     1      45.762   7.009  12.110  0.00  0.00    +0.000 A 
ATOM      6  N   UNL     1      44.811   6.688  12.998  0.00  0.00    +0.000 NA
ATOM      7  C   UNL     1      44.080   5.585  12.765  0.00  0.00    +0.000 A 
ATOM      8  C   UNL     1      44.263   4.775  11.675  0.00  0.00    +0.000 A 
ATOM      9  C   UNL     1      45.263   5.152  10.805  0.00  0.00    +0.000 A 
ATOM     10  N   UNL     1      46.002   6.266  11.018  0.00  0.00    +0.000 NA
ATOM     11  C   UNL     1      47.637   8.471  11.449  0.00  0.00    +0.000 C 
ATOM     12  C   UNL     1      48.955   8.416  12.243  0.00  0.00    +0.000 C 
ATOM     13  C   UNL     1      49.472   6.995  12.456  0.00  0.00    +0.000 C 
ATOM     14  O   UNL     1      48.896   9.163  13.471  0.00  0.00    +0.000 OA
ENDROOT
BRANCH   9  15
ATOM     15  C   UNL     1      45.614   4.357   9.611  0.00  0.00    +0.000 A 
ATOM     16  C   UNL     1      46.227   4.916   8.485  0.00  0.00    +0.000 A 
ATOM     17  N   UNL     1      46.607   4.203   7.388  0.00  0.00    +0.000 NA
ATOM     18  C   UNL     1      46.341   2.870   7.462  0.00  0.00    +0.000 A 
ATOM     19  C   UNL     1      45.725   2.296   8.562  0.00  0.00    +0.000 A 
ATOM     20  N   UNL     1      45.347   3.019   9.650  0.00  0.00    +0.000 NA
BRANCH  18  21
ATOM     21  C   UNL     1      46.750   2.016   6.314  0.00  0.00    +0.000 C 
ATOM     22  N   UNL     1      46.779   2.631   5.094  0.00  0.00    +0.000 N 
ATOM     23  O   UNL     1      47.051   0.837   6.454  0.00  0.00    +0.000 OA
ATOM     24  H   UNL     1      46.535   3.612   5.012  0.00  0.00    +0.000 HD
ATOM     25  H   UNL     1      47.067   2.109   4.279  0.00  0.00    +0.000 HD
ENDBRANCH  18  21
ENDBRANCH   9  15
TORSDOF 2
ENDMDL
MODEL 7
REMARK VINA RESULT:    -5.037      2.423      7.427
REMARK INTER + INTRA:          -5.940
REMARK INTER:                  -5.628
REMARK INTRA:                  -0.311
REMARK UNBOUND:                -0.314
REMARK  Name = 
REMARK  4 active torsions:
REMARK  status: ('A' for Active; 'I' for Inactive)
REMARK    1  A    between atoms: C_1  and  C_2
REMARK    2  A    between atoms: C_9  and  C_10
REMARK    3  A    between atoms: C_13  and  C_14
REMARK    4  A    between atoms: C_21  and  C_22
REMARK                            x       y       z     vdW  Elec       q    Type
REMARK                         _______ _______ _______ _____ _____    ______ ____
ROOT
ATOM      1  C   UNL     1      44.041   4.542   9.602  0.00  0.00    +0.000 C 
ATOM      2  C   UNL     1      43.072   4.465  10.778  0.00  0.00    +0.000 C 
ATOM      3  C   UNL     1      42.978   5.778  11.585  0.00  0.00    +0.000 C 
ATOM      4  N   UNL     1      44.044   5.865  12.576  0.00  0.00    +0.000 N 
ATOM      5  C   UNL     1      44.997   6.847  12.523  0.00  0.00    +0.000 A 
ATOM      6  N   UNL     1      44.866   7.839  11.632  0.00  0.00    +0.000 NA
ATOM      7  C   UNL     1      45.804   8.801  11.620  0.00  0.00    +0.000 A 
ATOM      8  C   UNL     1      46.883   8.813  12.463  0.00  0.00    +0.000 A 
ATOM      9  C   UNL     1      46.968   7.760  13.350  0.00  0.00    +0.000 A 
ATOM     10  N   UNL     1      46.026   6.789  13.384  0.00  0.00    +0.000 NA
ATOM     11  C   UNL     1      44.196   4.697  13.434  0.00  0.00    +0.000 C 
ATOM     12  C   UNL     1      44.337   3.419  12.587  0.00  0.00    +0.000 C 
ATOM     13  C   UNL     1      45.735   3.232  12.002  0.00  0.00    +0.000 C 
ATOM     14  O   UNL     1      43.309   3.299  11.588  0.00  0.00    +0.000 OA
ENDROOT
BRANCH   9  15
ATOM     15  C   UNL     1      48.096   7.606  14.290  0.00  0.00    +0.000 A 
ATOM     16  C   UNL     1      48.389   6.395  14.925  0.00  0.00    +0.000 A 
ATOM     17  N   UNL     1      49.449   6.207  15.759  0.00  0.00    +0.000 NA
ATOM     18  C   UNL     1      50.227   7.309  15.941  0.00  0.00    +0.000 A 
ATOM     19  C   UNL     1      49.950   8.522  15.332  0.00  0.00    +0.000 A 
ATOM     20  N   UNL     1      48.886   8.698  14.503  0.00  0.00    +0.000 NA
BRANCH  18  21
ATOM     21  C   UNL     1      51.422   7.179  16.818  0.00  0.00    +0.000 C 
ATOM     22  N   UNL     1      52.405   6.343  16.367  0.00  0.00    +0.000 N 
ATOM     23  O   UNL     1      51.525   7.789  17.875  0.00  0.00    +0.000 OA
ATOM     24  H   UNL     1      52.296   5.860  15.481  0.00  0.00    +0.000 HD
ATOM     25  H   UNL     1      53.250   6.228  16.908  0.00  0.00    +0.000 HD
ENDBRANCH  18  21
ENDBRANCH   9  15
TORSDOF 2
ENDMDL
MODEL 8
REMARK VINA RESULT:    -4.451      2.481      4.149
REMARK INTER + INTRA:          -5.286
REMARK INTER:                  -4.969
REMARK INTRA:                  -0.317
REMARK UNBOUND:                -0.314
REMARK  Name = 
REMARK  4 active torsions:
REMARK  status: ('A' for Active; 'I' for Inactive)
REMARK    1  A    between atoms: C_1  and  C_2
REMARK    2  A    between atoms: C_9  and  C_10
REMARK    3  A    between atoms: C_13  and  C_14
REMARK    4  A    between atoms: C_21  and  C_22
REMARK                            x       y       z     vdW  Elec       q    Type
REMARK                         _______ _______ _______ _____ _____    ______ ____
ROOT
ATOM      1  C   UNL     1      53.985   4.953  18.542  0.00  0.00    +0.000 C 
ATOM      2  C   UNL     1      53.536   6.295  19.110  0.00  0.00    +0.000 C 
ATOM      3  C   UNL     1      52.073   6.296  19.603  0.00  0.00    +0.000 C 
ATOM      4  N   UNL     1      51.147   6.546  18.504  0.00  0.00    +0.000 N 
ATOM      5  C   UNL     1      50.224   5.612  18.114  0.00  0.00    +0.000 A 
ATOM      6  N   UNL     1      50.064   4.504  18.849  0.00  0.00    +0.000 NA
ATOM      7  C   UNL     1      49.135   3.617  18.455  0.00  0.00    +0.000 A 
ATOM      8  C   UNL     1      48.354   3.787  17.343  0.00  0.00    +0.000 A 
ATOM      9  C   UNL     1      48.573   4.942  16.622  0.00  0.00    +0.000 A 
ATOM     10  N   UNL     1      49.497   5.851  17.011  0.00  0.00    +0.000 NA
ATOM     11  C   UNL     1      51.455   7.707  17.679  0.00  0.00    +0.000 C 
ATOM     12  C   UNL     1      52.907   7.639  17.170  0.00  0.00    +0.000 C 
ATOM     13  C   UNL     1      53.087   6.690  15.987  0.00  0.00    +0.000 C 
ATOM     14  O   UNL     1      53.853   7.383  18.223  0.00  0.00    +0.000 OA
ENDROOT
BRANCH   9  15
ATOM     15  C   UNL     1      47.846   5.245  15.374  0.00  0.00    +0.000 A 
ATOM     16  C   UNL     1      46.746   4.496  14.940  0.00  0.00    +0.000 A 
ATOM     17  N   UNL     1      46.024   4.778  13.820  0.00  0.00    +0.000 NA
ATOM     18  C   UNL     1      46.456   5.868  13.129  0.00  0.00    +0.000 A 
ATOM     19  C   UNL     1      47.549   6.617  13.533  0.00  0.00    +0.000 A 
ATOM     20  N   UNL     1      48.265   6.324  14.652  0.00  0.00    +0.000 NA
BRANCH  18  21
ATOM     21  C   UNL     1      45.703   6.259  11.906  0.00  0.00    +0.000 C 
ATOM     22  N   UNL     1      45.466   5.258  11.007  0.00  0.00    +0.000 N 
ATOM     23  O   UNL     1      45.313   7.405  11.720  0.00  0.00    +0.000 OA
ATOM     24  H   UNL     1      45.792   4.316  11.195  0.00  0.00    +0.000 HD
ATOM     25  H   UNL     1      44.942   5.456  10.166  0.00  0.00    +0.000 HD
ENDBRANCH  18  21
ENDBRANCH   9  15
TORSDOF 2
ENDMDL
MODEL 9
REMARK VINA RESULT:    -4.259      4.528      7.444
REMARK INTER + INTRA:          -5.071
REMARK INTER:                  -4.745
REMARK INTRA:                  -0.326
REMARK UNBOUND:                -0.314
REMARK  Name = 
REMARK  4 active torsions:
REMARK  status: ('A' for Active; 'I' for Inactive)
REMARK    1  A    between atoms: C_1  and  C_2
REMARK    2  A    between atoms: C_9  and  C_10
REMARK    3  A    between atoms: C_13  and  C_14
REMARK    4  A    between atoms: C_21  and  C_22
REMARK                            x       y       z     vdW  Elec       q    Type
REMARK                         _______ _______ _______ _____ _____    ______ ____
ROOT
ATOM      1  C   UNL     1      42.745   5.428  10.962  0.00  0.00    +0.000 C 
ATOM      2  C   UNL     1      43.217   4.654  12.189  0.00  0.00    +0.000 C 
ATOM      3  C   UNL     1      43.852   5.549  13.274  0.00  0.00    +0.000 C 
ATOM      4  N   UNL     1      45.261   5.801  12.993  0.00  0.00    +0.000 N 
ATOM      5  C   UNL     1      45.731   7.062  12.743  0.00  0.00    +0.000 A 
ATOM      6  N   UNL     1      44.912   8.110  12.906  0.00  0.00    +0.000 NA
ATOM      7  C   UNL     1      45.409   9.337  12.676  0.00  0.00    +0.000 A 
ATOM      8  C   UNL     1      46.700   9.567  12.280  0.00  0.00    +0.000 A 
ATOM      9  C   UNL     1      47.489   8.448  12.119  0.00  0.00    +0.000 A 
ATOM     10  N   UNL     1      47.009   7.205  12.358  0.00  0.00    +0.000 NA
ATOM     11  C   UNL     1      46.063   4.616  12.713  0.00  0.00    +0.000 C 
ATOM     12  C   UNL     1      45.419   3.780  11.591  0.00  0.00    +0.000 C 
ATOM     13  C   UNL     1      45.675   4.344  10.195  0.00  0.00    +0.000 C 
ATOM     14  O   UNL     1      44.023   3.519  11.825  0.00  0.00    +0.000 OA
ENDROOT
BRANCH   9  15
ATOM     15  C   UNL     1      48.887   8.527  11.651  0.00  0.00    +0.000 A 
ATOM     16  C   UNL     1      49.534   9.744  11.409  0.00  0.00    +0.000 A 
ATOM     17  N   UNL     1      50.836   9.854  11.023  0.00  0.00    +0.000 NA
ATOM     18  C   UNL     1      51.485   8.666  10.882  0.00  0.00    +0.000 A 
ATOM     19  C   UNL     1      50.862   7.449  11.105  0.00  0.00    +0.000 A 
ATOM     20  N   UNL     1      49.560   7.351  11.487  0.00  0.00    +0.000 NA
BRANCH  18  21
ATOM     21  C   UNL     1      52.920   8.700  10.489  0.00  0.00    +0.000 C 
ATOM     22  N   UNL     1      53.363   9.877   9.955  0.00  0.00    +0.000 N 
ATOM     23  O   UNL     1      53.661   7.738  10.642  0.00  0.00    +0.000 OA
ATOM     24  H   UNL     1      52.727  10.661   9.852  0.00  0.00    +0.000 HD
ATOM     25  H   UNL     1      54.332   9.970   9.686  0.00  0.00    +0.000 HD
ENDBRANCH  18  21
ENDBRANCH   9  15
TORSDOF 2
ENDMDL
