MODEL 1
REMARK VINA RESULT:    -7.377      0.000      0.000
REMARK INTER + INTRA:         -10.274
REMARK INTER:                  -9.749
REMARK INTRA:                  -0.525
REMARK UNBOUND:                -0.525
REMARK  Name = 
REMARK  6 active torsions:
REMARK  status: ('A' for Active; 'I' for Inactive)
REMARK    1  A    between atoms: N_1  and  C_2
REMARK    2  A    between atoms: C_2  and  C_3
REMARK    3  A    between atoms: C_6  and  S_7
REMARK    4  A    between atoms: S_7  and  C_8
REMARK    5  A    between atoms: C_8  and  C_9
REMARK    6  A    between atoms: C_12  and  C_13
REMARK                            x       y       z     vdW  Elec       q    Type
REMARK                         _______ _______ _______ _____ _____    ______ ____
ROOT
ATOM      1  S   UNL     1      44.054   3.564  12.415  0.00  0.00    +0.000 S 
ENDROOT
BRANCH   1   5
ATOM      2  C   UNL     1      47.607   6.186  13.547  0.00  0.00    +0.000 A 
ATOM      3  C   UNL     1      46.599   6.778  12.789  0.00  0.00    +0.000 A 
ATOM      4  C   UNL     1      45.487   6.017  12.410  0.00  0.00    +0.000 A 
ATOM      5  C   UNL     1      45.396   4.679  12.788  0.00  0.00    +0.000 A 
ATOM      6  C   UNL     1      46.462   4.177  13.535  0.00  0.00    +0.000 A 
ATOM      7  N   UNL     1      47.551   4.888  13.925  0.00  0.00    +0.000 NA
BRANCH   2   8
ATOM      8  C   UNL     1      48.796   6.998  14.020  0.00  0.00    +0.000 C 
BRANCH   8   9
ATOM      9  N   UNL     1      49.889   7.007  13.042  0.00  0.00    +0.000 NA
ATOM     10  H   UNL     1      49.758   6.225  12.404  0.00  0.00    +0.000 HD
ATOM     11  H   UNL     1      50.755   6.808  13.547  0.00  0.00    +0.000 HD
ENDBRANCH   8   9
ENDBRANCH   2   8
ENDBRANCH   1   5
BRANCH   1  12
ATOM     12  C   UNL     1      43.478   4.088  10.768  0.00  0.00    +0.000 C 
BRANCH  12  13
ATOM     13  C   UNL     1      44.408   3.615   9.693  0.00  0.00    +0.000 A 
ATOM     14  C   UNL     1      44.773   2.293   9.549  0.00  0.00    +0.000 A 
ATOM     15  N   UNL     1      45.607   1.840   8.590  0.00  0.00    +0.000 NA
ATOM     16  C   UNL     1      46.122   2.755   7.730  0.00  0.00    +0.000 A 
ATOM     17  N   UNL     1      45.830   4.079   7.803  0.00  0.00    +0.000 NA
ATOM     18  C   UNL     1      44.991   4.473   8.783  0.00  0.00    +0.000 A 
BRANCH  16  19
ATOM     19  C   UNL     1      47.070   2.277   6.621  0.00  0.00    +0.000 C 
ATOM     20  F   UNL     1      48.383   2.602   6.833  0.00  0.00    +0.000 F 
ATOM     21  F   UNL     1      47.061   0.919   6.455  0.00  0.00    +0.000 F 
ATOM     22  F   UNL     1      46.767   2.798   5.391  0.00  0.00    +0.000 F 
ENDBRANCH  16  19
ENDBRANCH  12  13
ENDBRANCH   1  12
TORSDOF 6
ENDMDL
MODEL 2
REMARK VINA RESULT:    -7.315      4.006      6.981
REMARK INTER + INTRA:         -10.191
REMARK INTER:                  -9.734
REMARK INTRA:                  -0.457
REMARK UNBOUND:                -0.525
REMARK  Name = 
REMARK  6 active torsions:
REMARK  status: ('A' for Active; 'I' for Inactive)
REMARK    1  A    between atoms: N_1  and  C_2
REMARK    2  A    between atoms: C_2  and  C_3
REMARK    3  A    between atoms: C_6  and  S_7
REMARK    4  A    between atoms: S_7  and  C_8
REMARK    5  A    between atoms: C_8  and  C_9
REMARK    6  A    between atoms: C_12  and  C_13
REMARK                            x       y       z     vdW  Elec       q    Type
REMARK                         _______ _______ _______ _____ _____    ______ ____
ROOT
ATOM      1  S   UNL     1      43.801   4.815  10.320  0.00  0.00    +0.000 S 
ENDROOT
BRANCH   1   5
ATOM      2  C   UNL     1      46.447   2.055   7.836  0.00  0.00    +0.000 A 
ATOM      3  C   UNL     1      46.483   3.413   7.528  0.00  0.00    +0.000 A 
ATOM      4  C   UNL     1      45.687   4.306   8.257  0.00  0.00    +0.000 A 
ATOM      5  C   UNL     1      44.865   3.832   9.278  0.00  0.00    +0.000 A 
ATOM      6  C   UNL     1      44.892   2.455   9.501  0.00  0.00    +0.000 A 
ATOM      7  N   UNL     1      45.655   1.564   8.818  0.00  0.00    +0.000 NA
BRANCH   2   8
ATOM      8  C   UNL     1      47.338   1.073   7.104  0.00  0.00    +0.000 C 
BRANCH   8   9
ATOM      9  N   UNL     1      48.314   1.745   6.239  0.00  0.00    +0.000 NA
ATOM     10  H   UNL     1      48.176   2.750   6.316  0.00  0.00    +0.000 HD
ATOM     11  H   UNL     1      48.083   1.508   5.272  0.00  0.00    +0.000 HD
ENDBRANCH   8   9
ENDBRANCH   2   8
ENDBRANCH   1   5
BRANCH   1  12
ATOM     12  C   UNL     1      44.904   6.088  11.015  0.00  0.00    +0.000 C 
BRANCH  12  13
ATOM     13  C   UNL     1      45.565   5.605  12.270  0.00  0.00    +0.000 A 
ATOM     14  C   UNL     1      46.718   6.172  12.772  0.00  0.00    +0.000 A 
ATOM     15  N   UNL     1      47.333   5.759  13.899  0.00  0.00    +0.000 NA
ATOM     16  C   UNL     1      46.782   4.711  14.560  0.00  0.00    +0.000 A 
ATOM     17  N   UNL     1      45.657   4.081  14.134  0.00  0.00    +0.000 NA
ATOM     18  C   UNL     1      45.086   4.538  13.001  0.00  0.00    +0.000 A 
BRANCH  16  19
ATOM     19  C   UNL     1      47.450   4.215  15.851  0.00  0.00    +0.000 C 
ATOM     20  F   UNL     1      48.005   2.967  15.747  0.00  0.00    +0.000 F 
ATOM     21  F   UNL     1      48.471   5.024  16.273  0.00  0.00    +0.000 F 
ATOM     22  F   UNL     1      46.586   4.135  16.910  0.00  0.00    +0.000 F 
ENDBRANCH  16  19
ENDBRANCH  12  13
ENDBRANCH   1  12
TORSDOF 6
ENDMDL
MODEL 3
REMARK VINA RESULT:    -7.184      1.520      2.178
REMARK INTER + INTRA:         -10.019
REMARK INTER:                  -9.595
REMARK INTRA:                  -0.424
REMARK UNBOUND:                -0.525
REMARK  Name = 
REMARK  6 active torsions:
REMARK  status: ('A' for Active; 'I' for Inactive)
REMARK    1  A    between atoms: N_1  and  C_2
REMARK    2  A    between atoms: C_2  and  C_3
REMARK    3  A    between atoms: C_6  and  S_7
REMARK    4  A    between atoms: S_7  and  C_8
REMARK    5  A    between atoms: C_8  and  C_9
REMARK    6  A    between atoms: C_12  and  C_13
REMARK                            x       y       z     vdW  Elec       q    Type
REMARK                         _______ _______ _______ _____ _____    ______ ____
ROOT
ATOM      1  S   UNL     1      44.903   6.327  11.197  0.00  0.00    +0.000 S 
ENDROOT
BRANCH   1   5
ATOM      2  C   UNL     1      47.129   4.714  14.834  0.00  0.00    +0.000 A 
ATOM      3  C   UNL     1      47.588   5.911  14.290  0.00  0.00    +0.000 A 
ATOM      4  C   UNL     1      46.944   6.450  13.169  0.00  0.00    +0.000 A 
ATOM      5  C   UNL     1      45.856   5.787  12.606  0.00  0.00    +0.000 A 
ATOM      6  C   UNL     1      45.481   4.590  13.217  0.00  0.00    +0.000 A 
ATOM      7  N   UNL     1      46.079   4.044  14.306  0.00  0.00    +0.000 NA
BRANCH   2   8
ATOM      8  C   UNL     1      47.770   4.135  16.079  0.00  0.00    +0.000 C 
BRANCH   8   9
ATOM      9  N   UNL     1      46.779   3.585  17.011  0.00  0.00    +0.000 NA
ATOM     10  H   UNL     1      47.034   2.622  17.221  0.00  0.00    +0.000 HD
ATOM     11  H   UNL     1      45.887   3.533  16.516  0.00  0.00    +0.000 HD
ENDBRANCH   8   9
ENDBRANCH   2   8
ENDBRANCH   1   5
BRANCH   1  12
ATOM     12  C   UNL     1      44.058   4.819  10.620  0.00  0.00    +0.000 C 
BRANCH  12  13
ATOM     13  C   UNL     1      44.875   4.099   9.591  0.00  0.00    +0.000 A 
ATOM     14  C   UNL     1      44.917   2.724   9.498  0.00  0.00    +0.000 A 
ATOM     15  N   UNL     1      45.642   2.051   8.581  0.00  0.00    +0.000 NA
ATOM     16  C   UNL     1      46.383   2.785   7.713  0.00  0.00    +0.000 A 
ATOM     17  N   UNL     1      46.415   4.142   7.738  0.00  0.00    +0.000 NA
ATOM     18  C   UNL     1      45.670   4.760   8.677  0.00  0.00    +0.000 A 
BRANCH  16  19
ATOM     19  C   UNL     1      47.217   2.055   6.650  0.00  0.00    +0.000 C 
ATOM     20  F   UNL     1      46.975   0.709   6.580  0.00  0.00    +0.000 F 
ATOM     21  F   UNL     1      47.000   2.523   5.382  0.00  0.00    +0.000 F 
ATOM     22  F   UNL     1      48.566   2.165   6.854  0.00  0.00    +0.000 F 
ENDBRANCH  16  19
ENDBRANCH  12  13
ENDBRANCH   1  12
TORSDOF 6
ENDMDL
MODEL 4
REMARK VINA RESULT:    -6.982      3.641      6.627
REMARK INTER + INTRA:          -9.752
REMARK INTER:                  -9.279
REMARK INTRA:                  -0.473
REMARK UNBOUND:                -0.525
REMARK  Name = 
REMARK  6 active torsions:
REMARK  status: ('A' for Active; 'I' for Inactive)
REMARK    1  A    between atoms: N_1  and  C_2
REMARK    2  A    between atoms: C_2  and  C_3
REMARK    3  A    between atoms: C_6  and  S_7
REMARK    4  A    between atoms: S_7  and  C_8
REMARK    5  A    between atoms: C_8  and  C_9
REMARK    6  A    between atoms: C_12  and  C_13
REMARK                            x       y       z     vdW  Elec       q    Type
REMARK                         _______ _______ _______ _____ _____    ______ ____
ROOT
ATOM      1  S   UNL     1      43.740   4.122  10.633  0.00  0.00    +0.000 S 
ENDROOT
BRANCH   1   5
ATOM      2  C   UNL     1      46.585   2.303   7.570  0.00  0.00    +0.000 A 
ATOM      3  C   UNL     1      46.373   3.677   7.499  0.00  0.00    +0.000 A 
ATOM      4  C   UNL     1      45.505   4.288   8.413  0.00  0.00    +0.000 A 
ATOM      5  C   UNL     1      44.860   3.521   9.380  0.00  0.00    +0.000 A 
ATOM      6  C   UNL     1      45.130   2.152   9.361  0.00  0.00    +0.000 A 
ATOM      7  N   UNL     1      45.969   1.530   8.495  0.00  0.00    +0.000 NA
BRANCH   2   8
ATOM      8  C   UNL     1      47.561   1.622   6.632  0.00  0.00    +0.000 C 
BRANCH   8   9
ATOM      9  N   UNL     1      48.661   2.507   6.235  0.00  0.00    +0.000 NA
ATOM     10  H   UNL     1      49.391   2.453   6.943  0.00  0.00    +0.000 HD
ATOM     11  H   UNL     1      48.313   3.467   6.272  0.00  0.00    +0.000 HD
ENDBRANCH   8   9
ENDBRANCH   2   8
ENDBRANCH   1   5
BRANCH   1  12
ATOM     12  C   UNL     1      44.469   3.550  12.201  0.00  0.00    +0.000 C 
BRANCH  12  13
ATOM     13  C   UNL     1      45.571   4.460  12.650  0.00  0.00    +0.000 A 
ATOM     14  C   UNL     1      46.536   4.073  13.556  0.00  0.00    +0.000 A 
ATOM     15  N   UNL     1      47.540   4.871  13.977  0.00  0.00    +0.000 NA
ATOM     16  C   UNL     1      47.580   6.133  13.482  0.00  0.00    +0.000 A 
ATOM     17  N   UNL     1      46.666   6.606  12.597  0.00  0.00    +0.000 NA
ATOM     18  C   UNL     1      45.685   5.763  12.213  0.00  0.00    +0.000 A 
BRANCH  16  19
ATOM     19  C   UNL     1      48.711   7.070  13.932  0.00  0.00    +0.000 C 
ATOM     20  F   UNL     1      49.349   6.663  15.073  0.00  0.00    +0.000 F 
ATOM     21  F   UNL     1      49.702   7.203  12.998  0.00  0.00    +0.000 F 
ATOM     22  F   UNL     1      48.284   8.344  14.195  0.00  0.00    +0.000 F 
ENDBRANCH  16  19
ENDBRANCH  12  13
ENDBRANCH   1  12
TORSDOF 6
ENDMDL
MODEL 5
REMARK VINA RESULT:    -5.880      2.937      3.891
REMARK INTER + INTRA:          -8.295
REMARK INTER:                  -7.916
REMARK INTRA:                  -0.379
REMARK UNBOUND:                -0.525
REMARK  Name = 
REMARK  6 active torsions:
REMARK  status: ('A' for Active; 'I' for Inactive)
REMARK    1  A    between atoms: N_1  and  C_2
REMARK    2  A    between atoms: C_2  and  C_3
REMARK    3  A    between atoms: C_6  and  S_7
REMARK    4  A    between atoms: S_7  and  C_8
REMARK    5  A    between atoms: C_8  and  C_9
REMARK    6  A    between atoms: C_12  and  C_13
REMARK                            x       y       z     vdW  Elec       q    Type
REMARK                         _______ _______ _______ _____ _____    ______ ____
ROOT
ATOM      1  S   UNL     1      47.137   6.665  13.437  0.00  0.00    +0.000 S 
ENDROOT
BRANCH   1   5
ATOM      2  C   UNL     1      48.643   4.190  16.957  0.00  0.00    +0.000 A 
ATOM      3  C   UNL     1      47.599   3.653  16.206  0.00  0.00    +0.000 A 
ATOM      4  C   UNL     1      47.095   4.373  15.116  0.00  0.00    +0.000 A 
ATOM      5  C   UNL     1      47.635   5.617  14.793  0.00  0.00    +0.000 A 
ATOM      6  C   UNL     1      48.668   6.071  15.613  0.00  0.00    +0.000 A 
ATOM      7  N   UNL     1      49.183   5.397  16.672  0.00  0.00    +0.000 NA
BRANCH   2   8
ATOM      8  C   UNL     1      49.247   3.410  18.108  0.00  0.00    +0.000 C 
BRANCH   8   9
ATOM      9  N   UNL     1      48.334   3.310  19.252  0.00  0.00    +0.000 NA
ATOM     10  H   UNL     1      47.962   4.236  19.451  0.00  0.00    +0.000 HD
ATOM     11  H   UNL     1      48.893   3.056  20.069  0.00  0.00    +0.000 HD
ENDBRANCH   8   9
ENDBRANCH   2   8
ENDBRANCH   1   5
BRANCH   1  12
ATOM     12  C   UNL     1      45.413   6.179  13.102  0.00  0.00    +0.000 C 
BRANCH  12  13
ATOM     13  C   UNL     1      45.334   5.219  11.954  0.00  0.00    +0.000 A 
ATOM     14  C   UNL     1      45.488   5.611  10.641  0.00  0.00    +0.000 A 
ATOM     15  N   UNL     1      45.422   4.768   9.590  0.00  0.00    +0.000 NA
ATOM     16  C   UNL     1      45.173   3.461   9.854  0.00  0.00    +0.000 A 
ATOM     17  N   UNL     1      44.994   2.986  11.114  0.00  0.00    +0.000 NA
ATOM     18  C   UNL     1      45.070   3.876  12.125  0.00  0.00    +0.000 A 
BRANCH  16  19
ATOM     19  C   UNL     1      45.098   2.469   8.684  0.00  0.00    +0.000 C 
ATOM     20  F   UNL     1      46.306   1.933   8.330  0.00  0.00    +0.000 F 
ATOM     21  F   UNL     1      44.293   1.393   8.944  0.00  0.00    +0.000 F 
ATOM     22  F   UNL     1      44.603   3.027   7.536  0.00  0.00    +0.000 F 
ENDBRANCH  16  19
ENDBRANCH  12  13
ENDBRANCH   1  12
TORSDOF 6
ENDMDL
MODEL 6
REMARK VINA RESULT:    -5.249      2.548      3.497
REMARK INTER + INTRA:          -7.462
REMARK INTER:                  -7.120
REMARK INTRA:                  -0.342
REMARK UNBOUND:                -0.525
REMARK  Name = 
REMARK  6 active torsions:
REMARK  status: ('A' for Active; 'I' for Inactive)
REMARK    1  A    between atoms: N_1  and  C_2
REMARK    2  A    between atoms: C_2  and  C_3
REMARK    3  A    between atoms: C_6  and  S_7
REMARK    4  A    between atoms: S_7  and  C_8
REMARK    5  A    between atoms: C_8  and  C_9
REMARK    6  A    between atoms: C_12  and  C_13
REMARK                            x       y       z     vdW  Elec       q    Type
REMARK                         _______ _______ _______ _____ _____    ______ ____
ROOT
ATOM      1  S   UNL     1      45.680   7.971  12.395  0.00  0.00    +0.000 S 
ENDROOT
BRANCH   1   5
ATOM      2  C   UNL     1      50.206   8.442  12.121  0.00  0.00    +0.000 A 
ATOM      3  C   UNL     1      49.433   9.557  11.807  0.00  0.00    +0.000 A 
ATOM      4  C   UNL     1      48.037   9.467  11.870  0.00  0.00    +0.000 A 
ATOM      5  C   UNL     1      47.433   8.268  12.242  0.00  0.00    +0.000 A 
ATOM      6  C   UNL     1      48.293   7.207  12.525  0.00  0.00    +0.000 A 
ATOM      7  N   UNL     1      49.648   7.262  12.480  0.00  0.00    +0.000 NA
BRANCH   2   8
ATOM      8  C   UNL     1      51.719   8.524  12.116  0.00  0.00    +0.000 C 
BRANCH   8   9
ATOM      9  N   UNL     1      52.304   8.107  13.395  0.00  0.00    +0.000 NA
ATOM     10  H   UNL     1      53.212   7.684  13.213  0.00  0.00    +0.000 HD
ATOM     11  H   UNL     1      51.721   7.356  13.770  0.00  0.00    +0.000 HD
ENDBRANCH   8   9
ENDBRANCH   2   8
ENDBRANCH   1   5
BRANCH   1  12
ATOM     12  C   UNL     1      45.566   6.272  13.041  0.00  0.00    +0.000 C 
BRANCH  12  13
ATOM     13  C   UNL     1      45.414   5.278  11.929  0.00  0.00    +0.000 A 
ATOM     14  C   UNL     1      45.181   3.938  12.152  0.00  0.00    +0.000 A 
ATOM     15  N   UNL     1      45.039   3.023  11.171  0.00  0.00    +0.000 NA
ATOM     16  C   UNL     1      45.149   3.460   9.892  0.00  0.00    +0.000 A 
ATOM     17  N   UNL     1      45.390   4.758   9.576  0.00  0.00    +0.000 NA
ATOM     18  C   UNL     1      45.524   5.627  10.599  0.00  0.00    +0.000 A 
BRANCH  16  19
ATOM     19  C   UNL     1      44.987   2.450   8.746  0.00  0.00    +0.000 C 
ATOM     20  F   UNL     1      44.458   2.985   7.603  0.00  0.00    +0.000 F 
ATOM     21  F   UNL     1      46.170   1.882   8.360  0.00  0.00    +0.000 F 
ATOM     22  F   UNL     1      44.165   1.402   9.064  0.00  0.00    +0.000 F 
ENDBRANCH  16  19
ENDBRANCH  12  13
ENDBRANCH   1  12
TORSDOF 6
ENDMDL
MODEL 7
REMARK VINA RESULT:    -5.086      4.803      6.495
REMARK INTER + INTRA:          -7.246
REMARK INTER:                  -6.822
REMARK INTRA:                  -0.424
REMARK UNBOUND:                -0.525
REMARK  Name = 
REMARK  6 active torsions:
REMARK  status: ('A' for Active; 'I' for Inactive)
REMARK    1  A    between atoms: N_1  and  C_2
REMARK    2  A    between atoms: C_2  and  C_3
REMARK    3  A    between atoms: C_6  and  S_7
REMARK    4  A    between atoms: S_7  and  C_8
REMARK    5  A    between atoms: C_8  and  C_9
REMARK    6  A    between atoms: C_12  and  C_13
REMARK                            x       y       z     vdW  Elec       q    Type
REMARK                         _______ _______ _______ _____ _____    ______ ____
ROOT
ATOM      1  S   UNL     1      48.585   7.976  15.271  0.00  0.00    +0.000 S 
ENDROOT
BRANCH   1   5
ATOM      2  C   UNL     1      49.166   5.664  19.157  0.00  0.00    +0.000 A 
ATOM      3  C   UNL     1      48.622   6.942  19.256  0.00  0.00    +0.000 A 
ATOM      4  C   UNL     1      48.426   7.698  18.094  0.00  0.00    +0.000 A 
ATOM      5  C   UNL     1      48.777   7.172  16.853  0.00  0.00    +0.000 A 
ATOM      6  C   UNL     1      49.325   5.889  16.861  0.00  0.00    +0.000 A 
ATOM      7  N   UNL     1      49.523   5.128  17.967  0.00  0.00    +0.000 NA
BRANCH   2   8
ATOM      8  C   UNL     1      49.339   4.800  20.390  0.00  0.00    +0.000 C 
BRANCH   8   9
ATOM      9  N   UNL     1      48.410   3.664  20.409  0.00  0.00    +0.000 NA
ATOM     10  H   UNL     1      48.717   2.984  19.716  0.00  0.00    +0.000 HD
ATOM     11  H   UNL     1      47.504   4.003  20.079  0.00  0.00    +0.000 HD
ENDBRANCH   8   9
ENDBRANCH   2   8
ENDBRANCH   1   5
BRANCH   1  12
ATOM     12  C   UNL     1      48.732   6.624  14.058  0.00  0.00    +0.000 C 
BRANCH  12  13
ATOM     13  C   UNL     1      47.389   6.059  13.710  0.00  0.00    +0.000 A 
ATOM     14  C   UNL     1      46.989   4.796  14.091  0.00  0.00    +0.000 A 
ATOM     15  N   UNL     1      45.785   4.264  13.792  0.00  0.00    +0.000 NA
ATOM     16  C   UNL     1      44.934   5.023  13.058  0.00  0.00    +0.000 A 
ATOM     17  N   UNL     1      45.246   6.272  12.627  0.00  0.00    +0.000 NA
ATOM     18  C   UNL     1      46.464   6.751  12.956  0.00  0.00    +0.000 A 
BRANCH  16  19
ATOM     19  C   UNL     1      43.552   4.454  12.703  0.00  0.00    +0.000 C 
ATOM     20  F   UNL     1      43.192   4.641  11.396  0.00  0.00    +0.000 F 
ATOM     21  F   UNL     1      43.458   3.104  12.908  0.00  0.00    +0.000 F 
ATOM     22  F   UNL     1      42.537   5.006  13.436  0.00  0.00    +0.000 F 
ENDBRANCH  16  19
ENDBRANCH  12  13
ENDBRANCH   1  12
TORSDOF 6
ENDMDL
MODEL 8
REMARK VINA RESULT:    -5.074      5.117      7.840
REMARK INTER + INTRA:          -7.230
REMARK INTER:                  -7.134
REMARK INTRA:                  -0.096
REMARK UNBOUND:                -0.525
REMARK  Name = 
REMARK  6 active torsions:
REMARK  status: ('A' for Active; 'I' for Inactive)
REMARK    1  A    between atoms: N_1  and  C_2
REMARK    2  A    between atoms: C_2  and  C_3
REMARK    3  A    between atoms: C_6  and  S_7
REMARK    4  A    between atoms: S_7  and  C_8
REMARK    5  A    between atoms: C_8  and  C_9
REMARK    6  A    between atoms: C_12  and  C_13
REMARK                            x       y       z     vdW  Elec       q    Type
REMARK                         _______ _______ _______ _____ _____    ______ ____
ROOT
ATOM      1  S   UNL     1      46.323   8.110  12.618  0.00  0.00    +0.000 S 
ENDROOT
BRANCH   1   5
ATOM      2  C   UNL     1      44.392   4.227  11.212  0.00  0.00    +0.000 A 
ATOM      3  C   UNL     1      43.955   4.747  12.428  0.00  0.00    +0.000 A 
ATOM      4  C   UNL     1      44.518   5.935  12.910  0.00  0.00    +0.000 A 
ATOM      5  C   UNL     1      45.508   6.585  12.176  0.00  0.00    +0.000 A 
ATOM      6  C   UNL     1      45.884   5.978  10.977  0.00  0.00    +0.000 A 
ATOM      7  N   UNL     1      45.356   4.832  10.479  0.00  0.00    +0.000 NA
BRANCH   2   8
ATOM      8  C   UNL     1      43.764   2.974  10.637  0.00  0.00    +0.000 C 
BRANCH   8   9
ATOM      9  N   UNL     1      43.040   2.198  11.652  0.00  0.00    +0.000 NA
ATOM     10  H   UNL     1      42.242   1.750  11.206  0.00  0.00    +0.000 HD
ATOM     11  H   UNL     1      42.645   2.861  12.321  0.00  0.00    +0.000 HD
ENDBRANCH   8   9
ENDBRANCH   2   8
ENDBRANCH   1   5
BRANCH   1  12
ATOM     12  C   UNL     1      48.036   7.613  12.988  0.00  0.00    +0.000 C 
BRANCH  12  13
ATOM     13  C   UNL     1      48.101   6.767  14.223  0.00  0.00    +0.000 A 
ATOM     14  C   UNL     1      48.685   7.199  15.395  0.00  0.00    +0.000 A 
ATOM     15  N   UNL     1      48.755   6.459  16.521  0.00  0.00    +0.000 NA
ATOM     16  C   UNL     1      48.230   5.209  16.478  0.00  0.00    +0.000 A 
ATOM     17  N   UNL     1      47.648   4.694  15.365  0.00  0.00    +0.000 NA
ATOM     18  C   UNL     1      47.607   5.480  14.269  0.00  0.00    +0.000 A 
BRANCH  16  19
ATOM     19  C   UNL     1      48.286   4.338  17.741  0.00  0.00    +0.000 C 
ATOM     20  F   UNL     1      47.815   4.959  18.867  0.00  0.00    +0.000 F 
ATOM     21  F   UNL     1      47.549   3.189  17.634  0.00  0.00    +0.000 F 
ATOM     22  F   UNL     1      49.553   3.931  18.060  0.00  0.00    +0.000 F 
ENDBRANCH  16  19
ENDBRANCH  12  13
ENDBRANCH   1  12
TORSDOF 6
ENDMDL
MODEL 9
REMARK VINA RESULT:    -4.731      4.180      5.668
REMARK INTER + INTRA:          -6.777
REMARK INTER:                  -6.418
REMARK INTRA:                  -0.359
REMARK UNBOUND:                -0.525
REMARK  Name = 
REMARK  6 active torsions:
REMARK  status: ('A' for Active; 'I' for Inactive)
REMARK    1  A    between atoms: N_1  and  C_2
REMARK    2  A    between atoms: C_2  and  C_3
REMARK    3  A    between atoms: C_6  and  S_7
REMARK    4  A    between atoms: S_7  and  C_8
REMARK    5  A    between atoms: C_8  and  C_9
REMARK    6  A    between atoms: C_12  and  C_13
REMARK                            x       y       z     vdW  Elec       q    Type
REMARK                         _______ _______ _______ _____ _____    ______ ____
ROOT
ATOM      1  S   UNL     1      47.707   8.495  12.829  0.00  0.00    +0.000 S 
ENDROOT
BRANCH   1   5
ATOM      2  C   UNL     1      51.659   9.015  10.618  0.00  0.00    +0.000 A 
ATOM      3  C   UNL     1      50.912  10.165  10.857  0.00  0.00    +0.000 A 
ATOM      4  C   UNL     1      49.687  10.063  11.528  0.00  0.00    +0.000 A 
ATOM      5  C   UNL     1      49.225   8.817  11.948  0.00  0.00    +0.000 A 
ATOM      6  C   UNL     1      50.041   7.726  11.651  0.00  0.00    +0.000 A 
ATOM      7  N   UNL     1      51.235   7.791  11.008  0.00  0.00    +0.000 NA
BRANCH   2   8
ATOM      8  C   UNL     1      53.014   9.100   9.944  0.00  0.00    +0.000 C 
BRANCH   8   9
ATOM      9  N   UNL     1      53.036   8.409   8.650  0.00  0.00    +0.000 NA
ATOM     10  H   UNL     1      53.537   8.991   7.981  0.00  0.00    +0.000 HD
ATOM     11  H   UNL     1      52.075   8.363   8.309  0.00  0.00    +0.000 HD
ENDBRANCH   8   9
ENDBRANCH   2   8
ENDBRANCH   1   5
BRANCH   1  12
ATOM     12  C   UNL     1      47.930   6.822  13.514  0.00  0.00    +0.000 C 
BRANCH  12  13
ATOM     13  C   UNL     1      46.859   5.892  13.033  0.00  0.00    +0.000 A 
ATOM     14  C   UNL     1      46.397   4.832  13.785  0.00  0.00    +0.000 A 
ATOM     15  N   UNL     1      45.433   3.981  13.377  0.00  0.00    +0.000 NA
ATOM     16  C   UNL     1      44.907   4.181  12.143  0.00  0.00    +0.000 A 
ATOM     17  N   UNL     1      45.309   5.189  11.326  0.00  0.00    +0.000 NA
ATOM     18  C   UNL     1      46.276   6.008  11.788  0.00  0.00    +0.000 A 
BRANCH  16  19
ATOM     19  C   UNL     1      43.803   3.236  11.645  0.00  0.00    +0.000 C 
ATOM     20  F   UNL     1      43.433   2.284  12.556  0.00  0.00    +0.000 F 
ATOM     21  F   UNL     1      42.644   3.888  11.320  0.00  0.00    +0.000 F 
ATOM     22  F   UNL     1      44.157   2.538  10.522  0.00  0.00    +0.000 F 
ENDBRANCH  16  19
ENDBRANCH  12  13
ENDBRANCH   1  12
TORSDOF 6
ENDMDL
