MODEL 1
REMARK VINA RESULT:    -7.985      0.000      0.000
REMARK INTER + INTRA:         -10.311
REMARK INTER:                 -10.085
REMARK INTRA:                  -0.225
REMARK UNBOUND:                -0.225
REMARK  Name = 
REMARK  5 active torsions:
REMARK  status: ('A' for Active; 'I' for Inactive)
REMARK    1  A    between atoms: N_1  and  C_2
REMARK    2  A    between atoms: C_2  and  C_3
REMARK    3  A    between atoms: C_6  and  C_7
REMARK    4  A    between atoms: C_7  and  N_8
REMARK    5  A    between atoms: C_13  and  C_14
REMARK                            x       y       z     vdW  Elec       q    Type
REMARK                         _______ _______ _______ _____ _____    ______ ____
ROOT
ATOM      1  N   UNL     1      44.961   4.440  11.452  0.00  0.00    +0.000 N 
ATOM      2  C   UNL     1      44.967   3.407  12.356  0.00  0.00    +0.000 A 
ATOM      3  C   UNL     1      46.015   3.612  13.226  0.00  0.00    +0.000 A 
ATOM      4  C   UNL     1      46.632   4.833  12.869  0.00  0.00    +0.000 A 
ATOM      5  N   UNL     1      47.712   5.427  13.431  0.00  0.00    +0.000 NA
ATOM      6  C   UNL     1      48.049   6.619  12.867  0.00  0.00    +0.000 A 
ATOM      7  C   UNL     1      47.360   7.252  11.836  0.00  0.00    +0.000 A 
ATOM      8  C   UNL     1      46.251   6.625  11.272  0.00  0.00    +0.000 A 
ATOM      9  C   UNL     1      45.918   5.374  11.796  0.00  0.00    +0.000 A 
ENDROOT
BRANCH   6  10
ATOM     10  C   UNL     1      49.287   7.269  13.405  0.00  0.00    +0.000 C 
ATOM     11  N   UNL     1      50.369   7.282  12.565  0.00  0.00    +0.000 N 
ATOM     12  O   UNL     1      49.340   7.773  14.521  0.00  0.00    +0.000 OA
ATOM     13  H   UNL     1      50.292   6.879  11.639  0.00  0.00    +0.000 HD
ATOM     14  H   UNL     1      51.223   7.733  12.864  0.00  0.00    +0.000 HD
ENDBRANCH   6  10
BRANCH   1  15
ATOM     15  C   UNL     1      44.068   4.515  10.304  0.00  0.00    +0.000 C 
BRANCH  15  19
ATOM     16  C   UNL     1      46.748   2.167   7.745  0.00  0.00    +0.000 C 
ATOM     17  C   UNL     1      45.561   1.451   8.407  0.00  0.00    +0.000 C 
ATOM     18  C   UNL     1      44.948   2.291   9.526  0.00  0.00    +0.000 C 
ATOM     19  C   UNL     1      44.530   3.700   9.070  0.00  0.00    +0.000 C 
ATOM     20  C   UNL     1      45.678   4.393   8.313  0.00  0.00    +0.000 C 
ATOM     21  C   UNL     1      46.281   3.526   7.207  0.00  0.00    +0.000 C 
BRANCH  16  22
ATOM     22  C   UNL     1      47.365   1.274   6.653  0.00  0.00    +0.000 C 
BRANCH  22  23
ATOM     23  N   UNL     1      48.500   1.912   5.996  0.00  0.00    +0.000 NA
ATOM     24  H   UNL     1      48.983   1.228   5.413  0.00  0.00    +0.000 HD
ATOM     25  H   UNL     1      49.175   2.223   6.692  0.00  0.00    +0.000 HD
ENDBRANCH  22  23
ENDBRANCH  16  22
ENDBRANCH  15  19
ENDBRANCH   1  15
TORSDOF 5
ENDMDL
MODEL 2
REMARK VINA RESULT:    -7.823      1.770      2.546
REMARK INTER + INTRA:         -10.107
REMARK INTER:                  -9.742
REMARK INTRA:                  -0.365
REMARK UNBOUND:                -0.225
REMARK  Name = 
REMARK  5 active torsions:
REMARK  status: ('A' for Active; 'I' for Inactive)
REMARK    1  A    between atoms: N_1  and  C_2
REMARK    2  A    between atoms: C_2  and  C_3
REMARK    3  A    between atoms: C_6  and  C_7
REMARK    4  A    between atoms: C_7  and  N_8
REMARK    5  A    between atoms: C_13  and  C_14
REMARK                            x       y       z     vdW  Elec       q    Type
REMARK                         _______ _______ _______ _____ _____    ______ ____
ROOT
ATOM      1  N   UNL     1      44.752   5.290  10.971  0.00  0.00    +0.000 N 
ATOM      2  C   UNL     1      45.057   6.622  10.838  0.00  0.00    +0.000 A 
ATOM      3  C   UNL     1      45.886   6.972  11.880  0.00  0.00    +0.000 A 
ATOM      4  C   UNL     1      46.133   5.805  12.638  0.00  0.00    +0.000 A 
ATOM      5  N   UNL     1      46.876   5.672  13.764  0.00  0.00    +0.000 NA
ATOM      6  C   UNL     1      46.936   4.401  14.246  0.00  0.00    +0.000 A 
ATOM      7  C   UNL     1      46.352   3.283  13.658  0.00  0.00    +0.000 A 
ATOM      8  C   UNL     1      45.592   3.439  12.501  0.00  0.00    +0.000 A 
ATOM      9  C   UNL     1      45.469   4.744  12.017  0.00  0.00    +0.000 A 
ENDROOT
BRANCH   6  10
ATOM     10  C   UNL     1      47.680   4.226  15.535  0.00  0.00    +0.000 C 
ATOM     11  N   UNL     1      47.750   5.332  16.340  0.00  0.00    +0.000 N 
ATOM     12  O   UNL     1      48.189   3.162  15.868  0.00  0.00    +0.000 OA
ATOM     13  H   UNL     1      47.300   6.193  16.051  0.00  0.00    +0.000 HD
ATOM     14  H   UNL     1      48.214   5.265  17.234  0.00  0.00    +0.000 HD
ENDBRANCH   6  10
BRANCH   1  15
ATOM     15  C   UNL     1      43.805   4.580  10.120  0.00  0.00    +0.000 C 
BRANCH  15  19
ATOM     16  C   UNL     1      46.819   2.284   7.908  0.00  0.00    +0.000 C 
ATOM     17  C   UNL     1      45.524   1.573   8.328  0.00  0.00    +0.000 C 
ATOM     18  C   UNL     1      44.753   2.373   9.376  0.00  0.00    +0.000 C 
ATOM     19  C   UNL     1      44.447   3.815   8.936  0.00  0.00    +0.000 C 
ATOM     20  C   UNL     1      45.718   4.510   8.415  0.00  0.00    +0.000 C 
ATOM     21  C   UNL     1      46.476   3.682   7.376  0.00  0.00    +0.000 C 
BRANCH  16  22
ATOM     22  C   UNL     1      47.586   1.429   6.885  0.00  0.00    +0.000 C 
BRANCH  22  23
ATOM     23  N   UNL     1      48.497   2.228   6.072  0.00  0.00    +0.000 NA
ATOM     24  H   UNL     1      48.898   1.645   5.337  0.00  0.00    +0.000 HD
ATOM     25  H   UNL     1      49.279   2.550   6.640  0.00  0.00    +0.000 HD
ENDBRANCH  22  23
ENDBRANCH  16  22
ENDBRANCH  15  19
ENDBRANCH   1  15
TORSDOF 5
ENDMDL
MODEL 3
REMARK VINA RESULT:    -7.482      2.945      6.602
REMARK INTER + INTRA:          -9.675
REMARK INTER:                  -9.334
REMARK INTRA:                  -0.342
REMARK UNBOUND:                -0.225
REMARK  Name = 
REMARK  5 active torsions:
REMARK  status: ('A' for Active; 'I' for Inactive)
REMARK    1  A    between atoms: N_1  and  C_2
REMARK    2  A    between atoms: C_2  and  C_3
REMARK    3  A    between atoms: C_6  and  C_7
REMARK    4  A    between atoms: C_7  and  N_8
REMARK    5  A    between atoms: C_13  and  C_14
REMARK                            x       y       z     vdW  Elec       q    Type
REMARK                         _______ _______ _______ _____ _____    ______ ____
ROOT
ATOM      1  N   UNL     1      44.071   4.363  10.417  0.00  0.00    +0.000 N 
ATOM      2  C   UNL     1      43.624   3.249  11.084  0.00  0.00    +0.000 A 
ATOM      3  C   UNL     1      44.163   2.142  10.467  0.00  0.00    +0.000 A 
ATOM      4  C   UNL     1      45.003   2.602   9.427  0.00  0.00    +0.000 A 
ATOM      5  N   UNL     1      45.726   1.872   8.542  0.00  0.00    +0.000 NA
ATOM      6  C   UNL     1      46.456   2.618   7.669  0.00  0.00    +0.000 A 
ATOM      7  C   UNL     1      46.538   4.008   7.661  0.00  0.00    +0.000 A 
ATOM      8  C   UNL     1      45.789   4.740   8.579  0.00  0.00    +0.000 A 
ATOM      9  C   UNL     1      44.987   3.999   9.451  0.00  0.00    +0.000 A 
ENDROOT
BRANCH   6  10
ATOM     10  C   UNL     1      47.204   1.850   6.622  0.00  0.00    +0.000 C 
ATOM     11  N   UNL     1      47.973   2.597   5.770  0.00  0.00    +0.000 N 
ATOM     12  O   UNL     1      47.152   0.629   6.530  0.00  0.00    +0.000 OA
ATOM     13  H   UNL     1      48.017   3.603   5.882  0.00  0.00    +0.000 HD
ATOM     14  H   UNL     1      48.523   2.131   5.062  0.00  0.00    +0.000 HD
ENDBRANCH   6  10
BRANCH   1  15
ATOM     15  C   UNL     1      43.625   5.720  10.704  0.00  0.00    +0.000 C 
BRANCH  15  19
ATOM     16  C   UNL     1      46.873   8.030  12.537  0.00  0.00    +0.000 C 
ATOM     17  C   UNL     1      45.498   8.697  12.390  0.00  0.00    +0.000 C 
ATOM     18  C   UNL     1      44.594   7.924  11.432  0.00  0.00    +0.000 C 
ATOM     19  C   UNL     1      44.426   6.443  11.816  0.00  0.00    +0.000 C 
ATOM     20  C   UNL     1      45.795   5.785  12.066  0.00  0.00    +0.000 C 
ATOM     21  C   UNL     1      46.684   6.585  13.020  0.00  0.00    +0.000 C 
BRANCH  16  22
ATOM     22  C   UNL     1      47.768   8.859  13.475  0.00  0.00    +0.000 C 
BRANCH  22  23
ATOM     23  N   UNL     1      47.251   8.898  14.838  0.00  0.00    +0.000 NA
ATOM     24  H   UNL     1      47.236   7.954  15.224  0.00  0.00    +0.000 HD
ATOM     25  H   UNL     1      46.284   9.220  14.833  0.00  0.00    +0.000 HD
ENDBRANCH  22  23
ENDBRANCH  16  22
ENDBRANCH  15  19
ENDBRANCH   1  15
TORSDOF 5
ENDMDL
MODEL 4
REMARK VINA RESULT:    -6.277      3.325      6.423
REMARK INTER + INTRA:          -8.153
REMARK INTER:                  -7.721
REMARK INTRA:                  -0.432
REMARK UNBOUND:                -0.225
REMARK  Name = 
REMARK  5 active torsions:
REMARK  status: ('A' for Active; 'I' for Inactive)
REMARK    1  A    between atoms: N_1  and  C_2
REMARK    2  A    between atoms: C_2  and  C_3
REMARK    3  A    between atoms: C_6  and  C_7
REMARK    4  A    between atoms: C_7  and  N_8
REMARK    5  A    between atoms: C_13  and  C_14
REMARK                            x       y       z     vdW  Elec       q    Type
REMARK                         _______ _______ _______ _____ _____    ______ ____
ROOT
ATOM      1  N   UNL     1      47.107   6.409  13.563  0.00  0.00    +0.000 N 
ATOM      2  C   UNL     1      47.546   5.629  14.604  0.00  0.00    +0.000 A 
ATOM      3  C   UNL     1      46.983   4.380  14.465  0.00  0.00    +0.000 A 
ATOM      4  C   UNL     1      46.220   4.388  13.275  0.00  0.00    +0.000 A 
ATOM      5  N   UNL     1      45.475   3.388  12.745  0.00  0.00    +0.000 NA
ATOM      6  C   UNL     1      44.872   3.705  11.568  0.00  0.00    +0.000 A 
ATOM      7  C   UNL     1      45.005   4.913  10.888  0.00  0.00    +0.000 A 
ATOM      8  C   UNL     1      45.776   5.929  11.448  0.00  0.00    +0.000 A 
ATOM      9  C   UNL     1      46.361   5.647  12.686  0.00  0.00    +0.000 A 
ENDROOT
BRANCH   6  10
ATOM     10  C   UNL     1      43.973   2.655  10.991  0.00  0.00    +0.000 C 
ATOM     11  N   UNL     1      44.397   2.082   9.821  0.00  0.00    +0.000 N 
ATOM     12  O   UNL     1      42.926   2.309  11.527  0.00  0.00    +0.000 OA
ATOM     13  H   UNL     1      45.277   2.369   9.411  0.00  0.00    +0.000 HD
ATOM     14  H   UNL     1      43.845   1.347   9.401  0.00  0.00    +0.000 HD
ENDBRANCH   6  10
BRANCH   1  15
ATOM     15  C   UNL     1      47.396   7.831  13.429  0.00  0.00    +0.000 C 
BRANCH  15  19
ATOM     16  C   UNL     1      50.963   9.248  11.304  0.00  0.00    +0.000 C 
ATOM     17  C   UNL     1      50.628   7.750  11.248  0.00  0.00    +0.000 C 
ATOM     18  C   UNL     1      49.596   7.361  12.304  0.00  0.00    +0.000 C 
ATOM     19  C   UNL     1      48.305   8.196  12.229  0.00  0.00    +0.000 C 
ATOM     20  C   UNL     1      48.628   9.700  12.181  0.00  0.00    +0.000 C 
ATOM     21  C   UNL     1      49.673  10.059  11.123  0.00  0.00    +0.000 C 
BRANCH  16  22
ATOM     22  C   UNL     1      52.035   9.592  10.255  0.00  0.00    +0.000 C 
BRANCH  22  23
ATOM     23  N   UNL     1      52.682   8.401   9.717  0.00  0.00    +0.000 NA
ATOM     24  H   UNL     1      52.749   8.479   8.702  0.00  0.00    +0.000 HD
ATOM     25  H   UNL     1      52.108   7.580   9.902  0.00  0.00    +0.000 HD
ENDBRANCH  22  23
ENDBRANCH  16  22
ENDBRANCH  15  19
ENDBRANCH   1  15
TORSDOF 5
ENDMDL
MODEL 5
REMARK VINA RESULT:    -6.237      3.112      4.562
REMARK INTER + INTRA:          -8.103
REMARK INTER:                  -7.585
REMARK INTRA:                  -0.518
REMARK UNBOUND:                -0.225
REMARK  Name = 
REMARK  5 active torsions:
REMARK  status: ('A' for Active; 'I' for Inactive)
REMARK    1  A    between atoms: N_1  and  C_2
REMARK    2  A    between atoms: C_2  and  C_3
REMARK    3  A    between atoms: C_6  and  C_7
REMARK    4  A    between atoms: C_7  and  N_8
REMARK    5  A    between atoms: C_13  and  C_14
REMARK                            x       y       z     vdW  Elec       q    Type
REMARK                         _______ _______ _______ _____ _____    ______ ____
ROOT
ATOM      1  N   UNL     1      47.028   6.141  13.961  0.00  0.00    +0.000 N 
ATOM      2  C   UNL     1      47.934   7.155  13.769  0.00  0.00    +0.000 A 
ATOM      3  C   UNL     1      48.884   7.067  14.761  0.00  0.00    +0.000 A 
ATOM      4  C   UNL     1      48.575   5.935  15.548  0.00  0.00    +0.000 A 
ATOM      5  N   UNL     1      49.221   5.468  16.644  0.00  0.00    +0.000 NA
ATOM      6  C   UNL     1      48.682   4.334  17.168  0.00  0.00    +0.000 A 
ATOM      7  C   UNL     1      47.597   3.635  16.646  0.00  0.00    +0.000 A 
ATOM      8  C   UNL     1      46.946   4.130  15.518  0.00  0.00    +0.000 A 
ATOM      9  C   UNL     1      47.446   5.326  14.994  0.00  0.00    +0.000 A 
ENDROOT
BRANCH   6  10
ATOM     10  C   UNL     1      49.317   3.831  18.429  0.00  0.00    +0.000 C 
ATOM     11  N   UNL     1      48.486   3.173  19.295  0.00  0.00    +0.000 N 
ATOM     12  O   UNL     1      50.508   3.981  18.677  0.00  0.00    +0.000 OA
ATOM     13  H   UNL     1      47.511   3.042  19.055  0.00  0.00    +0.000 HD
ATOM     14  H   UNL     1      48.865   2.786  20.148  0.00  0.00    +0.000 HD
ENDBRANCH   6  10
BRANCH   1  15
ATOM     15  C   UNL     1      45.811   5.974  13.179  0.00  0.00    +0.000 C 
BRANCH  15  19
ATOM     16  C   UNL     1      44.734   4.111   9.355  0.00  0.00    +0.000 C 
ATOM     17  C   UNL     1      45.787   5.229   9.350  0.00  0.00    +0.000 C 
ATOM     18  C   UNL     1      45.790   6.008  10.664  0.00  0.00    +0.000 C 
ATOM     19  C   UNL     1      45.975   5.112  11.901  0.00  0.00    +0.000 C 
ATOM     20  C   UNL     1      44.994   3.927  11.870  0.00  0.00    +0.000 C 
ATOM     21  C   UNL     1      45.003   3.172  10.539  0.00  0.00    +0.000 C 
BRANCH  16  22
ATOM     22  C   UNL     1      44.732   3.377   8.003  0.00  0.00    +0.000 C 
BRANCH  22  23
ATOM     23  N   UNL     1      45.876   3.744   7.175  0.00  0.00    +0.000 NA
ATOM     24  H   UNL     1      46.220   4.662   7.457  0.00  0.00    +0.000 HD
ATOM     25  H   UNL     1      45.587   3.834   6.202  0.00  0.00    +0.000 HD
ENDBRANCH  22  23
ENDBRANCH  16  22
ENDBRANCH  15  19
ENDBRANCH   1  15
TORSDOF 5
ENDMDL
MODEL 6
REMARK VINA RESULT:    -6.058      4.003      8.230
REMARK INTER + INTRA:          -7.877
REMARK INTER:                  -7.338
REMARK INTRA:                  -0.539
REMARK UNBOUND:                -0.225
REMARK  Name = 
REMARK  5 active torsions:
REMARK  status: ('A' for Active; 'I' for Inactive)
REMARK    1  A    between atoms: N_1  and  C_2
REMARK    2  A    between atoms: C_2  and  C_3
REMARK    3  A    between atoms: C_6  and  C_7
REMARK    4  A    between atoms: C_7  and  N_8
REMARK    5  A    between atoms: C_13  and  C_14
REMARK                            x       y       z     vdW  Elec       q    Type
REMARK                         _______ _______ _______ _____ _____    ______ ____
ROOT
ATOM      1  N   UNL     1      47.540   6.658  13.823  0.00  0.00    +0.000 N 
ATOM      2  C   UNL     1      47.205   7.944  13.475  0.00  0.00    +0.000 A 
ATOM      3  C   UNL     1      46.165   7.881  12.575  0.00  0.00    +0.000 A 
ATOM      4  C   UNL     1      45.825   6.519  12.411  0.00  0.00    +0.000 A 
ATOM      5  N   UNL     1      44.876   5.978  11.610  0.00  0.00    +0.000 NA
ATOM      6  C   UNL     1      44.780   4.623  11.695  0.00  0.00    +0.000 A 
ATOM      7  C   UNL     1      45.525   3.810  12.545  0.00  0.00    +0.000 A 
ATOM      8  C   UNL     1      46.496   4.385  13.362  0.00  0.00    +0.000 A 
ATOM      9  C   UNL     1      46.652   5.769  13.251  0.00  0.00    +0.000 A 
ENDROOT
BRANCH   6  10
ATOM     10  C   UNL     1      43.798   3.978  10.765  0.00  0.00    +0.000 C 
ATOM     11  N   UNL     1      43.822   4.422   9.469  0.00  0.00    +0.000 N 
ATOM     12  O   UNL     1      43.025   3.098  11.123  0.00  0.00    +0.000 OA
ATOM     13  H   UNL     1      44.487   5.134   9.194  0.00  0.00    +0.000 HD
ATOM     14  H   UNL     1      43.203   4.003   8.791  0.00  0.00    +0.000 HD
ENDBRANCH   6  10
BRANCH   1  15
ATOM     15  C   UNL     1      48.673   6.310  14.671  0.00  0.00    +0.000 C 
BRANCH  15  19
ATOM     16  C   UNL     1      49.211   5.170  18.873  0.00  0.00    +0.000 C 
ATOM     17  C   UNL     1      49.250   6.663  18.512  0.00  0.00    +0.000 C 
ATOM     18  C   UNL     1      49.409   6.877  17.008  0.00  0.00    +0.000 C 
ATOM     19  C   UNL     1      48.333   6.158  16.175  0.00  0.00    +0.000 C 
ATOM     20  C   UNL     1      48.210   4.682  16.596  0.00  0.00    +0.000 C 
ATOM     21  C   UNL     1      48.064   4.497  18.107  0.00  0.00    +0.000 C 
BRANCH  16  22
ATOM     22  C   UNL     1      49.093   4.995  20.397  0.00  0.00    +0.000 C 
BRANCH  22  23
ATOM     23  N   UNL     1      48.380   3.775  20.758  0.00  0.00    +0.000 NA
ATOM     24  H   UNL     1      48.938   3.238  21.422  0.00  0.00    +0.000 HD
ATOM     25  H   UNL     1      48.266   3.183  19.937  0.00  0.00    +0.000 HD
ENDBRANCH  22  23
ENDBRANCH  16  22
ENDBRANCH  15  19
ENDBRANCH   1  15
TORSDOF 5
ENDMDL
MODEL 7
REMARK VINA RESULT:    -5.987      4.267      7.407
REMARK INTER + INTRA:          -7.788
REMARK INTER:                  -7.281
REMARK INTRA:                  -0.507
REMARK UNBOUND:                -0.225
REMARK  Name = 
REMARK  5 active torsions:
REMARK  status: ('A' for Active; 'I' for Inactive)
REMARK    1  A    between atoms: N_1  and  C_2
REMARK    2  A    between atoms: C_2  and  C_3
REMARK    3  A    between atoms: C_6  and  C_7
REMARK    4  A    between atoms: C_7  and  N_8
REMARK    5  A    between atoms: C_13  and  C_14
REMARK                            x       y       z     vdW  Elec       q    Type
REMARK                         _______ _______ _______ _____ _____    ______ ____
ROOT
ATOM      1  N   UNL     1      46.242   4.895  13.601  0.00  0.00    +0.000 N 
ATOM      2  C   UNL     1      45.039   4.330  13.258  0.00  0.00    +0.000 A 
ATOM      3  C   UNL     1      44.244   5.319  12.724  0.00  0.00    +0.000 A 
ATOM      4  C   UNL     1      45.007   6.509  12.695  0.00  0.00    +0.000 A 
ATOM      5  N   UNL     1      44.632   7.740  12.270  0.00  0.00    +0.000 NA
ATOM      6  C   UNL     1      45.613   8.680  12.352  0.00  0.00    +0.000 A 
ATOM      7  C   UNL     1      46.919   8.455  12.775  0.00  0.00    +0.000 A 
ATOM      8  C   UNL     1      47.286   7.182  13.207  0.00  0.00    +0.000 A 
ATOM      9  C   UNL     1      46.280   6.211  13.186  0.00  0.00    +0.000 A 
ENDROOT
BRANCH   6  10
ATOM     10  C   UNL     1      45.215  10.074  11.970  0.00  0.00    +0.000 C 
ATOM     11  N   UNL     1      43.902  10.400  12.183  0.00  0.00    +0.000 N 
ATOM     12  O   UNL     1      46.006  10.886  11.506  0.00  0.00    +0.000 OA
ATOM     13  H   UNL     1      43.273   9.717  12.590  0.00  0.00    +0.000 HD
ATOM     14  H   UNL     1      43.583  11.335  11.971  0.00  0.00    +0.000 HD
ENDBRANCH   6  10
BRANCH   1  15
ATOM     15  C   UNL     1      47.306   4.188  14.302  0.00  0.00    +0.000 C 
BRANCH  15  19
ATOM     16  C   UNL     1      48.974   4.444  18.352  0.00  0.00    +0.000 C 
ATOM     17  C   UNL     1      48.554   5.745  17.654  0.00  0.00    +0.000 C 
ATOM     18  C   UNL     1      48.339   5.539  16.156  0.00  0.00    +0.000 C 
ATOM     19  C   UNL     1      47.335   4.418  15.834  0.00  0.00    +0.000 C 
ATOM     20  C   UNL     1      47.684   3.133  16.608  0.00  0.00    +0.000 C 
ATOM     21  C   UNL     1      47.905   3.371  18.102  0.00  0.00    +0.000 C 
BRANCH  16  22
ATOM     22  C   UNL     1      49.222   4.700  19.849  0.00  0.00    +0.000 C 
BRANCH  22  23
ATOM     23  N   UNL     1      48.422   3.825  20.698  0.00  0.00    +0.000 NA
ATOM     24  H   UNL     1      47.885   3.182  20.115  0.00  0.00    +0.000 HD
ATOM     25  H   UNL     1      47.741   4.374  21.220  0.00  0.00    +0.000 HD
ENDBRANCH  22  23
ENDBRANCH  16  22
ENDBRANCH  15  19
ENDBRANCH   1  15
TORSDOF 5
ENDMDL
MODEL 8
REMARK VINA RESULT:    -5.959      3.449      6.686
REMARK INTER + INTRA:          -7.752
REMARK INTER:                  -7.264
REMARK INTRA:                  -0.488
REMARK UNBOUND:                -0.225
REMARK  Name = 
REMARK  5 active torsions:
REMARK  status: ('A' for Active; 'I' for Inactive)
REMARK    1  A    between atoms: N_1  and  C_2
REMARK    2  A    between atoms: C_2  and  C_3
REMARK    3  A    between atoms: C_6  and  C_7
REMARK    4  A    between atoms: C_7  and  N_8
REMARK    5  A    between atoms: C_13  and  C_14
REMARK                            x       y       z     vdW  Elec       q    Type
REMARK                         _______ _______ _______ _____ _____    ______ ____
ROOT
ATOM      1  N   UNL     1      46.162   7.886  12.905  0.00  0.00    +0.000 N 
ATOM      2  C   UNL     1      45.370   8.734  12.171  0.00  0.00    +0.000 A 
ATOM      3  C   UNL     1      44.522   7.965  11.406  0.00  0.00    +0.000 A 
ATOM      4  C   UNL     1      44.773   6.611  11.724  0.00  0.00    +0.000 A 
ATOM      5  N   UNL     1      44.191   5.502  11.206  0.00  0.00    +0.000 NA
ATOM      6  C   UNL     1      44.641   4.334  11.741  0.00  0.00    +0.000 A 
ATOM      7  C   UNL     1      45.576   4.220  12.767  0.00  0.00    +0.000 A 
ATOM      8  C   UNL     1      46.162   5.371  13.287  0.00  0.00    +0.000 A 
ATOM      9  C   UNL     1      45.758   6.580  12.714  0.00  0.00    +0.000 A 
ENDROOT
BRANCH   6  10
ATOM     10  C   UNL     1      44.083   3.082  11.138  0.00  0.00    +0.000 C 
ATOM     11  N   UNL     1      44.866   2.473  10.193  0.00  0.00    +0.000 N 
ATOM     12  O   UNL     1      43.001   2.611  11.469  0.00  0.00    +0.000 OA
ATOM     13  H   UNL     1      45.766   2.870   9.954  0.00  0.00    +0.000 HD
ATOM     14  H   UNL     1      44.554   1.609   9.772  0.00  0.00    +0.000 HD
ENDBRANCH   6  10
BRANCH   1  15
ATOM     15  C   UNL     1      47.264   8.326  13.751  0.00  0.00    +0.000 C 
BRANCH  15  19
ATOM     16  C   UNL     1      51.297   8.640  12.053  0.00  0.00    +0.000 C 
ATOM     17  C   UNL     1      51.160   8.377  13.559  0.00  0.00    +0.000 C 
ATOM     18  C   UNL     1      49.740   8.649  14.053  0.00  0.00    +0.000 C 
ATOM     19  C   UNL     1      48.666   7.865  13.278  0.00  0.00    +0.000 C 
ATOM     20  C   UNL     1      48.853   8.037  11.760  0.00  0.00    +0.000 C 
ATOM     21  C   UNL     1      50.285   7.770  11.295  0.00  0.00    +0.000 C 
BRANCH  16  22
ATOM     22  C   UNL     1      52.748   8.397  11.601  0.00  0.00    +0.000 C 
BRANCH  22  23
ATOM     23  N   UNL     1      52.907   7.113  10.928  0.00  0.00    +0.000 NA
ATOM     24  H   UNL     1      52.081   6.537  11.092  0.00  0.00    +0.000 HD
ATOM     25  H   UNL     1      53.694   6.605  11.330  0.00  0.00    +0.000 HD
ENDBRANCH  22  23
ENDBRANCH  16  22
ENDBRANCH  15  19
ENDBRANCH   1  15
TORSDOF 5
ENDMDL
MODEL 9
REMARK VINA RESULT:    -5.745      3.806      6.067
REMARK INTER + INTRA:          -7.482
REMARK INTER:                  -6.971
REMARK INTRA:                  -0.512
REMARK UNBOUND:                -0.225
REMARK  Name = 
REMARK  5 active torsions:
REMARK  status: ('A' for Active; 'I' for Inactive)
REMARK    1  A    between atoms: N_1  and  C_2
REMARK    2  A    between atoms: C_2  and  C_3
REMARK    3  A    between atoms: C_6  and  C_7
REMARK    4  A    between atoms: C_7  and  N_8
REMARK    5  A    between atoms: C_13  and  C_14
REMARK                            x       y       z     vdW  Elec       q    Type
REMARK                         _______ _______ _______ _____ _____    ______ ____
ROOT
ATOM      1  N   UNL     1      48.608   6.897  14.849  0.00  0.00    +0.000 N 
ATOM      2  C   UNL     1      48.924   8.212  15.086  0.00  0.00    +0.000 A 
ATOM      3  C   UNL     1      48.991   8.392  16.449  0.00  0.00    +0.000 A 
ATOM      4  C   UNL     1      48.759   7.137  17.056  0.00  0.00    +0.000 A 
ATOM      5  N   UNL     1      48.710   6.835  18.376  0.00  0.00    +0.000 NA
ATOM      6  C   UNL     1      48.486   5.519  18.639  0.00  0.00    +0.000 A 
ATOM      7  C   UNL     1      48.360   4.511  17.687  0.00  0.00    +0.000 A 
ATOM      8  C   UNL     1      48.414   4.841  16.334  0.00  0.00    +0.000 A 
ATOM      9  C   UNL     1      48.586   6.196  16.037  0.00  0.00    +0.000 A 
ENDROOT
BRANCH   6  10
ATOM     10  C   UNL     1      48.343   5.157  20.086  0.00  0.00    +0.000 C 
ATOM     11  N   UNL     1      48.551   3.839  20.397  0.00  0.00    +0.000 N 
ATOM     12  O   UNL     1      48.071   5.981  20.952  0.00  0.00    +0.000 OA
ATOM     13  H   UNL     1      48.798   3.183  19.665  0.00  0.00    +0.000 HD
ATOM     14  H   UNL     1      48.497   3.543  21.361  0.00  0.00    +0.000 HD
ENDBRANCH   6  10
BRANCH   1  15
ATOM     15  C   UNL     1      48.337   6.348  13.526  0.00  0.00    +0.000 C 
BRANCH  15  19
ATOM     16  C   UNL     1      44.762   4.790  11.517  0.00  0.00    +0.000 C 
ATOM     17  C   UNL     1      45.002   4.401  12.983  0.00  0.00    +0.000 C 
ATOM     18  C   UNL     1      46.431   4.711  13.424  0.00  0.00    +0.000 C 
ATOM     19  C   UNL     1      46.834   6.178  13.193  0.00  0.00    +0.000 C 
ATOM     20  C   UNL     1      46.505   6.615  11.754  0.00  0.00    +0.000 C 
ATOM     21  C   UNL     1      45.072   6.282  11.335  0.00  0.00    +0.000 C 
BRANCH  16  22
ATOM     22  C   UNL     1      43.327   4.424  11.098  0.00  0.00    +0.000 C 
BRANCH  22  23
ATOM     23  N   UNL     1      42.984   3.051  11.449  0.00  0.00    +0.000 NA
ATOM     24  H   UNL     1      42.013   2.867  11.194  0.00  0.00    +0.000 HD
ATOM     25  H   UNL     1      43.043   2.924  12.458  0.00  0.00    +0.000 HD
ENDBRANCH  22  23
ENDBRANCH  16  22
ENDBRANCH  15  19
ENDBRANCH   1  15
TORSDOF 5
ENDMDL
