MODEL 1
REMARK VINA RESULT:    -7.017      0.000      0.000
REMARK INTER + INTRA:         -12.819
REMARK INTER:                 -11.735
REMARK INTRA:                  -1.084
REMARK UNBOUND:                -1.084
REMARK  Name = 
REMARK  13 active torsions:
REMARK  status: ('A' for Active; 'I' for Inactive)
REMARK    1  A    between atoms: C_1  and  C_2
REMARK    2  A    between atoms: C_2  and  N_3
REMARK    3  A    between atoms: N_3  and  C_4
REMARK    4  A    between atoms: N_3  and  C_25
REMARK    5  A    between atoms: C_4  and  C_5
REMARK    6  A    between atoms: C_8  and  C_9
REMARK    7  A    between atoms: C_9  and  N_10
REMARK    8  A    between atoms: C_11  and  C_13
REMARK    9  A    between atoms: C_25  and  C_26
REMARK   10  A    between atoms: N_29  and  C_30
REMARK   11  A    between atoms: C_30  and  C_31
REMARK   12  A    between atoms: C_31  and  C_32
REMARK   13  A    between atoms: C_32  and  N_33
REMARK                            x       y       z     vdW  Elec       q    Type
REMARK                         _______ _______ _______ _____ _____    ______ ____
ROOT
ATOM      1  C   UNL     1      47.535   5.348  14.324  0.00  0.00    +0.000 A 
ATOM      2  C   UNL     1      48.035   5.946  15.485  0.00  0.00    +0.000 A 
ATOM      3  C   UNL     1      48.243   5.176  16.624  0.00  0.00    +0.000 A 
ATOM      4  C   UNL     1      47.887   3.832  16.595  0.00  0.00    +0.000 A 
ATOM      5  N   UNL     1      47.318   3.249  15.513  0.00  0.00    +0.000 NA
ATOM      6  C   UNL     1      47.161   4.015  14.409  0.00  0.00    +0.000 A 
ENDROOT
BRANCH   1   7
ATOM      7  C   UNL     1      47.535   6.076  13.001  0.00  0.00    +0.000 C 
BRANCH   7   8
ATOM      8  N   UNL     1      46.245   6.707  12.628  0.00  0.00    +0.000 NA
BRANCH   8  10
ATOM      9  C   UNL     1      46.169   9.188  12.113  0.00  0.00    +0.000 C 
ATOM     10  C   UNL     1      46.056   8.073  13.144  0.00  0.00    +0.000 C 
ENDBRANCH   8  10
BRANCH   8  11
ATOM     11  C   UNL     1      45.107   5.844  13.016  0.00  0.00    +0.000 C 
BRANCH  11  12
ATOM     12  C   UNL     1      43.883   5.887  12.075  0.00  0.00    +0.000 C 
ATOM     13  C   UNL     1      43.080   4.587  12.180  0.00  0.00    +0.000 C 
ATOM     14  C   UNL     1      43.808   3.407  11.545  0.00  0.00    +0.000 C 
ATOM     15  N   UNL     1      44.178   3.683  10.149  0.00  0.00    +0.000 NA
ATOM     16  C   UNL     1      44.989   4.905  10.017  0.00  0.00    +0.000 C 
ATOM     17  C   UNL     1      44.276   6.120  10.615  0.00  0.00    +0.000 C 
BRANCH  15  18
ATOM     18  C   UNL     1      44.875   2.540   9.539  0.00  0.00    +0.000 C 
BRANCH  18  19
ATOM     19  C   UNL     1      45.369   2.804   8.110  0.00  0.00    +0.000 C 
BRANCH  19  20
ATOM     20  C   UNL     1      46.618   1.992   7.770  0.00  0.00    +0.000 C 
BRANCH  20  21
ATOM     21  N   UNL     1      46.393   0.577   8.055  0.00  0.00    +0.000 NA
ATOM     22  H   UNL     1      45.457   0.310   7.760  0.00  0.00    +0.000 HD
ATOM     23  H   UNL     1      46.434   0.432   9.063  0.00  0.00    +0.000 HD
ENDBRANCH  20  21
ENDBRANCH  19  20
ENDBRANCH  18  19
ENDBRANCH  15  18
ENDBRANCH  11  12
ENDBRANCH   8  11
ENDBRANCH   7   8
ENDBRANCH   1   7
BRANCH   4  24
ATOM     24  C   UNL     1      48.184   2.938  17.770  0.00  0.00    +0.000 C 
BRANCH  24  25
ATOM     25  N   UNL     1      49.606   2.825  18.027  0.00  0.00    +0.000 N 
ATOM     26  C   UNL     1      50.444   2.115  17.209  0.00  0.00    +0.000 C 
ATOM     27  O   UNL     1      50.030   1.513  16.221  0.00  0.00    +0.000 OA
ATOM     28  H   UNL     1      49.914   3.103  18.955  0.00  0.00    +0.000 HD
BRANCH  26  29
ATOM     29  C   UNL     1      51.878   2.173  17.522  0.00  0.00    +0.000 A 
ATOM     30  C   UNL     1      52.592   0.991  17.672  0.00  0.00    +0.000 A 
ATOM     31  S   UNL     1      54.251   1.223  17.985  0.00  0.00    +0.000 S 
ATOM     32  C   UNL     1      54.069   2.914  17.981  0.00  0.00    +0.000 A 
ATOM     33  N   UNL     1      55.131   3.732  18.221  0.00  0.00    +0.000 NA
ATOM     34  C   UNL     1      54.846   4.990  18.221  0.00  0.00    +0.000 A 
ATOM     35  N   UNL     1      53.598   5.507  17.990  0.00  0.00    +0.000 N 
ATOM     36  C   UNL     1      52.507   4.723  17.690  0.00  0.00    +0.000 A 
ATOM     37  O   UNL     1      51.425   5.222  17.405  0.00  0.00    +0.000 OA
ATOM     38  C   UNL     1      52.765   3.296  17.715  0.00  0.00    +0.000 A 
ATOM     39  H   UNL     1      53.443   6.504  17.982  0.00  0.00    +0.000 HD
ENDBRANCH  26  29
ENDBRANCH  24  25
ENDBRANCH   4  24
TORSDOF 12
ENDMDL
MODEL 2
REMARK VINA RESULT:    -6.767      3.266      9.286
REMARK INTER + INTRA:         -12.401
REMARK INTER:                  -9.836
REMARK INTRA:                  -2.565
REMARK UNBOUND:                -1.084
REMARK  Name = 
REMARK  13 active torsions:
REMARK  status: ('A' for Active; 'I' for Inactive)
REMARK    1  A    between atoms: C_1  and  C_2
REMARK    2  A    between atoms: C_2  and  N_3
REMARK    3  A    between atoms: N_3  and  C_4
REMARK    4  A    between atoms: N_3  and  C_25
REMARK    5  A    between atoms: C_4  and  C_5
REMARK    6  A    between atoms: C_8  and  C_9
REMARK    7  A    between atoms: C_9  and  N_10
REMARK    8  A    between atoms: C_11  and  C_13
REMARK    9  A    between atoms: C_25  and  C_26
REMARK   10  A    between atoms: N_29  and  C_30
REMARK   11  A    between atoms: C_30  and  C_31
REMARK   12  A    between atoms: C_31  and  C_32
REMARK   13  A    between atoms: C_32  and  N_33
REMARK                            x       y       z     vdW  Elec       q    Type
REMARK                         _______ _______ _______ _____ _____    ______ ____
ROOT
ATOM      1  C   UNL     1      51.257   3.625  18.285  0.00  0.00    +0.000 A 
ATOM      2  C   UNL     1      50.879   2.608  17.401  0.00  0.00    +0.000 A 
ATOM      3  C   UNL     1      49.552   2.493  17.007  0.00  0.00    +0.000 A 
ATOM      4  C   UNL     1      48.615   3.363  17.555  0.00  0.00    +0.000 A 
ATOM      5  N   UNL     1      48.938   4.298  18.481  0.00  0.00    +0.000 NA
ATOM      6  C   UNL     1      50.243   4.408  18.818  0.00  0.00    +0.000 A 
ENDROOT
BRANCH   1   7
ATOM      7  C   UNL     1      52.710   3.948  18.538  0.00  0.00    +0.000 C 
BRANCH   7   8
ATOM      8  N   UNL     1      53.371   4.752  17.480  0.00  0.00    +0.000 NA
BRANCH   8  10
ATOM      9  C   UNL     1      55.051   2.866  17.263  0.00  0.00    +0.000 C 
ATOM     10  C   UNL     1      54.759   4.359  17.186  0.00  0.00    +0.000 C 
ENDBRANCH   8  10
BRANCH   8  11
ATOM     11  C   UNL     1      53.295   6.196  17.793  0.00  0.00    +0.000 C 
BRANCH  11  12
ATOM     12  C   UNL     1      52.971   7.123  16.601  0.00  0.00    +0.000 C 
ATOM     13  C   UNL     1      53.088   8.592  17.017  0.00  0.00    +0.000 C 
ATOM     14  C   UNL     1      51.957   9.021  17.946  0.00  0.00    +0.000 C 
ATOM     15  N   UNL     1      50.638   8.746  17.359  0.00  0.00    +0.000 NA
ATOM     16  C   UNL     1      50.475   7.331  16.988  0.00  0.00    +0.000 C 
ATOM     17  C   UNL     1      51.574   6.872  16.028  0.00  0.00    +0.000 C 
BRANCH  15  18
ATOM     18  C   UNL     1      49.550   9.167  18.257  0.00  0.00    +0.000 C 
BRANCH  18  19
ATOM     19  C   UNL     1      49.004   8.038  19.142  0.00  0.00    +0.000 C 
BRANCH  19  20
ATOM     20  C   UNL     1      47.480   7.936  19.076  0.00  0.00    +0.000 C 
BRANCH  20  21
ATOM     21  N   UNL     1      47.086   6.644  18.518  0.00  0.00    +0.000 NA
ATOM     22  H   UNL     1      46.512   6.787  17.690  0.00  0.00    +0.000 HD
ATOM     23  H   UNL     1      46.504   6.155  19.196  0.00  0.00    +0.000 HD
ENDBRANCH  20  21
ENDBRANCH  19  20
ENDBRANCH  18  19
ENDBRANCH  15  18
ENDBRANCH  11  12
ENDBRANCH   8  11
ENDBRANCH   7   8
ENDBRANCH   1   7
BRANCH   4  24
ATOM     24  C   UNL     1      47.184   3.340  17.085  0.00  0.00    +0.000 C 
BRANCH  24  25
ATOM     25  N   UNL     1      46.919   4.355  16.086  0.00  0.00    +0.000 N 
ATOM     26  C   UNL     1      47.035   4.109  14.744  0.00  0.00    +0.000 C 
ATOM     27  O   UNL     1      47.392   3.015  14.314  0.00  0.00    +0.000 OA
ATOM     28  H   UNL     1      46.866   5.311  16.426  0.00  0.00    +0.000 HD
BRANCH  26  29
ATOM     29  C   UNL     1      46.631   5.191  13.836  0.00  0.00    +0.000 A 
ATOM     30  C   UNL     1      47.502   6.249  13.605  0.00  0.00    +0.000 A 
ATOM     31  S   UNL     1      46.911   7.398  12.494  0.00  0.00    +0.000 S 
ATOM     32  C   UNL     1      45.446   6.551  12.316  0.00  0.00    +0.000 A 
ATOM     33  N   UNL     1      44.460   7.024  11.507  0.00  0.00    +0.000 NA
ATOM     34  C   UNL     1      43.391   6.301  11.490  0.00  0.00    +0.000 A 
ATOM     35  N   UNL     1      43.224   5.141  12.200  0.00  0.00    +0.000 N 
ATOM     36  C   UNL     1      44.211   4.597  12.988  0.00  0.00    +0.000 A 
ATOM     37  O   UNL     1      44.058   3.514  13.542  0.00  0.00    +0.000 OA
ATOM     38  C   UNL     1      45.422   5.391  13.072  0.00  0.00    +0.000 A 
ATOM     39  H   UNL     1      42.370   4.608  12.128  0.00  0.00    +0.000 HD
ENDBRANCH  26  29
ENDBRANCH  24  25
ENDBRANCH   4  24
TORSDOF 12
ENDMDL
MODEL 3
REMARK VINA RESULT:    -6.719      4.042      9.124
REMARK INTER + INTRA:         -12.320
REMARK INTER:                 -10.262
REMARK INTRA:                  -2.058
REMARK UNBOUND:                -1.084
REMARK  Name = 
REMARK  13 active torsions:
REMARK  status: ('A' for Active; 'I' for Inactive)
REMARK    1  A    between atoms: C_1  and  C_2
REMARK    2  A    between atoms: C_2  and  N_3
REMARK    3  A    between atoms: N_3  and  C_4
REMARK    4  A    between atoms: N_3  and  C_25
REMARK    5  A    between atoms: C_4  and  C_5
REMARK    6  A    between atoms: C_8  and  C_9
REMARK    7  A    between atoms: C_9  and  N_10
REMARK    8  A    between atoms: C_11  and  C_13
REMARK    9  A    between atoms: C_25  and  C_26
REMARK   10  A    between atoms: N_29  and  C_30
REMARK   11  A    between atoms: C_30  and  C_31
REMARK   12  A    between atoms: C_31  and  C_32
REMARK   13  A    between atoms: C_32  and  N_33
REMARK                            x       y       z     vdW  Elec       q    Type
REMARK                         _______ _______ _______ _____ _____    ______ ____
ROOT
ATOM      1  C   UNL     1      50.143   7.758  15.411  0.00  0.00    +0.000 A 
ATOM      2  C   UNL     1      50.496   8.586  14.340  0.00  0.00    +0.000 A 
ATOM      3  C   UNL     1      49.729   8.580  13.180  0.00  0.00    +0.000 A 
ATOM      4  C   UNL     1      48.657   7.697  13.094  0.00  0.00    +0.000 A 
ATOM      5  N   UNL     1      48.348   6.822  14.080  0.00  0.00    +0.000 NA
ATOM      6  C   UNL     1      49.091   6.876  15.209  0.00  0.00    +0.000 A 
ENDROOT
BRANCH   1   7
ATOM      7  C   UNL     1      50.782   7.914  16.770  0.00  0.00    +0.000 C 
BRANCH   7   8
ATOM      8  N   UNL     1      49.893   8.459  17.825  0.00  0.00    +0.000 NA
BRANCH   8  10
ATOM      9  C   UNL     1      48.508  10.520  17.314  0.00  0.00    +0.000 C 
ATOM     10  C   UNL     1      49.803   9.929  17.855  0.00  0.00    +0.000 C 
ENDBRANCH   8  10
BRANCH   8  11
ATOM     11  C   UNL     1      50.275   7.936  19.155  0.00  0.00    +0.000 C 
BRANCH  11  12
ATOM     12  C   UNL     1      49.108   7.455  20.046  0.00  0.00    +0.000 C 
ATOM     13  C   UNL     1      49.514   6.206  20.833  0.00  0.00    +0.000 C 
ATOM     14  C   UNL     1      49.634   4.975  19.941  0.00  0.00    +0.000 C 
ATOM     15  N   UNL     1      48.401   4.736  19.176  0.00  0.00    +0.000 NA
ATOM     16  C   UNL     1      48.006   5.904  18.372  0.00  0.00    +0.000 C 
ATOM     17  C   UNL     1      47.843   7.154  19.240  0.00  0.00    +0.000 C 
BRANCH  15  18
ATOM     18  C   UNL     1      48.520   3.544  18.321  0.00  0.00    +0.000 C 
BRANCH  18  19
ATOM     19  C   UNL     1      47.281   3.275  17.454  0.00  0.00    +0.000 C 
BRANCH  19  20
ATOM     20  C   UNL     1      47.596   3.331  15.960  0.00  0.00    +0.000 C 
BRANCH  20  21
ATOM     21  N   UNL     1      46.749   4.324  15.303  0.00  0.00    +0.000 NA
ATOM     22  H   UNL     1      46.772   4.184  14.295  0.00  0.00    +0.000 HD
ATOM     23  H   UNL     1      47.131   5.252  15.477  0.00  0.00    +0.000 HD
ENDBRANCH  20  21
ENDBRANCH  19  20
ENDBRANCH  18  19
ENDBRANCH  15  18
ENDBRANCH  11  12
ENDBRANCH   8  11
ENDBRANCH   7   8
ENDBRANCH   1   7
BRANCH   4  24
ATOM     24  C   UNL     1      47.741   7.724  11.898  0.00  0.00    +0.000 C 
BRANCH  24  25
ATOM     25  N   UNL     1      46.997   6.490  11.751  0.00  0.00    +0.000 N 
ATOM     26  C   UNL     1      45.633   6.440  11.855  0.00  0.00    +0.000 C 
ATOM     27  O   UNL     1      44.964   7.440  12.103  0.00  0.00    +0.000 OA
ATOM     28  H   UNL     1      47.543   5.633  11.792  0.00  0.00    +0.000 HD
BRANCH  26  29
ATOM     29  C   UNL     1      44.996   5.146  11.575  0.00  0.00    +0.000 A 
ATOM     30  C   UNL     1      44.264   4.515  12.573  0.00  0.00    +0.000 A 
ATOM     31  S   UNL     1      43.547   3.049  12.080  0.00  0.00    +0.000 S 
ATOM     32  C   UNL     1      44.229   3.176  10.527  0.00  0.00    +0.000 A 
ATOM     33  N   UNL     1      44.026   2.207   9.593  0.00  0.00    +0.000 NA
ATOM     34  C   UNL     1      44.627   2.414   8.471  0.00  0.00    +0.000 A 
ATOM     35  N   UNL     1      45.402   3.509   8.192  0.00  0.00    +0.000 N 
ATOM     36  C   UNL     1      45.593   4.538   9.084  0.00  0.00    +0.000 A 
ATOM     37  O   UNL     1      46.223   5.542   8.772  0.00  0.00    +0.000 OA
ATOM     38  C   UNL     1      44.969   4.338  10.378  0.00  0.00    +0.000 A 
ATOM     39  H   UNL     1      45.830   3.624   7.285  0.00  0.00    +0.000 HD
ENDBRANCH  26  29
ENDBRANCH  24  25
ENDBRANCH   4  24
TORSDOF 12
ENDMDL
MODEL 4
REMARK VINA RESULT:    -6.712      5.277      7.174
REMARK INTER + INTRA:         -12.308
REMARK INTER:                 -11.331
REMARK INTRA:                  -0.977
REMARK UNBOUND:                -1.084
REMARK  Name = 
REMARK  13 active torsions:
REMARK  status: ('A' for Active; 'I' for Inactive)
REMARK    1  A    between atoms: C_1  and  C_2
REMARK    2  A    between atoms: C_2  and  N_3
REMARK    3  A    between atoms: N_3  and  C_4
REMARK    4  A    between atoms: N_3  and  C_25
REMARK    5  A    between atoms: C_4  and  C_5
REMARK    6  A    between atoms: C_8  and  C_9
REMARK    7  A    between atoms: C_9  and  N_10
REMARK    8  A    between atoms: C_11  and  C_13
REMARK    9  A    between atoms: C_25  and  C_26
REMARK   10  A    between atoms: N_29  and  C_30
REMARK   11  A    between atoms: C_30  and  C_31
REMARK   12  A    between atoms: C_31  and  C_32
REMARK   13  A    between atoms: C_32  and  N_33
REMARK                            x       y       z     vdW  Elec       q    Type
REMARK                         _______ _______ _______ _____ _____    ______ ____
ROOT
ATOM      1  C   UNL     1      47.012   6.687  12.982  0.00  0.00    +0.000 A 
ATOM      2  C   UNL     1      47.397   6.946  11.662  0.00  0.00    +0.000 A 
ATOM      3  C   UNL     1      48.664   7.455  11.399  0.00  0.00    +0.000 A 
ATOM      4  C   UNL     1      49.498   7.753  12.471  0.00  0.00    +0.000 A 
ATOM      5  N   UNL     1      49.118   7.597  13.761  0.00  0.00    +0.000 NA
ATOM      6  C   UNL     1      47.893   7.067  13.984  0.00  0.00    +0.000 A 
ENDROOT
BRANCH   1   7
ATOM      7  C   UNL     1      45.761   5.903  13.298  0.00  0.00    +0.000 C 
BRANCH   7   8
ATOM      8  N   UNL     1      45.945   4.433  13.391  0.00  0.00    +0.000 NA
BRANCH   8  10
ATOM      9  C   UNL     1      47.092   4.008  15.612  0.00  0.00    +0.000 C 
ATOM     10  C   UNL     1      47.169   4.010  14.091  0.00  0.00    +0.000 C 
ENDBRANCH   8  10
BRANCH   8  11
ATOM     11  C   UNL     1      45.870   3.809  12.052  0.00  0.00    +0.000 C 
BRANCH  11  12
ATOM     12  C   UNL     1      44.544   4.020  11.288  0.00  0.00    +0.000 C 
ATOM     13  C   UNL     1      44.149   2.746  10.537  0.00  0.00    +0.000 C 
ATOM     14  C   UNL     1      45.055   2.478   9.339  0.00  0.00    +0.000 C 
ATOM     15  N   UNL     1      45.105   3.630   8.428  0.00  0.00    +0.000 NA
ATOM     16  C   UNL     1      45.525   4.865   9.110  0.00  0.00    +0.000 C 
ATOM     17  C   UNL     1      44.618   5.185  10.300  0.00  0.00    +0.000 C 
BRANCH  15  18
ATOM     18  C   UNL     1      45.976   3.365   7.271  0.00  0.00    +0.000 C 
BRANCH  18  19
ATOM     19  C   UNL     1      46.756   2.046   7.370  0.00  0.00    +0.000 C 
BRANCH  19  20
ATOM     20  C   UNL     1      48.194   2.185   6.873  0.00  0.00    +0.000 C 
BRANCH  20  21
ATOM     21  N   UNL     1      48.266   1.881   5.445  0.00  0.00    +0.000 NA
ATOM     22  H   UNL     1      48.129   0.884   5.298  0.00  0.00    +0.000 HD
ATOM     23  H   UNL     1      49.202   2.100   5.108  0.00  0.00    +0.000 HD
ENDBRANCH  20  21
ENDBRANCH  19  20
ENDBRANCH  18  19
ENDBRANCH  15  18
ENDBRANCH  11  12
ENDBRANCH   8  11
ENDBRANCH   7   8
ENDBRANCH   1   7
BRANCH   4  24
ATOM     24  C   UNL     1      50.913   8.214  12.232  0.00  0.00    +0.000 C 
BRANCH  24  25
ATOM     25  N   UNL     1      51.302   8.089  10.842  0.00  0.00    +0.000 N 
ATOM     26  C   UNL     1      52.576   8.349  10.412  0.00  0.00    +0.000 C 
ATOM     27  O   UNL     1      53.456   8.724  11.182  0.00  0.00    +0.000 OA
ATOM     28  H   UNL     1      50.541   8.022  10.171  0.00  0.00    +0.000 HD
BRANCH  26  29
ATOM     29  C   UNL     1      52.863   8.077   8.997  0.00  0.00    +0.000 A 
ATOM     30  C   UNL     1      52.701   9.091   8.061  0.00  0.00    +0.000 A 
ATOM     31  S   UNL     1      53.120   8.635   6.473  0.00  0.00    +0.000 S 
ATOM     32  C   UNL     1      53.489   7.050   6.968  0.00  0.00    +0.000 A 
ATOM     33  N   UNL     1      53.893   6.113   6.067  0.00  0.00    +0.000 NA
ATOM     34  C   UNL     1      54.107   4.946   6.572  0.00  0.00    +0.000 A 
ATOM     35  N   UNL     1      53.967   4.632   7.899  0.00  0.00    +0.000 N 
ATOM     36  C   UNL     1      53.612   5.558   8.853  0.00  0.00    +0.000 A 
ATOM     37  O   UNL     1      53.578   5.264  10.042  0.00  0.00    +0.000 OA
ATOM     38  C   UNL     1      53.322   6.880   8.332  0.00  0.00    +0.000 A 
ATOM     39  H   UNL     1      54.170   3.703   8.236  0.00  0.00    +0.000 HD
ENDBRANCH  26  29
ENDBRANCH  24  25
ENDBRANCH   4  24
TORSDOF 12
ENDMDL
MODEL 5
REMARK VINA RESULT:    -6.582      2.448      4.516
REMARK INTER + INTRA:         -12.091
REMARK INTER:                  -9.704
REMARK INTRA:                  -2.387
REMARK UNBOUND:                -1.084
REMARK  Name = 
REMARK  13 active torsions:
REMARK  status: ('A' for Active; 'I' for Inactive)
REMARK    1  A    between atoms: C_1  and  C_2
REMARK    2  A    between atoms: C_2  and  N_3
REMARK    3  A    between atoms: N_3  and  C_4
REMARK    4  A    between atoms: N_3  and  C_25
REMARK    5  A    between atoms: C_4  and  C_5
REMARK    6  A    between atoms: C_8  and  C_9
REMARK    7  A    between atoms: C_9  and  N_10
REMARK    8  A    between atoms: C_11  and  C_13
REMARK    9  A    between atoms: C_25  and  C_26
REMARK   10  A    between atoms: N_29  and  C_30
REMARK   11  A    between atoms: C_30  and  C_31
REMARK   12  A    between atoms: C_31  and  C_32
REMARK   13  A    between atoms: C_32  and  N_33
REMARK                            x       y       z     vdW  Elec       q    Type
REMARK                         _______ _______ _______ _____ _____    ______ ____
ROOT
ATOM      1  C   UNL     1      47.638   9.769  12.681  0.00  0.00    +0.000 A 
ATOM      2  C   UNL     1      48.555   9.337  11.717  0.00  0.00    +0.000 A 
ATOM      3  C   UNL     1      49.820   8.915  12.107  0.00  0.00    +0.000 A 
ATOM      4  C   UNL     1      50.164   8.994  13.453  0.00  0.00    +0.000 A 
ATOM      5  N   UNL     1      49.328   9.492  14.395  0.00  0.00    +0.000 NA
ATOM      6  C   UNL     1      48.091   9.862  13.989  0.00  0.00    +0.000 A 
ENDROOT
BRANCH   1   7
ATOM      7  C   UNL     1      46.183   9.989  12.341  0.00  0.00    +0.000 C 
BRANCH   7   8
ATOM      8  N   UNL     1      45.488   8.816  11.754  0.00  0.00    +0.000 NA
BRANCH   8  10
ATOM      9  C   UNL     1      44.149  10.582  10.522  0.00  0.00    +0.000 C 
ATOM     10  C   UNL     1      44.267   9.140  10.998  0.00  0.00    +0.000 C 
ENDBRANCH   8  10
BRANCH   8  11
ATOM     11  C   UNL     1      45.203   7.802  12.792  0.00  0.00    +0.000 C 
BRANCH  11  12
ATOM     12  C   UNL     1      46.172   6.600  12.839  0.00  0.00    +0.000 C 
ATOM     13  C   UNL     1      46.736   6.312  11.445  0.00  0.00    +0.000 C 
ATOM     14  C   UNL     1      45.688   5.716  10.510  0.00  0.00    +0.000 C 
ATOM     15  N   UNL     1      45.069   4.513  11.084  0.00  0.00    +0.000 NA
ATOM     16  C   UNL     1      44.478   4.766  12.408  0.00  0.00    +0.000 C 
ATOM     17  C   UNL     1      45.509   5.334  13.385  0.00  0.00    +0.000 C 
BRANCH  15  18
ATOM     18  C   UNL     1      44.063   3.939  10.177  0.00  0.00    +0.000 C 
BRANCH  18  19
ATOM     19  C   UNL     1      44.464   3.984   8.696  0.00  0.00    +0.000 C 
BRANCH  19  20
ATOM     20  C   UNL     1      45.333   2.793   8.293  0.00  0.00    +0.000 C 
BRANCH  20  21
ATOM     21  N   UNL     1      45.313   1.777   9.343  0.00  0.00    +0.000 NA
ATOM     22  H   UNL     1      46.199   1.278   9.357  0.00  0.00    +0.000 HD
ATOM     23  H   UNL     1      44.594   1.089   9.124  0.00  0.00    +0.000 HD
ENDBRANCH  20  21
ENDBRANCH  19  20
ENDBRANCH  18  19
ENDBRANCH  15  18
ENDBRANCH  11  12
ENDBRANCH   8  11
ENDBRANCH   7   8
ENDBRANCH   1   7
BRANCH   4  24
ATOM     24  C   UNL     1      51.486   8.458  13.936  0.00  0.00    +0.000 C 
BRANCH  24  25
ATOM     25  N   UNL     1      51.332   7.264  14.742  0.00  0.00    +0.000 N 
ATOM     26  C   UNL     1      51.511   7.268  16.099  0.00  0.00    +0.000 C 
ATOM     27  O   UNL     1      51.835   8.285  16.707  0.00  0.00    +0.000 OA
ATOM     28  H   UNL     1      51.309   6.383  14.234  0.00  0.00    +0.000 HD
BRANCH  26  29
ATOM     29  C   UNL     1      51.216   6.016  16.808  0.00  0.00    +0.000 A 
ATOM     30  C   UNL     1      52.228   5.377  17.515  0.00  0.00    +0.000 A 
ATOM     31  S   UNL     1      51.718   3.965  18.322  0.00  0.00    +0.000 S 
ATOM     32  C   UNL     1      50.136   4.126  17.718  0.00  0.00    +0.000 A 
ATOM     33  N   UNL     1      49.178   3.205  18.014  0.00  0.00    +0.000 NA
ATOM     34  C   UNL     1      48.033   3.432  17.464  0.00  0.00    +0.000 A 
ATOM     35  N   UNL     1      47.755   4.502  16.655  0.00  0.00    +0.000 N 
ATOM     36  C   UNL     1      48.675   5.485  16.371  0.00  0.00    +0.000 A 
ATOM     37  O   UNL     1      48.368   6.473  15.714  0.00  0.00    +0.000 OA
ATOM     38  C   UNL     1      49.992   5.259  16.935  0.00  0.00    +0.000 A 
ATOM     39  H   UNL     1      46.831   4.635  16.271  0.00  0.00    +0.000 HD
ENDBRANCH  26  29
ENDBRANCH  24  25
ENDBRANCH   4  24
TORSDOF 12
ENDMDL
MODEL 6
REMARK VINA RESULT:    -6.363      5.662      7.406
REMARK INTER + INTRA:         -11.726
REMARK INTER:                 -10.242
REMARK INTRA:                  -1.484
REMARK UNBOUND:                -1.084
REMARK  Name = 
REMARK  13 active torsions:
REMARK  status: ('A' for Active; 'I' for Inactive)
REMARK    1  A    between atoms: C_1  and  C_2
REMARK    2  A    between atoms: C_2  and  N_3
REMARK    3  A    between atoms: N_3  and  C_4
REMARK    4  A    between atoms: N_3  and  C_25
REMARK    5  A    between atoms: C_4  and  C_5
REMARK    6  A    between atoms: C_8  and  C_9
REMARK    7  A    between atoms: C_9  and  N_10
REMARK    8  A    between atoms: C_11  and  C_13
REMARK    9  A    between atoms: C_25  and  C_26
REMARK   10  A    between atoms: N_29  and  C_30
REMARK   11  A    between atoms: C_30  and  C_31
REMARK   12  A    between atoms: C_31  and  C_32
REMARK   13  A    between atoms: C_32  and  N_33
REMARK                            x       y       z     vdW  Elec       q    Type
REMARK                         _______ _______ _______ _____ _____    ______ ____
ROOT
ATOM      1  C   UNL     1      47.350   8.978  12.833  0.00  0.00    +0.000 A 
ATOM      2  C   UNL     1      47.951   9.659  11.769  0.00  0.00    +0.000 A 
ATOM      3  C   UNL     1      49.312   9.503  11.530  0.00  0.00    +0.000 A 
ATOM      4  C   UNL     1      50.056   8.715  12.402  0.00  0.00    +0.000 A 
ATOM      5  N   UNL     1      49.516   8.117  13.491  0.00  0.00    +0.000 NA
ATOM      6  C   UNL     1      48.184   8.259  13.677  0.00  0.00    +0.000 A 
ENDROOT
BRANCH   1   7
ATOM      7  C   UNL     1      45.848   8.910  12.975  0.00  0.00    +0.000 C 
BRANCH   7   8
ATOM      8  N   UNL     1      45.091   8.957  11.700  0.00  0.00    +0.000 NA
BRANCH   8  10
ATOM      9  C   UNL     1      43.320  10.134  10.319  0.00  0.00    +0.000 C 
ATOM     10  C   UNL     1      44.238  10.145  11.535  0.00  0.00    +0.000 C 
ENDBRANCH   8  10
BRANCH   8  11
ATOM     11  C   UNL     1      44.300   7.720  11.514  0.00  0.00    +0.000 C 
BRANCH  11  12
ATOM     12  C   UNL     1      44.671   6.543  12.442  0.00  0.00    +0.000 C 
ATOM     13  C   UNL     1      45.919   5.823  11.924  0.00  0.00    +0.000 C 
ATOM     14  C   UNL     1      45.640   5.026  10.654  0.00  0.00    +0.000 C 
ATOM     15  N   UNL     1      44.529   4.081  10.839  0.00  0.00    +0.000 NA
ATOM     16  C   UNL     1      43.298   4.747  11.296  0.00  0.00    +0.000 C 
ATOM     17  C   UNL     1      43.531   5.532  12.589  0.00  0.00    +0.000 C 
BRANCH  15  18
ATOM     18  C   UNL     1      44.267   3.310   9.614  0.00  0.00    +0.000 C 
BRANCH  18  19
ATOM     19  C   UNL     1      44.702   4.023   8.326  0.00  0.00    +0.000 C 
BRANCH  19  20
ATOM     20  C   UNL     1      45.763   3.236   7.558  0.00  0.00    +0.000 C 
BRANCH  20  21
ATOM     21  N   UNL     1      46.749   4.150   6.982  0.00  0.00    +0.000 NA
ATOM     22  H   UNL     1      46.275   4.889   6.469  0.00  0.00    +0.000 HD
ATOM     23  H   UNL     1      47.315   3.640   6.306  0.00  0.00    +0.000 HD
ENDBRANCH  20  21
ENDBRANCH  19  20
ENDBRANCH  18  19
ENDBRANCH  15  18
ENDBRANCH  11  12
ENDBRANCH   8  11
ENDBRANCH   7   8
ENDBRANCH   1   7
BRANCH   4  24
ATOM     24  C   UNL     1      51.511   8.439  12.129  0.00  0.00    +0.000 C 
BRANCH  24  25
ATOM     25  N   UNL     1      51.759   8.137  10.733  0.00  0.00    +0.000 N 
ATOM     26  C   UNL     1      52.710   8.793   9.999  0.00  0.00    +0.000 C 
ATOM     27  O   UNL     1      53.394   9.692  10.481  0.00  0.00    +0.000 OA
ATOM     28  H   UNL     1      51.047   7.581  10.265  0.00  0.00    +0.000 HD
BRANCH  26  29
ATOM     29  C   UNL     1      52.934   8.314   8.629  0.00  0.00    +0.000 A 
ATOM     30  C   UNL     1      52.835   9.207   7.569  0.00  0.00    +0.000 A 
ATOM     31  S   UNL     1      53.169   8.512   6.049  0.00  0.00    +0.000 S 
ATOM     32  C   UNL     1      53.410   6.978   6.743  0.00  0.00    +0.000 A 
ATOM     33  N   UNL     1      53.706   5.899   5.969  0.00  0.00    +0.000 NA
ATOM     34  C   UNL     1      53.830   4.793   6.621  0.00  0.00    +0.000 A 
ATOM     35  N   UNL     1      53.700   4.669   7.979  0.00  0.00    +0.000 N 
ATOM     36  C   UNL     1      53.454   5.740   8.808  0.00  0.00    +0.000 A 
ATOM     37  O   UNL     1      53.427   5.608  10.026  0.00  0.00    +0.000 OA
ATOM     38  C   UNL     1      53.267   7.003   8.121  0.00  0.00    +0.000 A 
ATOM     39  H   UNL     1      53.830   3.778   8.433  0.00  0.00    +0.000 HD
ENDBRANCH  26  29
ENDBRANCH  24  25
ENDBRANCH   4  24
TORSDOF 12
ENDMDL
MODEL 7
REMARK VINA RESULT:    -6.061      4.727      9.505
REMARK INTER + INTRA:         -11.220
REMARK INTER:                  -9.118
REMARK INTRA:                  -2.102
REMARK UNBOUND:                -1.084
REMARK  Name = 
REMARK  13 active torsions:
REMARK  status: ('A' for Active; 'I' for Inactive)
REMARK    1  A    between atoms: C_1  and  C_2
REMARK    2  A    between atoms: C_2  and  N_3
REMARK    3  A    between atoms: N_3  and  C_4
REMARK    4  A    between atoms: N_3  and  C_25
REMARK    5  A    between atoms: C_4  and  C_5
REMARK    6  A    between atoms: C_8  and  C_9
REMARK    7  A    between atoms: C_9  and  N_10
REMARK    8  A    between atoms: C_11  and  C_13
REMARK    9  A    between atoms: C_25  and  C_26
REMARK   10  A    between atoms: N_29  and  C_30
REMARK   11  A    between atoms: C_30  and  C_31
REMARK   12  A    between atoms: C_31  and  C_32
REMARK   13  A    between atoms: C_32  and  N_33
REMARK                            x       y       z     vdW  Elec       q    Type
REMARK                         _______ _______ _______ _____ _____    ______ ____
ROOT
ATOM      1  C   UNL     1      50.088   9.024  11.589  0.00  0.00    +0.000 A 
ATOM      2  C   UNL     1      49.603   7.714  11.513  0.00  0.00    +0.000 A 
ATOM      3  C   UNL     1      48.318   7.425  11.958  0.00  0.00    +0.000 A 
ATOM      4  C   UNL     1      47.565   8.446  12.530  0.00  0.00    +0.000 A 
ATOM      5  N   UNL     1      48.043   9.702  12.698  0.00  0.00    +0.000 NA
ATOM      6  C   UNL     1      49.283   9.960  12.223  0.00  0.00    +0.000 A 
ENDROOT
BRANCH   1   7
ATOM      7  C   UNL     1      51.362   9.433  10.891  0.00  0.00    +0.000 C 
BRANCH   7   8
ATOM      8  N   UNL     1      52.549   9.565  11.771  0.00  0.00    +0.000 NA
BRANCH   8  10
ATOM      9  C   UNL     1      53.887   8.654   9.820  0.00  0.00    +0.000 C 
ATOM     10  C   UNL     1      53.843   9.523  11.070  0.00  0.00    +0.000 C 
ENDBRANCH   8  10
BRANCH   8  11
ATOM     11  C   UNL     1      52.513   8.558  12.855  0.00  0.00    +0.000 C 
BRANCH  11  12
ATOM     12  C   UNL     1      53.125   9.002  14.202  0.00  0.00    +0.000 C 
ATOM     13  C   UNL     1      53.276   7.804  15.144  0.00  0.00    +0.000 C 
ATOM     14  C   UNL     1      51.931   7.305  15.663  0.00  0.00    +0.000 C 
ATOM     15  N   UNL     1      51.163   8.383  16.305  0.00  0.00    +0.000 NA
ATOM     16  C   UNL     1      50.962   9.534  15.410  0.00  0.00    +0.000 C 
ATOM     17  C   UNL     1      52.293  10.084  14.894  0.00  0.00    +0.000 C 
BRANCH  15  18
ATOM     18  C   UNL     1      49.869   7.896  16.809  0.00  0.00    +0.000 C 
BRANCH  18  19
ATOM     19  C   UNL     1      48.940   7.353  15.715  0.00  0.00    +0.000 C 
BRANCH  19  20
ATOM     20  C   UNL     1      48.617   5.873  15.911  0.00  0.00    +0.000 C 
BRANCH  20  21
ATOM     21  N   UNL     1      47.632   5.437  14.922  0.00  0.00    +0.000 NA
ATOM     22  H   UNL     1      47.030   4.724  15.327  0.00  0.00    +0.000 HD
ATOM     23  H   UNL     1      48.119   4.999  14.142  0.00  0.00    +0.000 HD
ENDBRANCH  20  21
ENDBRANCH  19  20
ENDBRANCH  18  19
ENDBRANCH  15  18
ENDBRANCH  11  12
ENDBRANCH   8  11
ENDBRANCH   7   8
ENDBRANCH   1   7
BRANCH   4  24
ATOM     24  C   UNL     1      46.135   8.205  12.936  0.00  0.00    +0.000 C 
BRANCH  24  25
ATOM     25  N   UNL     1      45.701   6.855  12.638  0.00  0.00    +0.000 N 
ATOM     26  C   UNL     1      44.676   6.590  11.770  0.00  0.00    +0.000 C 
ATOM     27  O   UNL     1      44.050   7.488  11.212  0.00  0.00    +0.000 OA
ATOM     28  H   UNL     1      46.037   6.130  13.267  0.00  0.00    +0.000 HD
BRANCH  26  29
ATOM     29  C   UNL     1      44.411   5.176  11.472  0.00  0.00    +0.000 A 
ATOM     30  C   UNL     1      43.678   4.414  12.374  0.00  0.00    +0.000 A 
ATOM     31  S   UNL     1      43.414   2.809  11.865  0.00  0.00    +0.000 S 
ATOM     32  C   UNL     1      44.311   3.057  10.442  0.00  0.00    +0.000 A 
ATOM     33  N   UNL     1      44.503   2.044   9.552  0.00  0.00    +0.000 NA
ATOM     34  C   UNL     1      45.229   2.360   8.533  0.00  0.00    +0.000 A 
ATOM     35  N   UNL     1      45.771   3.600   8.316  0.00  0.00    +0.000 N 
ATOM     36  C   UNL     1      45.560   4.667   9.160  0.00  0.00    +0.000 A 
ATOM     37  O   UNL     1      45.989   5.783   8.892  0.00  0.00    +0.000 OA
ATOM     38  C   UNL     1      44.781   4.356  10.342  0.00  0.00    +0.000 A 
ATOM     39  H   UNL     1      46.314   3.791   7.488  0.00  0.00    +0.000 HD
ENDBRANCH  26  29
ENDBRANCH  24  25
ENDBRANCH   4  24
TORSDOF 12
ENDMDL
MODEL 8
REMARK VINA RESULT:    -5.995      3.048      4.747
REMARK INTER + INTRA:         -11.110
REMARK INTER:                  -9.093
REMARK INTRA:                  -2.017
REMARK UNBOUND:                -1.084
REMARK  Name = 
REMARK  13 active torsions:
REMARK  status: ('A' for Active; 'I' for Inactive)
REMARK    1  A    between atoms: C_1  and  C_2
REMARK    2  A    between atoms: C_2  and  N_3
REMARK    3  A    between atoms: N_3  and  C_4
REMARK    4  A    between atoms: N_3  and  C_25
REMARK    5  A    between atoms: C_4  and  C_5
REMARK    6  A    between atoms: C_8  and  C_9
REMARK    7  A    between atoms: C_9  and  N_10
REMARK    8  A    between atoms: C_11  and  C_13
REMARK    9  A    between atoms: C_25  and  C_26
REMARK   10  A    between atoms: N_29  and  C_30
REMARK   11  A    between atoms: C_30  and  C_31
REMARK   12  A    between atoms: C_31  and  C_32
REMARK   13  A    between atoms: C_32  and  N_33
REMARK                            x       y       z     vdW  Elec       q    Type
REMARK                         _______ _______ _______ _____ _____    ______ ____
ROOT
ATOM      1  C   UNL     1      49.653  10.274  14.871  0.00  0.00    +0.000 A 
ATOM      2  C   UNL     1      50.781   9.446  14.839  0.00  0.00    +0.000 A 
ATOM      3  C   UNL     1      51.123   8.701  15.962  0.00  0.00    +0.000 A 
ATOM      4  C   UNL     1      50.363   8.849  17.118  0.00  0.00    +0.000 A 
ATOM      5  N   UNL     1      49.321   9.711  17.204  0.00  0.00    +0.000 NA
ATOM      6  C   UNL     1      48.991  10.394  16.084  0.00  0.00    +0.000 A 
ENDROOT
BRANCH   1   7
ATOM      7  C   UNL     1      49.098  10.895  13.612  0.00  0.00    +0.000 C 
BRANCH   7   8
ATOM      8  N   UNL     1      49.169  10.040  12.402  0.00  0.00    +0.000 NA
BRANCH   8  10
ATOM      9  C   UNL     1      48.916  11.463  10.319  0.00  0.00    +0.000 C 
ATOM     10  C   UNL     1      49.827  10.667  11.244  0.00  0.00    +0.000 C 
ENDBRANCH   8  10
BRANCH   8  11
ATOM     11  C   UNL     1      47.825   9.544  12.030  0.00  0.00    +0.000 C 
BRANCH  11  12
ATOM     12  C   UNL     1      47.012   8.895  13.172  0.00  0.00    +0.000 C 
ATOM     13  C   UNL     1      47.434   7.437  13.370  0.00  0.00    +0.000 C 
ATOM     14  C   UNL     1      46.967   6.541  12.227  0.00  0.00    +0.000 C 
ATOM     15  N   UNL     1      45.516   6.642  12.015  0.00  0.00    +0.000 NA
ATOM     16  C   UNL     1      45.081   8.029  11.778  0.00  0.00    +0.000 C 
ATOM     17  C   UNL     1      45.503   8.953  12.921  0.00  0.00    +0.000 C 
BRANCH  15  18
ATOM     18  C   UNL     1      45.070   5.772  10.915  0.00  0.00    +0.000 C 
BRANCH  18  19
ATOM     19  C   UNL     1      44.130   4.642  11.359  0.00  0.00    +0.000 C 
BRANCH  19  20
ATOM     20  C   UNL     1      42.764   5.165  11.803  0.00  0.00    +0.000 C 
BRANCH  20  21
ATOM     21  N   UNL     1      42.805   5.549  13.213  0.00  0.00    +0.000 NA
ATOM     22  H   UNL     1      42.025   5.124  13.708  0.00  0.00    +0.000 HD
ATOM     23  H   UNL     1      42.681   6.558  13.284  0.00  0.00    +0.000 HD
ENDBRANCH  20  21
ENDBRANCH  19  20
ENDBRANCH  18  19
ENDBRANCH  15  18
ENDBRANCH  11  12
ENDBRANCH   8  11
ENDBRANCH   7   8
ENDBRANCH   1   7
BRANCH   4  24
ATOM     24  C   UNL     1      50.636   7.993  18.326  0.00  0.00    +0.000 C 
BRANCH  24  25
ATOM     25  N   UNL     1      50.638   6.579  18.006  0.00  0.00    +0.000 N 
ATOM     26  C   UNL     1      49.546   5.780  18.216  0.00  0.00    +0.000 C 
ATOM     27  O   UNL     1      48.508   6.215  18.709  0.00  0.00    +0.000 OA
ATOM     28  H   UNL     1      51.549   6.163  17.834  0.00  0.00    +0.000 HD
BRANCH  26  29
ATOM     29  C   UNL     1      49.644   4.391  17.746  0.00  0.00    +0.000 A 
ATOM     30  C   UNL     1      48.567   3.818  17.080  0.00  0.00    +0.000 A 
ATOM     31  S   UNL     1      48.852   2.222  16.556  0.00  0.00    +0.000 S 
ATOM     32  C   UNL     1      50.408   2.217  17.242  0.00  0.00    +0.000 A 
ATOM     33  N   UNL     1      51.198   1.111  17.173  0.00  0.00    +0.000 NA
ATOM     34  C   UNL     1      52.339   1.234  17.763  0.00  0.00    +0.000 A 
ATOM     35  N   UNL     1      52.768   2.367  18.404  0.00  0.00    +0.000 N 
ATOM     36  C   UNL     1      52.027   3.525  18.453  0.00  0.00    +0.000 A 
ATOM     37  O   UNL     1      52.475   4.546  18.961  0.00  0.00    +0.000 OA
ATOM     38  C   UNL     1      50.717   3.429  17.837  0.00  0.00    +0.000 A 
ATOM     39  H   UNL     1      53.682   2.408  18.829  0.00  0.00    +0.000 HD
ENDBRANCH  26  29
ENDBRANCH  24  25
ENDBRANCH   4  24
TORSDOF 12
ENDMDL
MODEL 9
REMARK VINA RESULT:    -5.622      2.418      3.836
REMARK INTER + INTRA:         -10.485
REMARK INTER:                  -8.962
REMARK INTRA:                  -1.524
REMARK UNBOUND:                -1.084
REMARK  Name = 
REMARK  13 active torsions:
REMARK  status: ('A' for Active; 'I' for Inactive)
REMARK    1  A    between atoms: C_1  and  C_2
REMARK    2  A    between atoms: C_2  and  N_3
REMARK    3  A    between atoms: N_3  and  C_4
REMARK    4  A    between atoms: N_3  and  C_25
REMARK    5  A    between atoms: C_4  and  C_5
REMARK    6  A    between atoms: C_8  and  C_9
REMARK    7  A    between atoms: C_9  and  N_10
REMARK    8  A    between atoms: C_11  and  C_13
REMARK    9  A    between atoms: C_25  and  C_26
REMARK   10  A    between atoms: N_29  and  C_30
REMARK   11  A    between atoms: C_30  and  C_31
REMARK   12  A    between atoms: C_31  and  C_32
REMARK   13  A    between atoms: C_32  and  N_33
REMARK                            x       y       z     vdW  Elec       q    Type
REMARK                         _______ _______ _______ _____ _____    ______ ____
ROOT
ATOM      1  C   UNL     1      49.038   8.835  16.330  0.00  0.00    +0.000 A 
ATOM      2  C   UNL     1      50.209   8.077  16.222  0.00  0.00    +0.000 A 
ATOM      3  C   UNL     1      50.388   6.963  17.033  0.00  0.00    +0.000 A 
ATOM      4  C   UNL     1      49.415   6.665  17.982  0.00  0.00    +0.000 A 
ATOM      5  N   UNL     1      48.315   7.433  18.168  0.00  0.00    +0.000 NA
ATOM      6  C   UNL     1      48.152   8.490  17.340  0.00  0.00    +0.000 A 
ENDROOT
BRANCH   1   7
ATOM      7  C   UNL     1      48.685   9.888  15.307  0.00  0.00    +0.000 C 
BRANCH   7   8
ATOM      8  N   UNL     1      48.621   9.408  13.904  0.00  0.00    +0.000 NA
BRANCH   8  10
ATOM      9  C   UNL     1      49.263  10.305  11.622  0.00  0.00    +0.000 C 
ATOM     10  C   UNL     1      48.449  10.469  12.898  0.00  0.00    +0.000 C 
ENDBRANCH   8  10
BRANCH   8  11
ATOM     11  C   UNL     1      47.575   8.372  13.751  0.00  0.00    +0.000 C 
BRANCH  11  12
ATOM     12  C   UNL     1      48.022   7.067  13.056  0.00  0.00    +0.000 C 
ATOM     13  C   UNL     1      47.547   7.045  11.600  0.00  0.00    +0.000 C 
ATOM     14  C   UNL     1      46.038   6.850  11.489  0.00  0.00    +0.000 C 
ATOM     15  N   UNL     1      45.591   5.646  12.205  0.00  0.00    +0.000 NA
ATOM     16  C   UNL     1      45.995   5.657  13.621  0.00  0.00    +0.000 C 
ATOM     17  C   UNL     1      47.509   5.817  13.773  0.00  0.00    +0.000 C 
BRANCH  15  18
ATOM     18  C   UNL     1      44.136   5.460  12.090  0.00  0.00    +0.000 C 
BRANCH  18  19
ATOM     19  C   UNL     1      43.723   4.449  11.012  0.00  0.00    +0.000 C 
BRANCH  19  20
ATOM     20  C   UNL     1      43.484   3.053  11.587  0.00  0.00    +0.000 C 
BRANCH  20  21
ATOM     21  N   UNL     1      44.658   2.609  12.336  0.00  0.00    +0.000 NA
ATOM     22  H   UNL     1      44.642   1.596  12.433  0.00  0.00    +0.000 HD
ATOM     23  H   UNL     1      44.614   2.993  13.278  0.00  0.00    +0.000 HD
ENDBRANCH  20  21
ENDBRANCH  19  20
ENDBRANCH  18  19
ENDBRANCH  15  18
ENDBRANCH  11  12
ENDBRANCH   8  11
ENDBRANCH   7   8
ENDBRANCH   1   7
BRANCH   4  24
ATOM     24  C   UNL     1      49.518   5.414  18.815  0.00  0.00    +0.000 C 
BRANCH  24  25
ATOM     25  N   UNL     1      50.836   4.817  18.745  0.00  0.00    +0.000 N 
ATOM     26  C   UNL     1      51.155   3.851  17.828  0.00  0.00    +0.000 C 
ATOM     27  O   UNL     1      50.330   3.421  17.026  0.00  0.00    +0.000 OA
ATOM     28  H   UNL     1      51.442   4.980  19.544  0.00  0.00    +0.000 HD
BRANCH  26  29
ATOM     29  C   UNL     1      52.556   3.410  17.793  0.00  0.00    +0.000 A 
ATOM     30  C   UNL     1      53.570   4.360  17.790  0.00  0.00    +0.000 A 
ATOM     31  S   UNL     1      55.138   3.692  17.797  0.00  0.00    +0.000 S 
ATOM     32  C   UNL     1      54.522   2.107  17.753  0.00  0.00    +0.000 A 
ATOM     33  N   UNL     1      55.357   1.034  17.713  0.00  0.00    +0.000 NA
ATOM     34  C   UNL     1      54.757  -0.107  17.649  0.00  0.00    +0.000 A 
ATOM     35  N   UNL     1      53.397  -0.272  17.635  0.00  0.00    +0.000 N 
ATOM     36  C   UNL     1      52.514   0.779  17.728  0.00  0.00    +0.000 A 
ATOM     37  O   UNL     1      51.305   0.590  17.798  0.00  0.00    +0.000 OA
ATOM     38  C   UNL     1      53.137   2.088  17.764  0.00  0.00    +0.000 A 
ATOM     39  H   UNL     1      52.987  -1.194  17.605  0.00  0.00    +0.000 HD
ENDBRANCH  26  29
ENDBRANCH  24  25
ENDBRANCH   4  24
TORSDOF 12
ENDMDL
