MODEL 1
REMARK VINA RESULT:    -7.851      0.000      0.000
REMARK INTER + INTRA:         -10.298
REMARK INTER:                  -9.916
REMARK INTRA:                  -0.382
REMARK UNBOUND:                -0.382
REMARK  Name = 
REMARK  5 active torsions:
REMARK  status: ('A' for Active; 'I' for Inactive)
REMARK    1  A    between atoms: N_1  and  C_2
REMARK    2  A    between atoms: C_2  and  C_3
REMARK    3  A    between atoms: C_6  and  C_7
REMARK    4  A    between atoms: C_7  and  N_8
REMARK    5  A    between atoms: C_12  and  C_13
REMARK                            x       y       z     vdW  Elec       q    Type
REMARK                         _______ _______ _______ _____ _____    ______ ____
ROOT
ATOM      1  N   UNL     1      43.788   4.794   9.642  0.00  0.00    +0.000 N 
ATOM      2  C   UNL     1      44.719   3.926   9.098  0.00  0.00    +0.000 A 
ATOM      3  C   UNL     1      44.861   2.582   9.463  0.00  0.00    +0.000 A 
ATOM      4  N   UNL     1      45.705   1.700   8.863  0.00  0.00    +0.000 NA
ATOM      5  C   UNL     1      46.415   2.225   7.829  0.00  0.00    +0.000 A 
ATOM      6  C   UNL     1      46.298   3.553   7.455  0.00  0.00    +0.000 A 
ATOM      7  N   UNL     1      45.459   4.424   8.085  0.00  0.00    +0.000 NA
ATOM      8  H   UNL     1      44.025   5.745   9.362  0.00  0.00    +0.000 HD
ENDROOT
BRANCH   5   9
ATOM      9  C   UNL     1      47.310   1.306   7.074  0.00  0.00    +0.000 C 
ATOM     10  N   UNL     1      48.386   1.879   6.449  0.00  0.00    +0.000 N 
ATOM     11  O   UNL     1      47.108   0.098   7.022  0.00  0.00    +0.000 OA
ATOM     12  H   UNL     1      48.556   2.875   6.526  0.00  0.00    +0.000 HD
ATOM     13  H   UNL     1      49.040   1.289   5.954  0.00  0.00    +0.000 HD
ENDBRANCH   5   9
BRANCH   1  14
ATOM     14  C   UNL     1      43.351   4.631  11.018  0.00  0.00    +0.000 C 
BRANCH  14  18
ATOM     15  C   UNL     1      46.518   5.444  13.682  0.00  0.00    +0.000 A 
ATOM     16  C   UNL     1      46.047   6.409  12.798  0.00  0.00    +0.000 A 
ATOM     17  N   UNL     1      45.019   6.191  11.939  0.00  0.00    +0.000 NA
ATOM     18  C   UNL     1      44.456   4.957  11.995  0.00  0.00    +0.000 A 
ATOM     19  C   UNL     1      44.918   3.995  12.889  0.00  0.00    +0.000 A 
ATOM     20  N   UNL     1      45.950   4.212  13.742  0.00  0.00    +0.000 NA
BRANCH  15  21
ATOM     21  C   UNL     1      47.700   5.727  14.575  0.00  0.00    +0.000 C 
BRANCH  21  22
ATOM     22  N   UNL     1      47.711   4.913  15.793  0.00  0.00    +0.000 NA
ATOM     23  H   UNL     1      47.780   5.535  16.598  0.00  0.00    +0.000 HD
ATOM     24  H   UNL     1      48.571   4.361  15.800  0.00  0.00    +0.000 HD
ENDBRANCH  21  22
ENDBRANCH  15  21
ENDBRANCH  14  18
ENDBRANCH   1  14
TORSDOF 5
ENDMDL
MODEL 2
REMARK VINA RESULT:    -7.606      2.709      6.626
REMARK INTER + INTRA:          -9.989
REMARK INTER:                  -9.558
REMARK INTRA:                  -0.431
REMARK UNBOUND:                -0.382
REMARK  Name = 
REMARK  5 active torsions:
REMARK  status: ('A' for Active; 'I' for Inactive)
REMARK    1  A    between atoms: N_1  and  C_2
REMARK    2  A    between atoms: C_2  and  C_3
REMARK    3  A    between atoms: C_6  and  C_7
REMARK    4  A    between atoms: C_7  and  N_8
REMARK    5  A    between atoms: C_12  and  C_13
REMARK                            x       y       z     vdW  Elec       q    Type
REMARK                         _______ _______ _______ _____ _____    ______ ____
ROOT
ATOM      1  N   UNL     1      44.477   2.806  11.838  0.00  0.00    +0.000 N 
ATOM      2  C   UNL     1      45.368   3.677  12.440  0.00  0.00    +0.000 A 
ATOM      3  C   UNL     1      45.285   5.072  12.373  0.00  0.00    +0.000 A 
ATOM      4  N   UNL     1      46.099   5.931  13.043  0.00  0.00    +0.000 NA
ATOM      5  C   UNL     1      47.024   5.321  13.832  0.00  0.00    +0.000 A 
ATOM      6  C   UNL     1      47.132   3.942  13.906  0.00  0.00    +0.000 A 
ATOM      7  N   UNL     1      46.317   3.101  13.210  0.00  0.00    +0.000 NA
ATOM      8  H   UNL     1      44.869   1.866  11.863  0.00  0.00    +0.000 HD
ENDROOT
BRANCH   5   9
ATOM      9  C   UNL     1      47.909   6.191  14.653  0.00  0.00    +0.000 C 
ATOM     10  N   UNL     1      47.780   7.542  14.466  0.00  0.00    +0.000 N 
ATOM     11  O   UNL     1      48.703   5.730  15.465  0.00  0.00    +0.000 OA
ATOM     12  H   UNL     1      47.098   7.909  13.813  0.00  0.00    +0.000 HD
ATOM     13  H   UNL     1      48.335   8.173  15.027  0.00  0.00    +0.000 HD
ENDBRANCH   5   9
BRANCH   1  14
ATOM     14  C   UNL     1      43.809   3.179  10.603  0.00  0.00    +0.000 C 
BRANCH  14  18
ATOM     15  C   UNL     1      46.476   2.914   7.347  0.00  0.00    +0.000 A 
ATOM     16  C   UNL     1      46.127   1.793   8.093  0.00  0.00    +0.000 A 
ATOM     17  N   UNL     1      45.260   1.835   9.135  0.00  0.00    +0.000 NA
ATOM     18  C   UNL     1      44.730   3.055   9.413  0.00  0.00    +0.000 A 
ATOM     19  C   UNL     1      45.068   4.174   8.658  0.00  0.00    +0.000 A 
ATOM     20  N   UNL     1      45.940   4.132   7.620  0.00  0.00    +0.000 NA
BRANCH  15  21
ATOM     21  C   UNL     1      47.488   2.815   6.233  0.00  0.00    +0.000 C 
BRANCH  21  22
ATOM     22  N   UNL     1      48.447   1.723   6.420  0.00  0.00    +0.000 NA
ATOM     23  H   UNL     1      48.796   1.759   7.377  0.00  0.00    +0.000 HD
ATOM     24  H   UNL     1      49.257   1.906   5.826  0.00  0.00    +0.000 HD
ENDBRANCH  21  22
ENDBRANCH  15  21
ENDBRANCH  14  18
ENDBRANCH   1  14
TORSDOF 5
ENDMDL
MODEL 3
REMARK VINA RESULT:    -7.125      2.281      6.486
REMARK INTER + INTRA:          -9.381
REMARK INTER:                  -9.369
REMARK INTRA:                  -0.012
REMARK UNBOUND:                -0.382
REMARK  Name = 
REMARK  5 active torsions:
REMARK  status: ('A' for Active; 'I' for Inactive)
REMARK    1  A    between atoms: N_1  and  C_2
REMARK    2  A    between atoms: C_2  and  C_3
REMARK    3  A    between atoms: C_6  and  C_7
REMARK    4  A    between atoms: C_7  and  N_8
REMARK    5  A    between atoms: C_12  and  C_13
REMARK                            x       y       z     vdW  Elec       q    Type
REMARK                         _______ _______ _______ _____ _____    ______ ____
ROOT
ATOM      1  N   UNL     1      44.750   5.383  10.706  0.00  0.00    +0.000 N 
ATOM      2  C   UNL     1      45.312   4.972  11.902  0.00  0.00    +0.000 A 
ATOM      3  C   UNL     1      45.816   3.689  12.145  0.00  0.00    +0.000 A 
ATOM      4  N   UNL     1      46.458   3.310  13.283  0.00  0.00    +0.000 NA
ATOM      5  C   UNL     1      46.603   4.306  14.198  0.00  0.00    +0.000 A 
ATOM      6  C   UNL     1      46.104   5.580  13.985  0.00  0.00    +0.000 A 
ATOM      7  N   UNL     1      45.446   5.931  12.843  0.00  0.00    +0.000 NA
ATOM      8  H   UNL     1      44.283   6.276  10.853  0.00  0.00    +0.000 HD
ENDROOT
BRANCH   5   9
ATOM      9  C   UNL     1      47.356   3.991  15.442  0.00  0.00    +0.000 C 
ATOM     10  N   UNL     1      47.199   4.862  16.488  0.00  0.00    +0.000 N 
ATOM     11  O   UNL     1      48.070   2.998  15.537  0.00  0.00    +0.000 OA
ATOM     12  H   UNL     1      46.583   5.661  16.404  0.00  0.00    +0.000 HD
ATOM     13  H   UNL     1      47.665   4.669  17.364  0.00  0.00    +0.000 HD
ENDBRANCH   5   9
BRANCH   1  14
ATOM     14  C   UNL     1      44.044   4.432   9.863  0.00  0.00    +0.000 C 
BRANCH  14  18
ATOM     15  C   UNL     1      46.589   2.185   7.362  0.00  0.00    +0.000 A 
ATOM     16  C   UNL     1      46.463   3.563   7.220  0.00  0.00    +0.000 A 
ATOM     17  N   UNL     1      45.669   4.322   8.016  0.00  0.00    +0.000 NA
ATOM     18  C   UNL     1      44.995   3.652   8.987  0.00  0.00    +0.000 A 
ATOM     19  C   UNL     1      45.132   2.275   9.139  0.00  0.00    +0.000 A 
ATOM     20  N   UNL     1      45.921   1.517   8.338  0.00  0.00    +0.000 NA
BRANCH  15  21
ATOM     21  C   UNL     1      47.447   1.387   6.412  0.00  0.00    +0.000 C 
BRANCH  21  22
ATOM     22  N   UNL     1      48.542   2.166   5.829  0.00  0.00    +0.000 NA
ATOM     23  H   UNL     1      48.163   3.044   5.476  0.00  0.00    +0.000 HD
ATOM     24  H   UNL     1      48.886   1.666   5.008  0.00  0.00    +0.000 HD
ENDBRANCH  21  22
ENDBRANCH  15  21
ENDBRANCH  14  18
ENDBRANCH   1  14
TORSDOF 5
ENDMDL
MODEL 4
REMARK VINA RESULT:    -7.114      1.763      2.515
REMARK INTER + INTRA:          -9.368
REMARK INTER:                  -9.200
REMARK INTRA:                  -0.168
REMARK UNBOUND:                -0.382
REMARK  Name = 
REMARK  5 active torsions:
REMARK  status: ('A' for Active; 'I' for Inactive)
REMARK    1  A    between atoms: N_1  and  C_2
REMARK    2  A    between atoms: C_2  and  C_3
REMARK    3  A    between atoms: C_6  and  C_7
REMARK    4  A    between atoms: C_7  and  N_8
REMARK    5  A    between atoms: C_12  and  C_13
REMARK                            x       y       z     vdW  Elec       q    Type
REMARK                         _______ _______ _______ _____ _____    ______ ____
ROOT
ATOM      1  N   UNL     1      44.456   2.649  10.789  0.00  0.00    +0.000 N 
ATOM      2  C   UNL     1      45.078   2.702   9.555  0.00  0.00    +0.000 A 
ATOM      3  C   UNL     1      45.279   3.873   8.814  0.00  0.00    +0.000 A 
ATOM      4  N   UNL     1      45.977   3.945   7.650  0.00  0.00    +0.000 NA
ATOM      5  C   UNL     1      46.507   2.760   7.245  0.00  0.00    +0.000 A 
ATOM      6  C   UNL     1      46.314   1.586   7.955  0.00  0.00    +0.000 A 
ATOM      7  N   UNL     1      45.594   1.536   9.111  0.00  0.00    +0.000 NA
ATOM      8  H   UNL     1      44.254   1.676  11.014  0.00  0.00    +0.000 HD
ENDROOT
BRANCH   5   9
ATOM      9  C   UNL     1      47.345   2.766   6.015  0.00  0.00    +0.000 C 
ATOM     10  N   UNL     1      48.683   2.531   6.187  0.00  0.00    +0.000 N 
ATOM     11  O   UNL     1      46.866   2.958   4.902  0.00  0.00    +0.000 OA
ATOM     12  H   UNL     1      49.060   2.345   7.108  0.00  0.00    +0.000 HD
ATOM     13  H   UNL     1      49.285   2.492   5.376  0.00  0.00    +0.000 HD
ENDBRANCH   5   9
BRANCH   1  14
ATOM     14  C   UNL     1      43.411   3.603  11.125  0.00  0.00    +0.000 C 
BRANCH  14  18
ATOM     15  C   UNL     1      45.146   7.171  12.554  0.00  0.00    +0.000 A 
ATOM     16  C   UNL     1      44.206   7.180  11.528  0.00  0.00    +0.000 A 
ATOM     17  N   UNL     1      43.613   6.056  11.054  0.00  0.00    +0.000 NA
ATOM     18  C   UNL     1      43.987   4.895  11.652  0.00  0.00    +0.000 A 
ATOM     19  C   UNL     1      44.916   4.887  12.688  0.00  0.00    +0.000 A 
ATOM     20  N   UNL     1      45.513   6.011  13.157  0.00  0.00    +0.000 NA
BRANCH  15  21
ATOM     21  C   UNL     1      45.811   8.448  13.002  0.00  0.00    +0.000 C 
BRANCH  21  22
ATOM     22  N   UNL     1      44.951   9.626  12.864  0.00  0.00    +0.000 NA
ATOM     23  H   UNL     1      44.022   9.392  13.212  0.00  0.00    +0.000 HD
ATOM     24  H   UNL     1      44.831   9.817  11.868  0.00  0.00    +0.000 HD
ENDBRANCH  21  22
ENDBRANCH  15  21
ENDBRANCH  14  18
ENDBRANCH   1  14
TORSDOF 5
ENDMDL
MODEL 5
REMARK VINA RESULT:    -6.877      2.897      6.784
REMARK INTER + INTRA:          -9.068
REMARK INTER:                  -8.768
REMARK INTRA:                  -0.300
REMARK UNBOUND:                -0.382
REMARK  Name = 
REMARK  5 active torsions:
REMARK  status: ('A' for Active; 'I' for Inactive)
REMARK    1  A    between atoms: N_1  and  C_2
REMARK    2  A    between atoms: C_2  and  C_3
REMARK    3  A    between atoms: C_6  and  C_7
REMARK    4  A    between atoms: C_7  and  N_8
REMARK    5  A    between atoms: C_12  and  C_13
REMARK                            x       y       z     vdW  Elec       q    Type
REMARK                         _______ _______ _______ _____ _____    ______ ____
ROOT
ATOM      1  N   UNL     1      44.272   5.799  10.472  0.00  0.00    +0.000 N 
ATOM      2  C   UNL     1      45.116   6.259  11.469  0.00  0.00    +0.000 A 
ATOM      3  C   UNL     1      46.148   5.510  12.045  0.00  0.00    +0.000 A 
ATOM      4  N   UNL     1      47.042   5.989  12.952  0.00  0.00    +0.000 NA
ATOM      5  C   UNL     1      46.873   7.303  13.258  0.00  0.00    +0.000 A 
ATOM      6  C   UNL     1      45.853   8.062  12.709  0.00  0.00    +0.000 A 
ATOM      7  N   UNL     1      44.957   7.554  11.816  0.00  0.00    +0.000 NA
ATOM      8  H   UNL     1      43.493   6.449  10.377  0.00  0.00    +0.000 HD
ENDROOT
BRANCH   5   9
ATOM      9  C   UNL     1      47.854   7.923  14.191  0.00  0.00    +0.000 C 
ATOM     10  N   UNL     1      47.474   9.097  14.785  0.00  0.00    +0.000 N 
ATOM     11  O   UNL     1      48.940   7.406  14.429  0.00  0.00    +0.000 OA
ATOM     12  H   UNL     1      46.561   9.495  14.601  0.00  0.00    +0.000 HD
ATOM     13  H   UNL     1      48.094   9.535  15.452  0.00  0.00    +0.000 HD
ENDBRANCH   5   9
BRANCH   1  14
ATOM     14  C   UNL     1      43.930   4.389  10.395  0.00  0.00    +0.000 C 
BRANCH  14  18
ATOM     15  C   UNL     1      46.405   2.438   7.593  0.00  0.00    +0.000 A 
ATOM     16  C   UNL     1      45.724   1.729   8.577  0.00  0.00    +0.000 A 
ATOM     17  N   UNL     1      44.905   2.319   9.484  0.00  0.00    +0.000 NA
ATOM     18  C   UNL     1      44.776   3.666   9.374  0.00  0.00    +0.000 A 
ATOM     19  C   UNL     1      45.446   4.374   8.380  0.00  0.00    +0.000 A 
ATOM     20  N   UNL     1      46.269   3.785   7.478  0.00  0.00    +0.000 NA
BRANCH  15  21
ATOM     21  C   UNL     1      47.344   1.734   6.646  0.00  0.00    +0.000 C 
BRANCH  21  22
ATOM     22  N   UNL     1      48.558   2.504   6.357  0.00  0.00    +0.000 NA
ATOM     23  H   UNL     1      48.669   2.565   5.345  0.00  0.00    +0.000 HD
ATOM     24  H   UNL     1      49.361   1.967   6.688  0.00  0.00    +0.000 HD
ENDBRANCH  21  22
ENDBRANCH  15  21
ENDBRANCH  14  18
ENDBRANCH   1  14
TORSDOF 5
ENDMDL
MODEL 6
REMARK VINA RESULT:    -6.375      1.860      2.468
REMARK INTER + INTRA:          -8.433
REMARK INTER:                  -8.165
REMARK INTRA:                  -0.269
REMARK UNBOUND:                -0.382
REMARK  Name = 
REMARK  5 active torsions:
REMARK  status: ('A' for Active; 'I' for Inactive)
REMARK    1  A    between atoms: N_1  and  C_2
REMARK    2  A    between atoms: C_2  and  C_3
REMARK    3  A    between atoms: C_6  and  C_7
REMARK    4  A    between atoms: C_7  and  N_8
REMARK    5  A    between atoms: C_12  and  C_13
REMARK                            x       y       z     vdW  Elec       q    Type
REMARK                         _______ _______ _______ _____ _____    ______ ____
ROOT
ATOM      1  N   UNL     1      44.236   4.318  10.949  0.00  0.00    +0.000 N 
ATOM      2  C   UNL     1      44.830   3.895   9.773  0.00  0.00    +0.000 A 
ATOM      3  C   UNL     1      45.613   4.704   8.941  0.00  0.00    +0.000 A 
ATOM      4  N   UNL     1      46.280   4.269   7.839  0.00  0.00    +0.000 NA
ATOM      5  C   UNL     1      46.148   2.937   7.599  0.00  0.00    +0.000 A 
ATOM      6  C   UNL     1      45.371   2.118   8.401  0.00  0.00    +0.000 A 
ATOM      7  N   UNL     1      44.696   2.582   9.491  0.00  0.00    +0.000 NA
ATOM      8  H   UNL     1      43.565   3.613  11.249  0.00  0.00    +0.000 HD
ENDROOT
BRANCH   5   9
ATOM      9  C   UNL     1      46.904   2.368   6.450  0.00  0.00    +0.000 C 
ATOM     10  N   UNL     1      47.072   3.186   5.364  0.00  0.00    +0.000 N 
ATOM     11  O   UNL     1      47.366   1.232   6.474  0.00  0.00    +0.000 OA
ATOM     12  H   UNL     1      46.710   4.132   5.372  0.00  0.00    +0.000 HD
ATOM     13  H   UNL     1      47.608   2.854   4.575  0.00  0.00    +0.000 HD
ENDBRANCH   5   9
BRANCH   1  14
ATOM     14  C   UNL     1      43.809   5.699  11.099  0.00  0.00    +0.000 C 
BRANCH  14  18
ATOM     15  C   UNL     1      46.663   8.097  13.071  0.00  0.00    +0.000 A 
ATOM     16  C   UNL     1      46.701   6.708  13.153  0.00  0.00    +0.000 A 
ATOM     17  N   UNL     1      45.811   5.904  12.518  0.00  0.00    +0.000 NA
ATOM     18  C   UNL     1      44.867   6.538  11.776  0.00  0.00    +0.000 A 
ATOM     19  C   UNL     1      44.838   7.926  11.683  0.00  0.00    +0.000 A 
ATOM     20  N   UNL     1      45.724   8.730  12.322  0.00  0.00    +0.000 NA
BRANCH  15  21
ATOM     21  C   UNL     1      47.647   8.941  13.843  0.00  0.00    +0.000 C 
BRANCH  21  22
ATOM     22  N   UNL     1      47.286   9.103  15.254  0.00  0.00    +0.000 NA
ATOM     23  H   UNL     1      46.730   8.297  15.541  0.00  0.00    +0.000 HD
ATOM     24  H   UNL     1      46.663   9.907  15.333  0.00  0.00    +0.000 HD
ENDBRANCH  21  22
ENDBRANCH  15  21
ENDBRANCH  14  18
ENDBRANCH   1  14
TORSDOF 5
ENDMDL
MODEL 7
REMARK VINA RESULT:    -5.932      4.184      6.731
REMARK INTER + INTRA:          -7.874
REMARK INTER:                  -7.589
REMARK INTRA:                  -0.285
REMARK UNBOUND:                -0.382
REMARK  Name = 
REMARK  5 active torsions:
REMARK  status: ('A' for Active; 'I' for Inactive)
REMARK    1  A    between atoms: N_1  and  C_2
REMARK    2  A    between atoms: C_2  and  C_3
REMARK    3  A    between atoms: C_6  and  C_7
REMARK    4  A    between atoms: C_7  and  N_8
REMARK    5  A    between atoms: C_12  and  C_13
REMARK                            x       y       z     vdW  Elec       q    Type
REMARK                         _______ _______ _______ _____ _____    ______ ____
ROOT
ATOM      1  N   UNL     1      47.179   3.648  15.446  0.00  0.00    +0.000 N 
ATOM      2  C   UNL     1      46.677   4.436  14.425  0.00  0.00    +0.000 A 
ATOM      3  C   UNL     1      47.239   5.646  14.004  0.00  0.00    +0.000 A 
ATOM      4  N   UNL     1      46.809   6.372  12.937  0.00  0.00    +0.000 NA
ATOM      5  C   UNL     1      45.768   5.812  12.266  0.00  0.00    +0.000 A 
ATOM      6  C   UNL     1      45.188   4.621  12.669  0.00  0.00    +0.000 A 
ATOM      7  N   UNL     1      45.625   3.920  13.754  0.00  0.00    +0.000 NA
ATOM      8  H   UNL     1      46.484   2.943  15.689  0.00  0.00    +0.000 HD
ENDROOT
BRANCH   5   9
ATOM      9  C   UNL     1      45.282   6.510  11.045  0.00  0.00    +0.000 C 
ATOM     10  N   UNL     1      45.305   5.789   9.880  0.00  0.00    +0.000 N 
ATOM     11  O   UNL     1      44.869   7.664  11.075  0.00  0.00    +0.000 OA
ATOM     12  H   UNL     1      45.621   4.827   9.876  0.00  0.00    +0.000 HD
ATOM     13  H   UNL     1      44.953   6.211   9.032  0.00  0.00    +0.000 HD
ENDBRANCH   5   9
BRANCH   1  14
ATOM     14  C   UNL     1      47.876   4.258  16.566  0.00  0.00    +0.000 C 
BRANCH  14  18
ATOM     15  C   UNL     1      51.392   2.095  17.430  0.00  0.00    +0.000 A 
ATOM     16  C   UNL     1      51.304   3.463  17.667  0.00  0.00    +0.000 A 
ATOM     17  N   UNL     1      50.185   4.189  17.419  0.00  0.00    +0.000 NA
ATOM     18  C   UNL     1      49.129   3.494  16.924  0.00  0.00    +0.000 A 
ATOM     19  C   UNL     1      49.211   2.123  16.700  0.00  0.00    +0.000 A 
ATOM     20  N   UNL     1      50.333   1.399  16.942  0.00  0.00    +0.000 NA
BRANCH  15  21
ATOM     21  C   UNL     1      52.681   1.351  17.674  0.00  0.00    +0.000 C 
BRANCH  21  22
ATOM     22  N   UNL     1      52.475  -0.006  18.188  0.00  0.00    +0.000 NA
ATOM     23  H   UNL     1      51.885  -0.515  17.531  0.00  0.00    +0.000 HD
ATOM     24  H   UNL     1      51.932   0.059  19.050  0.00  0.00    +0.000 HD
ENDBRANCH  21  22
ENDBRANCH  15  21
ENDBRANCH  14  18
ENDBRANCH   1  14
TORSDOF 5
ENDMDL
MODEL 8
REMARK VINA RESULT:    -5.895      3.516      7.698
REMARK INTER + INTRA:          -7.828
REMARK INTER:                  -7.533
REMARK INTRA:                  -0.295
REMARK UNBOUND:                -0.382
REMARK  Name = 
REMARK  5 active torsions:
REMARK  status: ('A' for Active; 'I' for Inactive)
REMARK    1  A    between atoms: N_1  and  C_2
REMARK    2  A    between atoms: C_2  and  C_3
REMARK    3  A    between atoms: C_6  and  C_7
REMARK    4  A    between atoms: C_7  and  N_8
REMARK    5  A    between atoms: C_12  and  C_13
REMARK                            x       y       z     vdW  Elec       q    Type
REMARK                         _______ _______ _______ _____ _____    ______ ____
ROOT
ATOM      1  N   UNL     1      46.029   4.684  14.393  0.00  0.00    +0.000 N 
ATOM      2  C   UNL     1      47.115   4.491  15.229  0.00  0.00    +0.000 A 
ATOM      3  C   UNL     1      47.989   5.503  15.645  0.00  0.00    +0.000 A 
ATOM      4  N   UNL     1      48.996   5.338  16.543  0.00  0.00    +0.000 NA
ATOM      5  C   UNL     1      49.090   4.079  17.048  0.00  0.00    +0.000 A 
ATOM      6  C   UNL     1      48.244   3.059  16.645  0.00  0.00    +0.000 A 
ATOM      7  N   UNL     1      47.253   3.245  15.728  0.00  0.00    +0.000 NA
ATOM      8  H   UNL     1      45.688   3.776  14.084  0.00  0.00    +0.000 HD
ENDROOT
BRANCH   5   9
ATOM      9  C   UNL     1      50.124   3.833  18.091  0.00  0.00    +0.000 C 
ATOM     10  N   UNL     1      49.743   4.044  19.389  0.00  0.00    +0.000 N 
ATOM     11  O   UNL     1      51.253   3.447  17.809  0.00  0.00    +0.000 OA
ATOM     12  H   UNL     1      48.797   4.333  19.609  0.00  0.00    +0.000 HD
ATOM     13  H   UNL     1      50.401   3.856  20.133  0.00  0.00    +0.000 HD
ENDBRANCH   5   9
BRANCH   1  14
ATOM     14  C   UNL     1      46.060   5.725  13.379  0.00  0.00    +0.000 C 
BRANCH  14  18
ATOM     15  C   UNL     1      45.163   4.220   9.544  0.00  0.00    +0.000 A 
ATOM     16  C   UNL     1      44.893   3.485  10.694  0.00  0.00    +0.000 A 
ATOM     17  N   UNL     1      45.151   3.942  11.945  0.00  0.00    +0.000 NA
ATOM     18  C   UNL     1      45.690   5.187  12.018  0.00  0.00    +0.000 A 
ATOM     19  C   UNL     1      45.946   5.928  10.869  0.00  0.00    +0.000 A 
ATOM     20  N   UNL     1      45.694   5.468   9.618  0.00  0.00    +0.000 NA
BRANCH  15  21
ATOM     21  C   UNL     1      44.904   3.637   8.177  0.00  0.00    +0.000 C 
BRANCH  21  22
ATOM     22  N   UNL     1      46.001   3.869   7.233  0.00  0.00    +0.000 NA
ATOM     23  H   UNL     1      46.323   2.967   6.883  0.00  0.00    +0.000 HD
ATOM     24  H   UNL     1      46.789   4.259   7.751  0.00  0.00    +0.000 HD
ENDBRANCH  21  22
ENDBRANCH  15  21
ENDBRANCH  14  18
ENDBRANCH   1  14
TORSDOF 5
ENDMDL
MODEL 9
REMARK VINA RESULT:    -5.747      3.110      6.794
REMARK INTER + INTRA:          -7.640
REMARK INTER:                  -7.512
REMARK INTRA:                  -0.128
REMARK UNBOUND:                -0.382
REMARK  Name = 
REMARK  5 active torsions:
REMARK  status: ('A' for Active; 'I' for Inactive)
REMARK    1  A    between atoms: N_1  and  C_2
REMARK    2  A    between atoms: C_2  and  C_3
REMARK    3  A    between atoms: C_6  and  C_7
REMARK    4  A    between atoms: C_7  and  N_8
REMARK    5  A    between atoms: C_12  and  C_13
REMARK                            x       y       z     vdW  Elec       q    Type
REMARK                         _______ _______ _______ _____ _____    ______ ____
ROOT
ATOM      1  N   UNL     1      43.608   4.463  10.161  0.00  0.00    +0.000 N 
ATOM      2  C   UNL     1      44.195   5.442  10.944  0.00  0.00    +0.000 A 
ATOM      3  C   UNL     1      45.548   5.469  11.301  0.00  0.00    +0.000 A 
ATOM      4  N   UNL     1      46.150   6.479  11.986  0.00  0.00    +0.000 NA
ATOM      5  C   UNL     1      45.321   7.512  12.294  0.00  0.00    +0.000 A 
ATOM      6  C   UNL     1      43.977   7.504  11.960  0.00  0.00    +0.000 A 
ATOM      7  N   UNL     1      43.393   6.471  11.290  0.00  0.00    +0.000 NA
ATOM      8  H   UNL     1      42.596   4.559  10.220  0.00  0.00    +0.000 HD
ENDROOT
BRANCH   5   9
ATOM      9  C   UNL     1      45.918   8.689  12.982  0.00  0.00    +0.000 C 
ATOM     10  N   UNL     1      45.310   9.897  12.765  0.00  0.00    +0.000 N 
ATOM     11  O   UNL     1      46.895   8.587  13.718  0.00  0.00    +0.000 OA
ATOM     12  H   UNL     1      44.486   9.961  12.179  0.00  0.00    +0.000 HD
ATOM     13  H   UNL     1      45.660  10.718  13.239  0.00  0.00    +0.000 HD
ENDBRANCH   5   9
BRANCH   1  14
ATOM     14  C   UNL     1      44.116   3.101  10.187  0.00  0.00    +0.000 C 
BRANCH  14  18
ATOM     15  C   UNL     1      46.708   2.301   6.959  0.00  0.00    +0.000 A 
ATOM     16  C   UNL     1      46.226   3.583   7.202  0.00  0.00    +0.000 A 
ATOM     17  N   UNL     1      45.405   3.883   8.240  0.00  0.00    +0.000 NA
ATOM     18  C   UNL     1      45.079   2.844   9.053  0.00  0.00    +0.000 A 
ATOM     19  C   UNL     1      45.572   1.564   8.818  0.00  0.00    +0.000 A 
ATOM     20  N   UNL     1      46.387   1.265   7.776  0.00  0.00    +0.000 NA
BRANCH  15  21
ATOM     21  C   UNL     1      47.574   2.018   5.757  0.00  0.00    +0.000 C 
BRANCH  21  22
ATOM     22  N   UNL     1      48.970   2.423   5.943  0.00  0.00    +0.000 NA
ATOM     23  H   UNL     1      49.555   1.862   5.324  0.00  0.00    +0.000 HD
ATOM     24  H   UNL     1      49.252   2.167   6.890  0.00  0.00    +0.000 HD
ENDBRANCH  21  22
ENDBRANCH  15  21
ENDBRANCH  14  18
ENDBRANCH   1  14
TORSDOF 5
ENDMDL
