MODEL 1
REMARK VINA RESULT:    -8.424      0.000      0.000
REMARK INTER + INTRA:         -12.030
REMARK INTER:                 -10.886
REMARK INTRA:                  -1.144
REMARK UNBOUND:                -1.144
REMARK  Name = 
REMARK  5 active torsions:
REMARK  status: ('A' for Active; 'I' for Inactive)
REMARK    1  A    between atoms: C_2  and  C_4
REMARK    2  A    between atoms: C_7  and  N_8
REMARK    3  A    between atoms: N_8  and  C_9
REMARK    4  A    between atoms: C_9  and  C_10
REMARK    5  A    between atoms: C_14  and  C_15
REMARK                            x       y       z     vdW  Elec       q    Type
REMARK                         _______ _______ _______ _____ _____    ______ ____
ROOT
ATOM      1  C   UNL     1      43.826   4.987  11.421  0.00  0.00    +0.000 C 
ATOM      2  C   UNL     1      42.497   5.251  12.115  0.00  0.00    +0.000 C 
ATOM      3  C   UNL     1      42.958   6.168  11.029  0.00  0.00    +0.000 C 
ENDROOT
BRANCH   1   4
ATOM      4  C   UNL     1      45.110   5.222  12.209  0.00  0.00    +0.000 A 
ATOM      5  C   UNL     1      45.598   4.241  13.088  0.00  0.00    +0.000 A 
ATOM      6  C   UNL     1      46.845   4.366  13.693  0.00  0.00    +0.000 A 
ATOM      7  C   UNL     1      47.635   5.485  13.433  0.00  0.00    +0.000 A 
ATOM      8  C   UNL     1      47.197   6.502  12.570  0.00  0.00    +0.000 A 
ATOM      9  C   UNL     1      45.919   6.359  11.996  0.00  0.00    +0.000 A 
BRANCH   8  10
ATOM     10  C   UNL     1      48.078   7.632  12.211  0.00  0.00    +0.000 A 
ATOM     11  C   UNL     1      49.426   7.411  11.887  0.00  0.00    +0.000 A 
ATOM     12  C   UNL     1      50.230   8.480  11.521  0.00  0.00    +0.000 A 
ATOM     13  N   UNL     1      49.790   9.753  11.447  0.00  0.00    +0.000 NA
ATOM     14  C   UNL     1      48.494   9.957  11.752  0.00  0.00    +0.000 A 
ATOM     15  C   UNL     1      47.616   8.952  12.136  0.00  0.00    +0.000 A 
ENDBRANCH   8  10
ENDBRANCH   1   4
BRANCH   1  16
ATOM     16  N   UNL     1      43.860   3.756  10.609  0.00  0.00    +0.000 N 
ATOM     17  H   UNL     1      43.631   2.914  11.133  0.00  0.00    +0.000 HD
BRANCH  16  21
ATOM     18  C   UNL     1      46.499   2.726   7.557  0.00  0.00    +0.000 A 
ATOM     19  C   UNL     1      46.220   4.074   7.729  0.00  0.00    +0.000 A 
ATOM     20  C   UNL     1      45.355   4.450   8.760  0.00  0.00    +0.000 A 
ATOM     21  C   UNL     1      44.820   3.486   9.613  0.00  0.00    +0.000 A 
ATOM     22  C   UNL     1      45.167   2.156   9.340  0.00  0.00    +0.000 A 
ATOM     23  N   UNL     1      45.990   1.742   8.346  0.00  0.00    +0.000 NA
BRANCH  18  25
ATOM     24  N   UNL     1      47.193   2.960   5.245  0.00  0.00    +0.000 N 
ATOM     25  C   UNL     1      47.373   2.285   6.424  0.00  0.00    +0.000 C 
ATOM     26  O   UNL     1      48.206   1.396   6.536  0.00  0.00    +0.000 OA
ATOM     27  H   UNL     1      47.778   2.744   4.453  0.00  0.00    +0.000 HD
ATOM     28  H   UNL     1      46.519   3.717   5.203  0.00  0.00    +0.000 HD
ENDBRANCH  18  25
ENDBRANCH  16  21
ENDBRANCH   1  16
TORSDOF 5
ENDMDL
MODEL 2
REMARK VINA RESULT:    -8.419      2.210      3.466
REMARK INTER + INTRA:         -12.023
REMARK INTER:                 -11.548
REMARK INTRA:                  -0.476
REMARK UNBOUND:                -1.144
REMARK  Name = 
REMARK  5 active torsions:
REMARK  status: ('A' for Active; 'I' for Inactive)
REMARK    1  A    between atoms: C_2  and  C_4
REMARK    2  A    between atoms: C_7  and  N_8
REMARK    3  A    between atoms: N_8  and  C_9
REMARK    4  A    between atoms: C_9  and  C_10
REMARK    5  A    between atoms: C_14  and  C_15
REMARK                            x       y       z     vdW  Elec       q    Type
REMARK                         _______ _______ _______ _____ _____    ______ ____
ROOT
ATOM      1  C   UNL     1      43.884   5.149  11.386  0.00  0.00    +0.000 C 
ATOM      2  C   UNL     1      43.057   4.229  12.274  0.00  0.00    +0.000 C 
ATOM      3  C   UNL     1      42.656   5.659  12.117  0.00  0.00    +0.000 C 
ENDROOT
BRANCH   1   4
ATOM      4  C   UNL     1      45.273   5.556  11.866  0.00  0.00    +0.000 A 
ATOM      5  C   UNL     1      45.987   6.569  11.204  0.00  0.00    +0.000 A 
ATOM      6  C   UNL     1      47.182   7.066  11.717  0.00  0.00    +0.000 A 
ATOM      7  C   UNL     1      47.692   6.555  12.910  0.00  0.00    +0.000 A 
ATOM      8  C   UNL     1      47.027   5.537  13.610  0.00  0.00    +0.000 A 
ATOM      9  C   UNL     1      45.836   5.036  13.051  0.00  0.00    +0.000 A 
BRANCH   8  10
ATOM     10  C   UNL     1      47.511   5.072  14.927  0.00  0.00    +0.000 A 
ATOM     11  C   UNL     1      48.322   5.898  15.721  0.00  0.00    +0.000 A 
ATOM     12  C   UNL     1      48.741   5.457  16.968  0.00  0.00    +0.000 A 
ATOM     13  N   UNL     1      48.406   4.258  17.486  0.00  0.00    +0.000 NA
ATOM     14  C   UNL     1      47.621   3.474  16.722  0.00  0.00    +0.000 A 
ATOM     15  C   UNL     1      47.161   3.825  15.460  0.00  0.00    +0.000 A 
ENDBRANCH   8  10
ENDBRANCH   1   4
BRANCH   1  16
ATOM     16  N   UNL     1      43.840   4.816   9.949  0.00  0.00    +0.000 N 
ATOM     17  H   UNL     1      42.897   4.686   9.588  0.00  0.00    +0.000 HD
BRANCH  16  21
ATOM     18  C   UNL     1      46.284   2.072   7.991  0.00  0.00    +0.000 A 
ATOM     19  C   UNL     1      46.394   3.403   7.616  0.00  0.00    +0.000 A 
ATOM     20  C   UNL     1      45.602   4.348   8.273  0.00  0.00    +0.000 A 
ATOM     21  C   UNL     1      44.751   3.956   9.304  0.00  0.00    +0.000 A 
ATOM     22  C   UNL     1      44.719   2.585   9.591  0.00  0.00    +0.000 A 
ATOM     23  N   UNL     1      45.457   1.630   8.976  0.00  0.00    +0.000 NA
BRANCH  18  25
ATOM     24  N   UNL     1      46.807  -0.268   7.627  0.00  0.00    +0.000 N 
ATOM     25  C   UNL     1      47.074   1.026   7.266  0.00  0.00    +0.000 C 
ATOM     26  O   UNL     1      47.890   1.296   6.396  0.00  0.00    +0.000 OA
ATOM     27  H   UNL     1      47.271  -1.025   7.148  0.00  0.00    +0.000 HD
ATOM     28  H   UNL     1      46.095  -0.454   8.325  0.00  0.00    +0.000 HD
ENDBRANCH  18  25
ENDBRANCH  16  21
ENDBRANCH   1  16
TORSDOF 5
ENDMDL
MODEL 3
REMARK VINA RESULT:    -7.311      3.578      7.210
REMARK INTER + INTRA:         -10.592
REMARK INTER:                  -9.858
REMARK INTRA:                  -0.734
REMARK UNBOUND:                -1.144
REMARK  Name = 
REMARK  5 active torsions:
REMARK  status: ('A' for Active; 'I' for Inactive)
REMARK    1  A    between atoms: C_2  and  C_4
REMARK    2  A    between atoms: C_7  and  N_8
REMARK    3  A    between atoms: N_8  and  C_9
REMARK    4  A    between atoms: C_9  and  C_10
REMARK    5  A    between atoms: C_14  and  C_15
REMARK                            x       y       z     vdW  Elec       q    Type
REMARK                         _______ _______ _______ _____ _____    ______ ____
ROOT
ATOM      1  C   UNL     1      46.278   7.285  12.369  0.00  0.00    +0.000 C 
ATOM      2  C   UNL     1      46.530   8.628  11.698  0.00  0.00    +0.000 C 
ATOM      3  C   UNL     1      45.701   8.568  12.939  0.00  0.00    +0.000 C 
ENDROOT
BRANCH   1   4
ATOM      4  C   UNL     1      45.360   6.289  11.669  0.00  0.00    +0.000 A 
ATOM      5  C   UNL     1      43.966   6.384  11.807  0.00  0.00    +0.000 A 
ATOM      6  C   UNL     1      43.108   5.589  11.053  0.00  0.00    +0.000 A 
ATOM      7  C   UNL     1      43.630   4.674  10.140  0.00  0.00    +0.000 A 
ATOM      8  C   UNL     1      45.015   4.529   9.965  0.00  0.00    +0.000 A 
ATOM      9  C   UNL     1      45.857   5.328  10.762  0.00  0.00    +0.000 A 
BRANCH   8  10
ATOM     10  C   UNL     1      45.565   3.638   8.922  0.00  0.00    +0.000 A 
ATOM     11  C   UNL     1      46.185   4.172   7.781  0.00  0.00    +0.000 A 
ATOM     12  C   UNL     1      46.723   3.320   6.828  0.00  0.00    +0.000 A 
ATOM     13  N   UNL     1      46.696   1.976   6.930  0.00  0.00    +0.000 NA
ATOM     14  C   UNL     1      46.106   1.470   8.030  0.00  0.00    +0.000 A 
ATOM     15  C   UNL     1      45.533   2.242   9.032  0.00  0.00    +0.000 A 
ENDBRANCH   8  10
ENDBRANCH   1   4
BRANCH   1  16
ATOM     16  N   UNL     1      47.479   6.657  12.953  0.00  0.00    +0.000 N 
ATOM     17  H   UNL     1      48.089   6.222  12.264  0.00  0.00    +0.000 HD
BRANCH  16  21
ATOM     18  C   UNL     1      47.555   4.264  16.359  0.00  0.00    +0.000 A 
ATOM     19  C   UNL     1      48.344   5.405  16.366  0.00  0.00    +0.000 A 
ATOM     20  C   UNL     1      48.320   6.239  15.245  0.00  0.00    +0.000 A 
ATOM     21  C   UNL     1      47.492   5.939  14.165  0.00  0.00    +0.000 A 
ATOM     22  C   UNL     1      46.745   4.757  14.267  0.00  0.00    +0.000 A 
ATOM     23  N   UNL     1      46.744   3.912  15.327  0.00  0.00    +0.000 NA
BRANCH  18  25
ATOM     24  N   UNL     1      48.688   3.458  18.346  0.00  0.00    +0.000 N 
ATOM     25  C   UNL     1      47.605   3.318  17.519  0.00  0.00    +0.000 C 
ATOM     26  O   UNL     1      46.734   2.486  17.734  0.00  0.00    +0.000 OA
ATOM     27  H   UNL     1      48.762   2.883  19.171  0.00  0.00    +0.000 HD
ATOM     28  H   UNL     1      49.369   4.186  18.157  0.00  0.00    +0.000 HD
ENDBRANCH  18  25
ENDBRANCH  16  21
ENDBRANCH   1  16
TORSDOF 5
ENDMDL
MODEL 4
REMARK VINA RESULT:    -6.618      1.774      2.276
REMARK INTER + INTRA:          -9.697
REMARK INTER:                  -8.946
REMARK INTRA:                  -0.751
REMARK UNBOUND:                -1.144
REMARK  Name = 
REMARK  5 active torsions:
REMARK  status: ('A' for Active; 'I' for Inactive)
REMARK    1  A    between atoms: C_2  and  C_4
REMARK    2  A    between atoms: C_7  and  N_8
REMARK    3  A    between atoms: N_8  and  C_9
REMARK    4  A    between atoms: C_9  and  C_10
REMARK    5  A    between atoms: C_14  and  C_15
REMARK                            x       y       z     vdW  Elec       q    Type
REMARK                         _______ _______ _______ _____ _____    ______ ____
ROOT
ATOM      1  C   UNL     1      44.674   5.883  11.223  0.00  0.00    +0.000 C 
ATOM      2  C   UNL     1      43.598   6.893  11.595  0.00  0.00    +0.000 C 
ATOM      3  C   UNL     1      44.829   7.354  10.886  0.00  0.00    +0.000 C 
ENDROOT
BRANCH   1   4
ATOM      4  C   UNL     1      45.509   5.272  12.343  0.00  0.00    +0.000 A 
ATOM      5  C   UNL     1      45.484   3.888  12.579  0.00  0.00    +0.000 A 
ATOM      6  C   UNL     1      46.355   3.292  13.487  0.00  0.00    +0.000 A 
ATOM      7  C   UNL     1      47.274   4.074  14.185  0.00  0.00    +0.000 A 
ATOM      8  C   UNL     1      47.339   5.463  13.997  0.00  0.00    +0.000 A 
ATOM      9  C   UNL     1      46.427   6.040  13.093  0.00  0.00    +0.000 A 
BRANCH   8  10
ATOM     10  C   UNL     1      48.384   6.275  14.655  0.00  0.00    +0.000 A 
ATOM     11  C   UNL     1      49.064   7.276  13.944  0.00  0.00    +0.000 A 
ATOM     12  C   UNL     1      50.019   8.050  14.587  0.00  0.00    +0.000 A 
ATOM     13  N   UNL     1      50.343   7.905  15.888  0.00  0.00    +0.000 NA
ATOM     14  C   UNL     1      49.681   6.948  16.567  0.00  0.00    +0.000 A 
ATOM     15  C   UNL     1      48.717   6.120  16.007  0.00  0.00    +0.000 A 
ENDBRANCH   8  10
ENDBRANCH   1   4
BRANCH   1  16
ATOM     16  N   UNL     1      44.265   4.900  10.202  0.00  0.00    +0.000 N 
ATOM     17  H   UNL     1      43.534   4.264  10.516  0.00  0.00    +0.000 HD
BRANCH  16  21
ATOM     18  C   UNL     1      46.634   2.822   7.482  0.00  0.00    +0.000 A 
ATOM     19  C   UNL     1      46.796   4.198   7.544  0.00  0.00    +0.000 A 
ATOM     20  C   UNL     1      46.030   4.918   8.465  0.00  0.00    +0.000 A 
ATOM     21  C   UNL     1      45.152   4.253   9.320  0.00  0.00    +0.000 A 
ATOM     22  C   UNL     1      45.068   2.863   9.161  0.00  0.00    +0.000 A 
ATOM     23  N   UNL     1      45.780   2.124   8.276  0.00  0.00    +0.000 NA
BRANCH  18  25
ATOM     24  N   UNL     1      48.067   2.766   5.526  0.00  0.00    +0.000 N 
ATOM     25  C   UNL     1      47.395   2.028   6.464  0.00  0.00    +0.000 C 
ATOM     26  O   UNL     1      47.436   0.806   6.472  0.00  0.00    +0.000 OA
ATOM     27  H   UNL     1      48.636   2.298   4.837  0.00  0.00    +0.000 HD
ATOM     28  H   UNL     1      48.041   3.779   5.576  0.00  0.00    +0.000 HD
ENDBRANCH  18  25
ENDBRANCH  16  21
ENDBRANCH   1  16
TORSDOF 5
ENDMDL
MODEL 5
REMARK VINA RESULT:    -6.590      1.595      2.407
REMARK INTER + INTRA:          -9.660
REMARK INTER:                  -8.975
REMARK INTRA:                  -0.685
REMARK UNBOUND:                -1.144
REMARK  Name = 
REMARK  5 active torsions:
REMARK  status: ('A' for Active; 'I' for Inactive)
REMARK    1  A    between atoms: C_2  and  C_4
REMARK    2  A    between atoms: C_7  and  N_8
REMARK    3  A    between atoms: N_8  and  C_9
REMARK    4  A    between atoms: C_9  and  C_10
REMARK    5  A    between atoms: C_14  and  C_15
REMARK                            x       y       z     vdW  Elec       q    Type
REMARK                         _______ _______ _______ _____ _____    ______ ____
ROOT
ATOM      1  C   UNL     1      43.989   5.506  11.736  0.00  0.00    +0.000 C 
ATOM      2  C   UNL     1      42.900   5.357  12.789  0.00  0.00    +0.000 C 
ATOM      3  C   UNL     1      42.521   5.603  11.365  0.00  0.00    +0.000 C 
ENDROOT
BRANCH   1   4
ATOM      4  C   UNL     1      44.848   6.766  11.759  0.00  0.00    +0.000 A 
ATOM      5  C   UNL     1      44.288   8.017  11.450  0.00  0.00    +0.000 A 
ATOM      6  C   UNL     1      45.010   9.195  11.619  0.00  0.00    +0.000 A 
ATOM      7  C   UNL     1      46.316   9.146  12.103  0.00  0.00    +0.000 A 
ATOM      8  C   UNL     1      46.931   7.925  12.421  0.00  0.00    +0.000 A 
ATOM      9  C   UNL     1      46.184   6.750  12.212  0.00  0.00    +0.000 A 
BRANCH   8  10
ATOM     10  C   UNL     1      48.275   7.883  13.034  0.00  0.00    +0.000 A 
ATOM     11  C   UNL     1      49.403   8.302  12.312  0.00  0.00    +0.000 A 
ATOM     12  C   UNL     1      50.652   8.284  12.914  0.00  0.00    +0.000 A 
ATOM     13  N   UNL     1      50.860   7.887  14.187  0.00  0.00    +0.000 NA
ATOM     14  C   UNL     1      49.772   7.493  14.877  0.00  0.00    +0.000 A 
ATOM     15  C   UNL     1      48.485   7.468  14.355  0.00  0.00    +0.000 A 
ENDBRANCH   8  10
ENDBRANCH   1   4
BRANCH   1  16
ATOM     16  N   UNL     1      44.767   4.279  11.481  0.00  0.00    +0.000 N 
ATOM     17  H   UNL     1      45.521   4.126  12.147  0.00  0.00    +0.000 HD
BRANCH  16  21
ATOM     18  C   UNL     1      46.093   3.079   7.721  0.00  0.00    +0.000 A 
ATOM     19  C   UNL     1      45.607   2.094   8.568  0.00  0.00    +0.000 A 
ATOM     20  C   UNL     1      45.134   2.472   9.827  0.00  0.00    +0.000 A 
ATOM     21  C   UNL     1      45.123   3.815  10.199  0.00  0.00    +0.000 A 
ATOM     22  C   UNL     1      45.644   4.720   9.265  0.00  0.00    +0.000 A 
ATOM     23  N   UNL     1      46.124   4.401   8.038  0.00  0.00    +0.000 NA
BRANCH  18  25
ATOM     24  N   UNL     1      46.906   3.744   5.535  0.00  0.00    +0.000 N 
ATOM     25  C   UNL     1      46.664   2.701   6.389  0.00  0.00    +0.000 C 
ATOM     26  O   UNL     1      46.917   1.545   6.080  0.00  0.00    +0.000 OA
ATOM     27  H   UNL     1      47.331   3.566   4.638  0.00  0.00    +0.000 HD
ATOM     28  H   UNL     1      46.720   4.693   5.842  0.00  0.00    +0.000 HD
ENDBRANCH  18  25
ENDBRANCH  16  21
ENDBRANCH   1  16
TORSDOF 5
ENDMDL
MODEL 6
REMARK VINA RESULT:    -6.265      3.751      5.974
REMARK INTER + INTRA:          -9.240
REMARK INTER:                  -8.332
REMARK INTRA:                  -0.908
REMARK UNBOUND:                -1.144
REMARK  Name = 
REMARK  5 active torsions:
REMARK  status: ('A' for Active; 'I' for Inactive)
REMARK    1  A    between atoms: C_2  and  C_4
REMARK    2  A    between atoms: C_7  and  N_8
REMARK    3  A    between atoms: N_8  and  C_9
REMARK    4  A    between atoms: C_9  and  C_10
REMARK    5  A    between atoms: C_14  and  C_15
REMARK                            x       y       z     vdW  Elec       q    Type
REMARK                         _______ _______ _______ _____ _____    ______ ____
ROOT
ATOM      1  C   UNL     1      47.632   8.228  13.051  0.00  0.00    +0.000 C 
ATOM      2  C   UNL     1      48.120   9.397  12.206  0.00  0.00    +0.000 C 
ATOM      3  C   UNL     1      48.543   8.007  11.857  0.00  0.00    +0.000 C 
ENDROOT
BRANCH   1   4
ATOM      4  C   UNL     1      48.188   8.078  14.463  0.00  0.00    +0.000 A 
ATOM      5  C   UNL     1      48.136   9.151  15.367  0.00  0.00    +0.000 A 
ATOM      6  C   UNL     1      48.490   8.988  16.704  0.00  0.00    +0.000 A 
ATOM      7  C   UNL     1      48.907   7.741  17.166  0.00  0.00    +0.000 A 
ATOM      8  C   UNL     1      48.986   6.634  16.307  0.00  0.00    +0.000 A 
ATOM      9  C   UNL     1      48.649   6.838  14.955  0.00  0.00    +0.000 A 
BRANCH   8  10
ATOM     10  C   UNL     1      49.324   5.290  16.820  0.00  0.00    +0.000 A 
ATOM     11  C   UNL     1      48.392   4.243  16.744  0.00  0.00    +0.000 A 
ATOM     12  C   UNL     1      48.738   2.980  17.201  0.00  0.00    +0.000 A 
ATOM     13  N   UNL     1      49.946   2.681  17.723  0.00  0.00    +0.000 NA
ATOM     14  C   UNL     1      50.837   3.689  17.786  0.00  0.00    +0.000 A 
ATOM     15  C   UNL     1      50.579   4.985  17.361  0.00  0.00    +0.000 A 
ENDBRANCH   8  10
ENDBRANCH   1   4
BRANCH   1  16
ATOM     16  N   UNL     1      46.181   7.975  12.967  0.00  0.00    +0.000 N 
ATOM     17  H   UNL     1      45.643   8.435  13.699  0.00  0.00    +0.000 HD
BRANCH  16  21
ATOM     18  C   UNL     1      44.587   4.364  11.644  0.00  0.00    +0.000 A 
ATOM     19  C   UNL     1      45.354   4.335  12.799  0.00  0.00    +0.000 A 
ATOM     20  C   UNL     1      45.882   5.536  13.279  0.00  0.00    +0.000 A 
ATOM     21  C   UNL     1      45.609   6.735  12.622  0.00  0.00    +0.000 A 
ATOM     22  C   UNL     1      44.828   6.640  11.462  0.00  0.00    +0.000 A 
ATOM     23  N   UNL     1      44.304   5.500  10.952  0.00  0.00    +0.000 NA
BRANCH  18  25
ATOM     24  N   UNL     1      44.886   2.451  10.182  0.00  0.00    +0.000 N 
ATOM     25  C   UNL     1      44.057   3.085  11.070  0.00  0.00    +0.000 C 
ATOM     26  O   UNL     1      42.968   2.621  11.379  0.00  0.00    +0.000 OA
ATOM     27  H   UNL     1      44.611   1.564   9.791  0.00  0.00    +0.000 HD
ATOM     28  H   UNL     1      45.797   2.848   9.982  0.00  0.00    +0.000 HD
ENDBRANCH  18  25
ENDBRANCH  16  21
ENDBRANCH   1  16
TORSDOF 5
ENDMDL
MODEL 7
REMARK VINA RESULT:    -6.191      3.677      7.505
REMARK INTER + INTRA:          -9.145
REMARK INTER:                  -9.232
REMARK INTRA:                   0.087
REMARK UNBOUND:                -1.144
REMARK  Name = 
REMARK  5 active torsions:
REMARK  status: ('A' for Active; 'I' for Inactive)
REMARK    1  A    between atoms: C_2  and  C_4
REMARK    2  A    between atoms: C_7  and  N_8
REMARK    3  A    between atoms: N_8  and  C_9
REMARK    4  A    between atoms: C_9  and  C_10
REMARK    5  A    between atoms: C_14  and  C_15
REMARK                            x       y       z     vdW  Elec       q    Type
REMARK                         _______ _______ _______ _____ _____    ______ ____
ROOT
ATOM      1  C   UNL     1      48.551   8.056  12.717  0.00  0.00    +0.000 C 
ATOM      2  C   UNL     1      49.690   7.544  11.845  0.00  0.00    +0.000 C 
ATOM      3  C   UNL     1      49.395   9.008  11.890  0.00  0.00    +0.000 C 
ENDROOT
BRANCH   1   4
ATOM      4  C   UNL     1      47.120   7.748  12.289  0.00  0.00    +0.000 A 
ATOM      5  C   UNL     1      46.119   8.728  12.390  0.00  0.00    +0.000 A 
ATOM      6  C   UNL     1      44.849   8.522  11.860  0.00  0.00    +0.000 A 
ATOM      7  C   UNL     1      44.551   7.323  11.215  0.00  0.00    +0.000 A 
ATOM      8  C   UNL     1      45.508   6.304  11.091  0.00  0.00    +0.000 A 
ATOM      9  C   UNL     1      46.775   6.532  11.662  0.00  0.00    +0.000 A 
BRANCH   8  10
ATOM     10  C   UNL     1      45.225   5.079  10.314  0.00  0.00    +0.000 A 
ATOM     11  C   UNL     1      44.501   4.022  10.887  0.00  0.00    +0.000 A 
ATOM     12  C   UNL     1      44.218   2.893  10.133  0.00  0.00    +0.000 A 
ATOM     13  N   UNL     1      44.597   2.742   8.847  0.00  0.00    +0.000 NA
ATOM     14  C   UNL     1      45.285   3.763   8.301  0.00  0.00    +0.000 A 
ATOM     15  C   UNL     1      45.621   4.927   8.980  0.00  0.00    +0.000 A 
ENDBRANCH   8  10
ENDBRANCH   1   4
BRANCH   1  16
ATOM     16  N   UNL     1      48.771   7.897  14.167  0.00  0.00    +0.000 N 
ATOM     17  H   UNL     1      49.622   8.343  14.504  0.00  0.00    +0.000 HD
BRANCH  16  21
ATOM     18  C   UNL     1      47.871   4.596  16.540  0.00  0.00    +0.000 A 
ATOM     19  C   UNL     1      47.418   4.579  15.229  0.00  0.00    +0.000 A 
ATOM     20  C   UNL     1      47.725   5.664  14.404  0.00  0.00    +0.000 A 
ATOM     21  C   UNL     1      48.500   6.717  14.887  0.00  0.00    +0.000 A 
ATOM     22  C   UNL     1      48.896   6.627  16.229  0.00  0.00    +0.000 A 
ATOM     23  N   UNL     1      48.614   5.604  17.070  0.00  0.00    +0.000 NA
BRANCH  18  25
ATOM     24  N   UNL     1      48.474   3.124  18.371  0.00  0.00    +0.000 N 
ATOM     25  C   UNL     1      47.507   3.478  17.467  0.00  0.00    +0.000 C 
ATOM     26  O   UNL     1      46.417   2.923  17.441  0.00  0.00    +0.000 OA
ATOM     27  H   UNL     1      48.280   2.409  19.054  0.00  0.00    +0.000 HD
ATOM     28  H   UNL     1      49.351   3.635  18.387  0.00  0.00    +0.000 HD
ENDBRANCH  18  25
ENDBRANCH  16  21
ENDBRANCH   1  16
TORSDOF 5
ENDMDL
MODEL 8
REMARK VINA RESULT:    -6.109      5.657      8.466
REMARK INTER + INTRA:          -9.039
REMARK INTER:                  -8.878
REMARK INTRA:                  -0.161
REMARK UNBOUND:                -1.144
REMARK  Name = 
REMARK  5 active torsions:
REMARK  status: ('A' for Active; 'I' for Inactive)
REMARK    1  A    between atoms: C_2  and  C_4
REMARK    2  A    between atoms: C_7  and  N_8
REMARK    3  A    between atoms: N_8  and  C_9
REMARK    4  A    between atoms: C_9  and  C_10
REMARK    5  A    between atoms: C_14  and  C_15
REMARK                            x       y       z     vdW  Elec       q    Type
REMARK                         _______ _______ _______ _____ _____    ______ ____
ROOT
ATOM      1  C   UNL     1      48.120   4.554  16.773  0.00  0.00    +0.000 C 
ATOM      2  C   UNL     1      47.119   4.652  17.915  0.00  0.00    +0.000 C 
ATOM      3  C   UNL     1      47.332   3.341  17.231  0.00  0.00    +0.000 C 
ENDROOT
BRANCH   1   4
ATOM      4  C   UNL     1      47.773   5.226  15.449  0.00  0.00    +0.000 A 
ATOM      5  C   UNL     1      48.565   6.273  14.951  0.00  0.00    +0.000 A 
ATOM      6  C   UNL     1      48.361   6.791  13.675  0.00  0.00    +0.000 A 
ATOM      7  C   UNL     1      47.352   6.271  12.866  0.00  0.00    +0.000 A 
ATOM      8  C   UNL     1      46.523   5.230  13.314  0.00  0.00    +0.000 A 
ATOM      9  C   UNL     1      46.737   4.747  14.619  0.00  0.00    +0.000 A 
BRANCH   8  10
ATOM     10  C   UNL     1      45.526   4.608  12.418  0.00  0.00    +0.000 A 
ATOM     11  C   UNL     1      44.744   3.529  12.861  0.00  0.00    +0.000 A 
ATOM     12  C   UNL     1      43.791   2.978  12.018  0.00  0.00    +0.000 A 
ATOM     13  N   UNL     1      43.555   3.425  10.767  0.00  0.00    +0.000 NA
ATOM     14  C   UNL     1      44.303   4.465  10.351  0.00  0.00    +0.000 A 
ATOM     15  C   UNL     1      45.285   5.075  11.121  0.00  0.00    +0.000 A 
ENDBRANCH   8  10
ENDBRANCH   1   4
BRANCH   1  16
ATOM     16  N   UNL     1      49.527   4.752  17.173  0.00  0.00    +0.000 N 
ATOM     17  H   UNL     1      49.990   5.511  16.677  0.00  0.00    +0.000 HD
BRANCH  16  21
ATOM     18  C   UNL     1      52.160   1.569  17.692  0.00  0.00    +0.000 A 
ATOM     19  C   UNL     1      52.554   2.806  18.181  0.00  0.00    +0.000 A 
ATOM     20  C   UNL     1      51.679   3.887  18.041  0.00  0.00    +0.000 A 
ATOM     21  C   UNL     1      50.428   3.706  17.453  0.00  0.00    +0.000 A 
ATOM     22  C   UNL     1      50.144   2.415  16.991  0.00  0.00    +0.000 A 
ATOM     23  N   UNL     1      50.962   1.340  17.093  0.00  0.00    +0.000 NA
BRANCH  18  25
ATOM     24  N   UNL     1      53.511  -0.102  16.567  0.00  0.00    +0.000 N 
ATOM     25  C   UNL     1      53.099   0.405  17.772  0.00  0.00    +0.000 C 
ATOM     26  O   UNL     1      53.492  -0.059  18.833  0.00  0.00    +0.000 OA
ATOM     27  H   UNL     1      54.177  -0.858  16.547  0.00  0.00    +0.000 HD
ATOM     28  H   UNL     1      53.193   0.335  15.709  0.00  0.00    +0.000 HD
ENDBRANCH  18  25
ENDBRANCH  16  21
ENDBRANCH   1  16
TORSDOF 5
ENDMDL
MODEL 9
REMARK VINA RESULT:    -5.964      4.462      8.342
REMARK INTER + INTRA:          -8.851
REMARK INTER:                  -7.750
REMARK INTRA:                  -1.101
REMARK UNBOUND:                -1.144
REMARK  Name = 
REMARK  5 active torsions:
REMARK  status: ('A' for Active; 'I' for Inactive)
REMARK    1  A    between atoms: C_2  and  C_4
REMARK    2  A    between atoms: C_7  and  N_8
REMARK    3  A    between atoms: N_8  and  C_9
REMARK    4  A    between atoms: C_9  and  C_10
REMARK    5  A    between atoms: C_14  and  C_15
REMARK                            x       y       z     vdW  Elec       q    Type
REMARK                         _______ _______ _______ _____ _____    ______ ____
ROOT
ATOM      1  C   UNL     1      49.168   7.830  12.705  0.00  0.00    +0.000 C 
ATOM      2  C   UNL     1      50.014   7.761  11.442  0.00  0.00    +0.000 C 
ATOM      3  C   UNL     1      49.883   9.058  12.172  0.00  0.00    +0.000 C 
ENDROOT
BRANCH   1   4
ATOM      4  C   UNL     1      47.654   7.717  12.567  0.00  0.00    +0.000 A 
ATOM      5  C   UNL     1      46.839   8.854  12.695  0.00  0.00    +0.000 A 
ATOM      6  C   UNL     1      45.476   8.803  12.416  0.00  0.00    +0.000 A 
ATOM      7  C   UNL     1      44.896   7.605  12.001  0.00  0.00    +0.000 A 
ATOM      8  C   UNL     1      45.658   6.435  11.863  0.00  0.00    +0.000 A 
ATOM      9  C   UNL     1      47.028   6.512  12.180  0.00  0.00    +0.000 A 
BRANCH   8  10
ATOM     10  C   UNL     1      45.065   5.195  11.322  0.00  0.00    +0.000 A 
ATOM     11  C   UNL     1      44.257   4.378  12.129  0.00  0.00    +0.000 A 
ATOM     12  C   UNL     1      43.683   3.235  11.594  0.00  0.00    +0.000 A 
ATOM     13  N   UNL     1      43.847   2.847  10.312  0.00  0.00    +0.000 NA
ATOM     14  C   UNL     1      44.617   3.640   9.541  0.00  0.00    +0.000 A 
ATOM     15  C   UNL     1      45.239   4.797   9.990  0.00  0.00    +0.000 A 
ENDBRANCH   8  10
ENDBRANCH   1   4
BRANCH   1  16
ATOM     16  N   UNL     1      49.706   7.063  13.845  0.00  0.00    +0.000 N 
ATOM     17  H   UNL     1      50.025   6.128  13.595  0.00  0.00    +0.000 HD
BRANCH  16  21
ATOM     18  C   UNL     1      48.274   6.855  17.749  0.00  0.00    +0.000 A 
ATOM     19  C   UNL     1      48.685   8.097  17.288  0.00  0.00    +0.000 A 
ATOM     20  C   UNL     1      49.148   8.200  15.974  0.00  0.00    +0.000 A 
ATOM     21  C   UNL     1      49.160   7.080  15.144  0.00  0.00    +0.000 A 
ATOM     22  C   UNL     1      48.728   5.878  15.721  0.00  0.00    +0.000 A 
ATOM     23  N   UNL     1      48.282   5.726  16.991  0.00  0.00    +0.000 NA
BRANCH  18  25
ATOM     24  N   UNL     1      47.119   5.560  19.443  0.00  0.00    +0.000 N 
ATOM     25  C   UNL     1      47.830   6.698  19.171  0.00  0.00    +0.000 C 
ATOM     26  O   UNL     1      48.094   7.516  20.042  0.00  0.00    +0.000 OA
ATOM     27  H   UNL     1      46.826   5.369  20.389  0.00  0.00    +0.000 HD
ATOM     28  H   UNL     1      46.954   4.886  18.703  0.00  0.00    +0.000 HD
ENDBRANCH  18  25
ENDBRANCH  16  21
ENDBRANCH   1  16
TORSDOF 5
ENDMDL
