MODEL 1
REMARK VINA RESULT:    -8.200      0.000      0.000
REMARK INTER + INTRA:         -10.541
REMARK INTER:                 -10.117
REMARK INTRA:                  -0.424
REMARK UNBOUND:                -0.424
REMARK  Name = 
REMARK  4 active torsions:
REMARK  status: ('A' for Active; 'I' for Inactive)
REMARK    1  A    between atoms: C_2  and  C_4
REMARK    2  A    between atoms: C_7  and  N_8
REMARK    3  A    between atoms: N_8  and  C_9
REMARK    4  A    between atoms: C_9  and  C_10
REMARK                            x       y       z     vdW  Elec       q    Type
REMARK                         _______ _______ _______ _____ _____    ______ ____
ROOT
ATOM      1  C   UNL     1      46.608   2.637   7.535  0.00  0.00    +0.000 A 
ATOM      2  C   UNL     1      46.218   3.975   7.647  0.00  0.00    +0.000 A 
ATOM      3  C   UNL     1      45.225   4.349   8.563  0.00  0.00    +0.000 A 
ATOM      4  C   UNL     1      44.610   3.396   9.376  0.00  0.00    +0.000 A 
ATOM      5  C   UNL     1      45.027   2.060   9.275  0.00  0.00    +0.000 A 
ATOM      6  C   UNL     1      46.002   1.677   8.349  0.00  0.00    +0.000 A 
ENDROOT
BRANCH   1   8
ATOM      7  N   UNL     1      47.823   2.965   5.447  0.00  0.00    +0.000 N 
ATOM      8  C   UNL     1      47.635   2.191   6.561  0.00  0.00    +0.000 C 
ATOM      9  O   UNL     1      48.315   1.189   6.750  0.00  0.00    +0.000 OA
ATOM     10  H   UNL     1      48.595   2.705   4.849  0.00  0.00    +0.000 HD
ATOM     11  H   UNL     1      47.486   3.916   5.391  0.00  0.00    +0.000 HD
ENDBRANCH   1   8
BRANCH   4  12
ATOM     12  N   UNL     1      43.643   3.707  10.353  0.00  0.00    +0.000 N 
ATOM     13  H   UNL     1      43.291   2.853  10.788  0.00  0.00    +0.000 HD
BRANCH  12  14
ATOM     14  C   UNL     1      43.799   4.821  11.325  0.00  0.00    +0.000 C 
ATOM     15  C   UNL     1      42.480   5.259  11.959  0.00  0.00    +0.000 C 
ATOM     16  C   UNL     1      43.204   6.191  11.046  0.00  0.00    +0.000 C 
BRANCH  14  17
ATOM     17  C   UNL     1      45.006   4.708  12.266  0.00  0.00    +0.000 A 
ATOM     18  C   UNL     1      45.442   3.473  12.758  0.00  0.00    +0.000 A 
ATOM     19  N   UNL     1      46.526   3.304  13.558  0.00  0.00    +0.000 NA
ATOM     20  C   UNL     1      47.183   4.441  13.865  0.00  0.00    +0.000 A 
ATOM     21  C   UNL     1      46.767   5.677  13.411  0.00  0.00    +0.000 A 
ATOM     22  N   UNL     1      45.682   5.839  12.617  0.00  0.00    +0.000 NA
ENDBRANCH  14  17
ENDBRANCH  12  14
ENDBRANCH   4  12
TORSDOF 4
ENDMDL
MODEL 2
REMARK VINA RESULT:    -7.850      1.108      1.914
REMARK INTER + INTRA:         -10.109
REMARK INTER:                 -10.152
REMARK INTRA:                   0.043
REMARK UNBOUND:                -0.424
REMARK  Name = 
REMARK  4 active torsions:
REMARK  status: ('A' for Active; 'I' for Inactive)
REMARK    1  A    between atoms: C_2  and  C_4
REMARK    2  A    between atoms: C_7  and  N_8
REMARK    3  A    between atoms: N_8  and  C_9
REMARK    4  A    between atoms: C_9  and  C_10
REMARK                            x       y       z     vdW  Elec       q    Type
REMARK                         _______ _______ _______ _____ _____    ______ ____
ROOT
ATOM      1  C   UNL     1      46.377   2.271   7.780  0.00  0.00    +0.000 A 
ATOM      2  C   UNL     1      45.476   1.720   8.696  0.00  0.00    +0.000 A 
ATOM      3  C   UNL     1      44.611   2.548   9.425  0.00  0.00    +0.000 A 
ATOM      4  C   UNL     1      44.634   3.932   9.250  0.00  0.00    +0.000 A 
ATOM      5  C   UNL     1      45.523   4.473   8.310  0.00  0.00    +0.000 A 
ATOM      6  C   UNL     1      46.404   3.656   7.595  0.00  0.00    +0.000 A 
ENDROOT
BRANCH   1   8
ATOM      7  N   UNL     1      48.433   2.063   6.486  0.00  0.00    +0.000 N 
ATOM      8  C   UNL     1      47.330   1.437   7.006  0.00  0.00    +0.000 C 
ATOM      9  O   UNL     1      47.164   0.233   6.856  0.00  0.00    +0.000 OA
ATOM     10  H   UNL     1      49.121   1.462   6.054  0.00  0.00    +0.000 HD
ATOM     11  H   UNL     1      48.738   2.970   6.810  0.00  0.00    +0.000 HD
ENDBRANCH   1   8
BRANCH   4  12
ATOM     12  N   UNL     1      43.760   4.819   9.910  0.00  0.00    +0.000 N 
ATOM     13  H   UNL     1      42.802   4.683   9.583  0.00  0.00    +0.000 HD
BRANCH  12  14
ATOM     14  C   UNL     1      43.830   5.093  11.370  0.00  0.00    +0.000 C 
ATOM     15  C   UNL     1      43.029   4.100  12.211  0.00  0.00    +0.000 C 
ATOM     16  C   UNL     1      42.596   5.527  12.144  0.00  0.00    +0.000 C 
BRANCH  14  17
ATOM     17  C   UNL     1      45.218   5.476  11.901  0.00  0.00    +0.000 A 
ATOM     18  C   UNL     1      45.895   6.611  11.440  0.00  0.00    +0.000 A 
ATOM     19  N   UNL     1      47.103   7.024  11.900  0.00  0.00    +0.000 NA
ATOM     20  C   UNL     1      47.636   6.246  12.864  0.00  0.00    +0.000 A 
ATOM     21  C   UNL     1      47.002   5.110  13.326  0.00  0.00    +0.000 A 
ATOM     22  N   UNL     1      45.799   4.699  12.860  0.00  0.00    +0.000 NA
ENDBRANCH  14  17
ENDBRANCH  12  14
ENDBRANCH   4  12
TORSDOF 4
ENDMDL
MODEL 3
REMARK VINA RESULT:    -5.859      3.143      6.264
REMARK INTER + INTRA:          -7.653
REMARK INTER:                  -7.387
REMARK INTRA:                  -0.265
REMARK UNBOUND:                -0.424
REMARK  Name = 
REMARK  4 active torsions:
REMARK  status: ('A' for Active; 'I' for Inactive)
REMARK    1  A    between atoms: C_2  and  C_4
REMARK    2  A    between atoms: C_7  and  N_8
REMARK    3  A    between atoms: N_8  and  C_9
REMARK    4  A    between atoms: C_9  and  C_10
REMARK                            x       y       z     vdW  Elec       q    Type
REMARK                         _______ _______ _______ _____ _____    ______ ____
ROOT
ATOM      1  C   UNL     1      48.144   7.078  14.016  0.00  0.00    +0.000 A 
ATOM      2  C   UNL     1      47.646   5.799  13.753  0.00  0.00    +0.000 A 
ATOM      3  C   UNL     1      46.452   5.636  13.036  0.00  0.00    +0.000 A 
ATOM      4  C   UNL     1      45.741   6.745  12.575  0.00  0.00    +0.000 A 
ATOM      5  C   UNL     1      46.263   8.024  12.821  0.00  0.00    +0.000 A 
ATOM      6  C   UNL     1      47.441   8.194  13.554  0.00  0.00    +0.000 A 
ENDROOT
BRANCH   1   8
ATOM      7  N   UNL     1      49.996   8.521  14.670  0.00  0.00    +0.000 N 
ATOM      8  C   UNL     1      49.388   7.299  14.793  0.00  0.00    +0.000 C 
ATOM      9  O   UNL     1      49.847   6.443  15.540  0.00  0.00    +0.000 OA
ATOM     10  H   UNL     1      50.781   8.690  15.284  0.00  0.00    +0.000 HD
ATOM     11  H   UNL     1      49.515   9.324  14.290  0.00  0.00    +0.000 HD
ENDBRANCH   1   8
BRANCH   4  12
ATOM     12  N   UNL     1      44.564   6.656  11.806  0.00  0.00    +0.000 N 
ATOM     13  H   UNL     1      44.650   7.218  10.957  0.00  0.00    +0.000 HD
BRANCH  12  14
ATOM     14  C   UNL     1      43.840   5.378  11.573  0.00  0.00    +0.000 C 
ATOM     15  C   UNL     1      42.324   5.509  11.709  0.00  0.00    +0.000 C 
ATOM     16  C   UNL     1      43.085   4.692  12.699  0.00  0.00    +0.000 C 
BRANCH  14  17
ATOM     17  C   UNL     1      44.351   4.538  10.395  0.00  0.00    +0.000 A 
ATOM     18  C   UNL     1      45.146   5.093   9.387  0.00  0.00    +0.000 A 
ATOM     19  N   UNL     1      45.662   4.394   8.344  0.00  0.00    +0.000 NA
ATOM     20  C   UNL     1      45.351   3.082   8.334  0.00  0.00    +0.000 A 
ATOM     21  C   UNL     1      44.553   2.509   9.303  0.00  0.00    +0.000 A 
ATOM     22  N   UNL     1      44.036   3.212  10.339  0.00  0.00    +0.000 NA
ENDBRANCH  14  17
ENDBRANCH  12  14
ENDBRANCH   4  12
TORSDOF 4
ENDMDL
MODEL 4
REMARK VINA RESULT:    -5.807      2.481      4.255
REMARK INTER + INTRA:          -7.588
REMARK INTER:                  -7.576
REMARK INTRA:                  -0.012
REMARK UNBOUND:                -0.424
REMARK  Name = 
REMARK  4 active torsions:
REMARK  status: ('A' for Active; 'I' for Inactive)
REMARK    1  A    between atoms: C_2  and  C_4
REMARK    2  A    between atoms: C_7  and  N_8
REMARK    3  A    between atoms: N_8  and  C_9
REMARK    4  A    between atoms: C_9  and  C_10
REMARK                            x       y       z     vdW  Elec       q    Type
REMARK                         _______ _______ _______ _____ _____    ______ ____
ROOT
ATOM      1  C   UNL     1      44.994   3.828  10.192  0.00  0.00    +0.000 A 
ATOM      2  C   UNL     1      45.421   5.147  10.020  0.00  0.00    +0.000 A 
ATOM      3  C   UNL     1      45.782   5.925  11.129  0.00  0.00    +0.000 A 
ATOM      4  C   UNL     1      45.722   5.397  12.420  0.00  0.00    +0.000 A 
ATOM      5  C   UNL     1      45.318   4.063  12.579  0.00  0.00    +0.000 A 
ATOM      6  C   UNL     1      44.935   3.289  11.480  0.00  0.00    +0.000 A 
ENDROOT
BRANCH   1   8
ATOM      7  N   UNL     1      44.223   3.611   7.889  0.00  0.00    +0.000 N 
ATOM      8  C   UNL     1      44.577   2.975   9.050  0.00  0.00    +0.000 C 
ATOM      9  O   UNL     1      44.573   1.752   9.122  0.00  0.00    +0.000 OA
ATOM     10  H   UNL     1      44.043   3.014   7.093  0.00  0.00    +0.000 HD
ATOM     11  H   UNL     1      44.468   4.574   7.708  0.00  0.00    +0.000 HD
ENDBRANCH   1   8
BRANCH   4  12
ATOM     12  N   UNL     1      46.117   6.103  13.573  0.00  0.00    +0.000 N 
ATOM     13  H   UNL     1      45.457   5.938  14.335  0.00  0.00    +0.000 HD
BRANCH  12  14
ATOM     14  C   UNL     1      47.527   6.167  14.044  0.00  0.00    +0.000 C 
ATOM     15  C   UNL     1      48.110   7.579  14.014  0.00  0.00    +0.000 C 
ATOM     16  C   UNL     1      48.651   6.537  13.092  0.00  0.00    +0.000 C 
BRANCH  14  17
ATOM     17  C   UNL     1      47.845   5.322  15.284  0.00  0.00    +0.000 A 
ATOM     18  C   UNL     1      47.055   4.226  15.650  0.00  0.00    +0.000 A 
ATOM     19  N   UNL     1      47.308   3.417  16.710  0.00  0.00    +0.000 NA
ATOM     20  C   UNL     1      48.408   3.743  17.419  0.00  0.00    +0.000 A 
ATOM     21  C   UNL     1      49.197   4.829  17.095  0.00  0.00    +0.000 A 
ATOM     22  N   UNL     1      48.936   5.636  16.039  0.00  0.00    +0.000 NA
ENDBRANCH  14  17
ENDBRANCH  12  14
ENDBRANCH   4  12
TORSDOF 4
ENDMDL
MODEL 5
REMARK VINA RESULT:    -5.661      3.436      5.434
REMARK INTER + INTRA:          -7.408
REMARK INTER:                  -7.034
REMARK INTRA:                  -0.374
REMARK UNBOUND:                -0.424
REMARK  Name = 
REMARK  4 active torsions:
REMARK  status: ('A' for Active; 'I' for Inactive)
REMARK    1  A    between atoms: C_2  and  C_4
REMARK    2  A    between atoms: C_7  and  N_8
REMARK    3  A    between atoms: N_8  and  C_9
REMARK    4  A    between atoms: C_9  and  C_10
REMARK                            x       y       z     vdW  Elec       q    Type
REMARK                         _______ _______ _______ _____ _____    ______ ____
ROOT
ATOM      1  C   UNL     1      44.540   4.095  11.593  0.00  0.00    +0.000 A 
ATOM      2  C   UNL     1      44.395   5.324  10.943  0.00  0.00    +0.000 A 
ATOM      3  C   UNL     1      44.956   6.486  11.492  0.00  0.00    +0.000 A 
ATOM      4  C   UNL     1      45.667   6.436  12.693  0.00  0.00    +0.000 A 
ATOM      5  C   UNL     1      45.829   5.193  13.323  0.00  0.00    +0.000 A 
ATOM      6  C   UNL     1      45.253   4.034  12.793  0.00  0.00    +0.000 A 
ENDROOT
BRANCH   1   8
ATOM      7  N   UNL     1      44.554   2.261   9.987  0.00  0.00    +0.000 N 
ATOM      8  C   UNL     1      43.941   2.845  11.064  0.00  0.00    +0.000 C 
ATOM      9  O   UNL     1      42.955   2.329  11.579  0.00  0.00    +0.000 OA
ATOM     10  H   UNL     1      44.196   1.358   9.706  0.00  0.00    +0.000 HD
ATOM     11  H   UNL     1      45.498   2.498   9.713  0.00  0.00    +0.000 HD
ENDBRANCH   1   8
BRANCH   4  12
ATOM     12  N   UNL     1      46.300   7.552  13.275  0.00  0.00    +0.000 N 
ATOM     13  H   UNL     1      45.929   7.723  14.210  0.00  0.00    +0.000 HD
BRANCH  12  14
ATOM     14  C   UNL     1      47.766   7.791  13.189  0.00  0.00    +0.000 C 
ATOM     15  C   UNL     1      48.139   8.905  12.212  0.00  0.00    +0.000 C 
ATOM     16  C   UNL     1      48.531   7.497  11.910  0.00  0.00    +0.000 C 
BRANCH  14  17
ATOM     17  C   UNL     1      48.514   7.776  14.528  0.00  0.00    +0.000 A 
ATOM     18  C   UNL     1      48.301   8.760  15.501  0.00  0.00    +0.000 A 
ATOM     19  N   UNL     1      48.899   8.778  16.719  0.00  0.00    +0.000 NA
ATOM     20  C   UNL     1      49.747   7.754  16.947  0.00  0.00    +0.000 A 
ATOM     21  C   UNL     1      49.993   6.779  16.001  0.00  0.00    +0.000 A 
ATOM     22  N   UNL     1      49.396   6.769  14.785  0.00  0.00    +0.000 NA
ENDBRANCH  14  17
ENDBRANCH  12  14
ENDBRANCH   4  12
TORSDOF 4
ENDMDL
MODEL 6
REMARK VINA RESULT:    -5.643      3.414      6.865
REMARK INTER + INTRA:          -7.386
REMARK INTER:                  -7.110
REMARK INTRA:                  -0.276
REMARK UNBOUND:                -0.424
REMARK  Name = 
REMARK  4 active torsions:
REMARK  status: ('A' for Active; 'I' for Inactive)
REMARK    1  A    between atoms: C_2  and  C_4
REMARK    2  A    between atoms: C_7  and  N_8
REMARK    3  A    between atoms: N_8  and  C_9
REMARK    4  A    between atoms: C_9  and  C_10
REMARK                            x       y       z     vdW  Elec       q    Type
REMARK                         _______ _______ _______ _____ _____    ______ ____
ROOT
ATOM      1  C   UNL     1      47.891   4.895  16.066  0.00  0.00    +0.000 A 
ATOM      2  C   UNL     1      48.352   6.124  15.584  0.00  0.00    +0.000 A 
ATOM      3  C   UNL     1      48.070   6.520  14.269  0.00  0.00    +0.000 A 
ATOM      4  C   UNL     1      47.327   5.697  13.421  0.00  0.00    +0.000 A 
ATOM      5  C   UNL     1      46.847   4.478  13.923  0.00  0.00    +0.000 A 
ATOM      6  C   UNL     1      47.143   4.067  15.226  0.00  0.00    +0.000 A 
ENDROOT
BRANCH   1   8
ATOM      7  N   UNL     1      47.254   3.621  18.045  0.00  0.00    +0.000 N 
ATOM      8  C   UNL     1      48.187   4.422  17.441  0.00  0.00    +0.000 C 
ATOM      9  O   UNL     1      49.234   4.705  18.013  0.00  0.00    +0.000 OA
ATOM     10  H   UNL     1      47.518   3.225  18.936  0.00  0.00    +0.000 HD
ATOM     11  H   UNL     1      46.527   3.156  17.520  0.00  0.00    +0.000 HD
ENDBRANCH   1   8
BRANCH   4  12
ATOM     12  N   UNL     1      46.963   6.053  12.107  0.00  0.00    +0.000 N 
ATOM     13  H   UNL     1      47.617   5.649  11.435  0.00  0.00    +0.000 HD
BRANCH  12  14
ATOM     14  C   UNL     1      45.559   6.032  11.619  0.00  0.00    +0.000 C 
ATOM     15  C   UNL     1      44.943   7.425  11.493  0.00  0.00    +0.000 C 
ATOM     16  C   UNL     1      44.414   6.475  12.515  0.00  0.00    +0.000 C 
BRANCH  14  17
ATOM     17  C   UNL     1      45.275   5.053  10.473  0.00  0.00    +0.000 A 
ATOM     18  C   UNL     1      45.788   5.258   9.187  0.00  0.00    +0.000 A 
ATOM     19  N   UNL     1      45.608   4.408   8.144  0.00  0.00    +0.000 NA
ATOM     20  C   UNL     1      44.875   3.312   8.428  0.00  0.00    +0.000 A 
ATOM     21  C   UNL     1      44.339   3.092   9.681  0.00  0.00    +0.000 A 
ATOM     22  N   UNL     1      44.518   3.946  10.717  0.00  0.00    +0.000 NA
ENDBRANCH  14  17
ENDBRANCH  12  14
ENDBRANCH   4  12
TORSDOF 4
ENDMDL
MODEL 7
REMARK VINA RESULT:    -5.449      4.468      7.670
REMARK INTER + INTRA:          -7.147
REMARK INTER:                  -6.721
REMARK INTRA:                  -0.426
REMARK UNBOUND:                -0.424
REMARK  Name = 
REMARK  4 active torsions:
REMARK  status: ('A' for Active; 'I' for Inactive)
REMARK    1  A    between atoms: C_2  and  C_4
REMARK    2  A    between atoms: C_7  and  N_8
REMARK    3  A    between atoms: N_8  and  C_9
REMARK    4  A    between atoms: C_9  and  C_10
REMARK                            x       y       z     vdW  Elec       q    Type
REMARK                         _______ _______ _______ _____ _____    ______ ____
ROOT
ATOM      1  C   UNL     1      48.047   4.975  17.520  0.00  0.00    +0.000 A 
ATOM      2  C   UNL     1      48.731   6.045  16.938  0.00  0.00    +0.000 A 
ATOM      3  C   UNL     1      48.611   6.301  15.565  0.00  0.00    +0.000 A 
ATOM      4  C   UNL     1      47.808   5.493  14.758  0.00  0.00    +0.000 A 
ATOM      5  C   UNL     1      47.105   4.437  15.357  0.00  0.00    +0.000 A 
ATOM      6  C   UNL     1      47.237   4.163  16.721  0.00  0.00    +0.000 A 
ENDROOT
BRANCH   1   8
ATOM      7  N   UNL     1      48.476   3.357  19.293  0.00  0.00    +0.000 N 
ATOM      8  C   UNL     1      48.165   4.650  18.964  0.00  0.00    +0.000 C 
ATOM      9  O   UNL     1      48.023   5.501  19.834  0.00  0.00    +0.000 OA
ATOM     10  H   UNL     1      48.654   3.178  20.272  0.00  0.00    +0.000 HD
ATOM     11  H   UNL     1      48.859   2.709  18.619  0.00  0.00    +0.000 HD
ENDBRANCH   1   8
BRANCH   4  12
ATOM     12  N   UNL     1      47.600   5.721  13.383  0.00  0.00    +0.000 N 
ATOM     13  H   UNL     1      47.773   4.867  12.851  0.00  0.00    +0.000 HD
BRANCH  12  14
ATOM     14  C   UNL     1      46.450   6.501  12.853  0.00  0.00    +0.000 C 
ATOM     15  C   UNL     1      46.865   7.603  11.880  0.00  0.00    +0.000 C 
ATOM     16  C   UNL     1      46.277   7.970  13.201  0.00  0.00    +0.000 C 
BRANCH  14  17
ATOM     17  C   UNL     1      45.218   5.674  12.465  0.00  0.00    +0.000 A 
ATOM     18  C   UNL     1      45.251   4.758  11.407  0.00  0.00    +0.000 A 
ATOM     19  N   UNL     1      44.208   3.969  11.043  0.00  0.00    +0.000 NA
ATOM     20  C   UNL     1      43.094   4.125  11.787  0.00  0.00    +0.000 A 
ATOM     21  C   UNL     1      43.024   5.034  12.824  0.00  0.00    +0.000 A 
ATOM     22  N   UNL     1      44.066   5.823  13.180  0.00  0.00    +0.000 NA
ENDBRANCH  14  17
ENDBRANCH  12  14
ENDBRANCH   4  12
TORSDOF 4
ENDMDL
