MODEL 1
REMARK VINA RESULT:    -8.106      0.000      0.000
REMARK INTER + INTRA:          -9.880
REMARK INTER:                  -9.528
REMARK INTRA:                  -0.352
REMARK UNBOUND:                -0.352
REMARK  Name = 
REMARK  3 active torsions:
REMARK  status: ('A' for Active; 'I' for Inactive)
REMARK    1  A    between atoms: C_2  and  C_4
REMARK    2  A    between atoms: N_8  and  C_9
REMARK    3  A    between atoms: C_9  and  C_10
REMARK                            x       y       z     vdW  Elec       q    Type
REMARK                         _______ _______ _______ _____ _____    ______ ____
ROOT
ATOM      1  C   UNL     1      46.445   2.492   7.676  0.00  0.00    +0.000 A 
ATOM      2  C   UNL     1      45.615   1.907   8.600  0.00  0.00    +0.000 A 
ATOM      3  N   UNL     1      44.735   2.598   9.355  0.00  0.00    +0.000 NA
ATOM      4  C   UNL     1      44.697   3.931   9.189  0.00  0.00    +0.000 A 
ATOM      5  N   UNL     1      43.814   4.692   9.935  0.00  0.00    +0.000 N 
ATOM      6  N   UNL     1      45.475   4.593   8.323  0.00  0.00    +0.000 NA
ATOM      7  C   UNL     1      46.339   3.860   7.584  0.00  0.00    +0.000 A 
ATOM      8  H   UNL     1      44.155   5.648   9.913  0.00  0.00    +0.000 HD
ENDROOT
BRANCH   1  10
ATOM      9  N   UNL     1      48.516   2.421   6.408  0.00  0.00    +0.000 N 
ATOM     10  C   UNL     1      47.416   1.748   6.863  0.00  0.00    +0.000 C 
ATOM     11  O   UNL     1      47.253   0.561   6.616  0.00  0.00    +0.000 OA
ATOM     12  H   UNL     1      49.206   1.867   5.915  0.00  0.00    +0.000 HD
ATOM     13  H   UNL     1      48.821   3.310   6.777  0.00  0.00    +0.000 HD
ENDBRANCH   1  10
BRANCH   5  14
ATOM     14  C   UNL     1      43.616   4.184  11.283  0.00  0.00    +0.000 C 
BRANCH  14  15
ATOM     15  C   UNL     1      44.778   4.602  12.160  0.00  0.00    +0.000 A 
ATOM     16  C   UNL     1      45.152   5.944  12.228  0.00  0.00    +0.000 A 
ATOM     17  C   UNL     1      46.251   6.297  13.005  0.00  0.00    +0.000 A 
ATOM     18  C   UNL     1      46.950   5.306  13.682  0.00  0.00    +0.000 A 
ATOM     19  C   UNL     1      46.519   3.996  13.555  0.00  0.00    +0.000 A 
ATOM     20  N   UNL     1      45.456   3.621  12.811  0.00  0.00    +0.000 NA
ENDBRANCH  14  15
ENDBRANCH   5  14
TORSDOF 3
ENDMDL
MODEL 2
REMARK VINA RESULT:    -7.308      2.891      5.992
REMARK INTER + INTRA:          -8.941
REMARK INTER:                  -8.568
REMARK INTRA:                  -0.373
REMARK UNBOUND:                -0.352
REMARK  Name = 
REMARK  3 active torsions:
REMARK  status: ('A' for Active; 'I' for Inactive)
REMARK    1  A    between atoms: C_2  and  C_4
REMARK    2  A    between atoms: N_8  and  C_9
REMARK    3  A    between atoms: C_9  and  C_10
REMARK                            x       y       z     vdW  Elec       q    Type
REMARK                         _______ _______ _______ _____ _____    ______ ____
ROOT
ATOM      1  C   UNL     1      46.722   5.155  13.665  0.00  0.00    +0.000 A 
ATOM      2  C   UNL     1      45.796   5.705  12.813  0.00  0.00    +0.000 A 
ATOM      3  N   UNL     1      44.980   4.974  12.025  0.00  0.00    +0.000 NA
ATOM      4  C   UNL     1      45.108   3.638  12.080  0.00  0.00    +0.000 A 
ATOM      5  N   UNL     1      44.298   2.836  11.296  0.00  0.00    +0.000 N 
ATOM      6  N   UNL     1      45.990   3.009  12.869  0.00  0.00    +0.000 NA
ATOM      7  C   UNL     1      46.784   3.781  13.645  0.00  0.00    +0.000 A 
ATOM      8  H   UNL     1      44.751   1.929  11.231  0.00  0.00    +0.000 HD
ENDROOT
BRANCH   1  10
ATOM      9  N   UNL     1      47.643   7.300  14.334  0.00  0.00    +0.000 N 
ATOM     10  C   UNL     1      47.624   5.945  14.513  0.00  0.00    +0.000 C 
ATOM     11  O   UNL     1      48.321   5.408  15.362  0.00  0.00    +0.000 OA
ATOM     12  H   UNL     1      48.216   7.828  14.982  0.00  0.00    +0.000 HD
ATOM     13  H   UNL     1      46.929   7.810  13.835  0.00  0.00    +0.000 HD
ENDBRANCH   1  10
BRANCH   5  14
ATOM     14  C   UNL     1      43.993   3.421  10.000  0.00  0.00    +0.000 C 
BRANCH  14  15
ATOM     15  C   UNL     1      45.076   3.049   9.008  0.00  0.00    +0.000 A 
ATOM     16  C   UNL     1      45.626   4.026   8.180  0.00  0.00    +0.000 A 
ATOM     17  C   UNL     1      46.588   3.651   7.246  0.00  0.00    +0.000 A 
ATOM     18  C   UNL     1      46.965   2.317   7.156  0.00  0.00    +0.000 A 
ATOM     19  C   UNL     1      46.363   1.407   8.010  0.00  0.00    +0.000 A 
ATOM     20  N   UNL     1      45.429   1.739   8.928  0.00  0.00    +0.000 NA
ENDBRANCH  14  15
ENDBRANCH   5  14
TORSDOF 3
ENDMDL
MODEL 3
REMARK VINA RESULT:    -7.149      3.032      6.112
REMARK INTER + INTRA:          -8.755
REMARK INTER:                  -8.408
REMARK INTRA:                  -0.347
REMARK UNBOUND:                -0.352
REMARK  Name = 
REMARK  3 active torsions:
REMARK  status: ('A' for Active; 'I' for Inactive)
REMARK    1  A    between atoms: C_2  and  C_4
REMARK    2  A    between atoms: N_8  and  C_9
REMARK    3  A    between atoms: C_9  and  C_10
REMARK                            x       y       z     vdW  Elec       q    Type
REMARK                         _______ _______ _______ _____ _____    ______ ____
ROOT
ATOM      1  C   UNL     1      45.373   6.696  12.402  0.00  0.00    +0.000 A 
ATOM      2  C   UNL     1      44.325   6.371  11.576  0.00  0.00    +0.000 A 
ATOM      3  N   UNL     1      44.097   5.123  11.117  0.00  0.00    +0.000 NA
ATOM      4  C   UNL     1      44.961   4.164  11.486  0.00  0.00    +0.000 A 
ATOM      5  N   UNL     1      44.777   2.865  11.047  0.00  0.00    +0.000 N 
ATOM      6  N   UNL     1      46.020   4.385  12.278  0.00  0.00    +0.000 NA
ATOM      7  C   UNL     1      46.208   5.650  12.718  0.00  0.00    +0.000 A 
ATOM      8  H   UNL     1      45.669   2.388  11.149  0.00  0.00    +0.000 HD
ENDROOT
BRANCH   1  10
ATOM      9  N   UNL     1      44.733   9.032  12.582  0.00  0.00    +0.000 N 
ATOM     10  C   UNL     1      45.638   8.055  12.892  0.00  0.00    +0.000 C 
ATOM     11  O   UNL     1      46.626   8.299  13.570  0.00  0.00    +0.000 OA
ATOM     12  H   UNL     1      44.900   9.942  12.995  0.00  0.00    +0.000 HD
ATOM     13  H   UNL     1      43.799   8.845  12.246  0.00  0.00    +0.000 HD
ENDBRANCH   1  10
BRANCH   5  14
ATOM     14  C   UNL     1      44.234   2.785   9.701  0.00  0.00    +0.000 C 
BRANCH  14  15
ATOM     15  C   UNL     1      45.360   2.580   8.709  0.00  0.00    +0.000 A 
ATOM     16  C   UNL     1      45.794   3.644   7.920  0.00  0.00    +0.000 A 
ATOM     17  C   UNL     1      46.800   3.420   6.985  0.00  0.00    +0.000 A 
ATOM     18  C   UNL     1      47.336   2.145   6.855  0.00  0.00    +0.000 A 
ATOM     19  C   UNL     1      46.843   1.140   7.672  0.00  0.00    +0.000 A 
ATOM     20  N   UNL     1      45.869   1.326   8.590  0.00  0.00    +0.000 NA
ENDBRANCH  14  15
ENDBRANCH   5  14
TORSDOF 3
ENDMDL
MODEL 4
REMARK VINA RESULT:    -6.325      3.253      6.316
REMARK INTER + INTRA:          -7.787
REMARK INTER:                  -7.671
REMARK INTRA:                  -0.115
REMARK UNBOUND:                -0.352
REMARK  Name = 
REMARK  3 active torsions:
REMARK  status: ('A' for Active; 'I' for Inactive)
REMARK    1  A    between atoms: C_2  and  C_4
REMARK    2  A    between atoms: N_8  and  C_9
REMARK    3  A    between atoms: C_9  and  C_10
REMARK                            x       y       z     vdW  Elec       q    Type
REMARK                         _______ _______ _______ _____ _____    ______ ____
ROOT
ATOM      1  C   UNL     1      46.855   7.314  13.080  0.00  0.00    +0.000 A 
ATOM      2  C   UNL     1      47.080   6.070  12.544  0.00  0.00    +0.000 A 
ATOM      3  N   UNL     1      46.285   5.505  11.612  0.00  0.00    +0.000 NA
ATOM      4  C   UNL     1      45.211   6.206  11.213  0.00  0.00    +0.000 A 
ATOM      5  N   UNL     1      44.359   5.677  10.260  0.00  0.00    +0.000 N 
ATOM      6  N   UNL     1      44.900   7.420  11.687  0.00  0.00    +0.000 NA
ATOM      7  C   UNL     1      45.728   7.951  12.617  0.00  0.00    +0.000 A 
ATOM      8  H   UNL     1      43.478   6.178  10.338  0.00  0.00    +0.000 HD
ENDROOT
BRANCH   1  10
ATOM      9  N   UNL     1      47.187   8.964  14.832  0.00  0.00    +0.000 N 
ATOM     10  C   UNL     1      47.707   7.929  14.106  0.00  0.00    +0.000 C 
ATOM     11  O   UNL     1      48.839   7.516  14.315  0.00  0.00    +0.000 OA
ATOM     12  H   UNL     1      47.767   9.319  15.582  0.00  0.00    +0.000 HD
ATOM     13  H   UNL     1      46.201   9.179  14.874  0.00  0.00    +0.000 HD
ENDBRANCH   1  10
BRANCH   5  14
ATOM     14  C   UNL     1      44.210   4.234  10.360  0.00  0.00    +0.000 C 
BRANCH  14  15
ATOM     15  C   UNL     1      45.023   3.563   9.272  0.00  0.00    +0.000 A 
ATOM     16  C   UNL     1      45.183   2.179   9.277  0.00  0.00    +0.000 A 
ATOM     17  C   UNL     1      45.971   1.590   8.293  0.00  0.00    +0.000 A 
ATOM     18  C   UNL     1      46.584   2.395   7.341  0.00  0.00    +0.000 A 
ATOM     19  C   UNL     1      46.381   3.763   7.411  0.00  0.00    +0.000 A 
ATOM     20  N   UNL     1      45.621   4.365   8.352  0.00  0.00    +0.000 NA
ENDBRANCH  14  15
ENDBRANCH   5  14
TORSDOF 3
ENDMDL
MODEL 5
REMARK VINA RESULT:    -6.263      3.845      6.028
REMARK INTER + INTRA:          -7.713
REMARK INTER:                  -7.491
REMARK INTRA:                  -0.222
REMARK UNBOUND:                -0.352
REMARK  Name = 
REMARK  3 active torsions:
REMARK  status: ('A' for Active; 'I' for Inactive)
REMARK    1  A    between atoms: C_2  and  C_4
REMARK    2  A    between atoms: N_8  and  C_9
REMARK    3  A    between atoms: C_9  and  C_10
REMARK                            x       y       z     vdW  Elec       q    Type
REMARK                         _______ _______ _______ _____ _____    ______ ____
ROOT
ATOM      1  C   UNL     1      44.368   4.828  12.004  0.00  0.00    +0.000 A 
ATOM      2  C   UNL     1      45.043   5.606  12.912  0.00  0.00    +0.000 A 
ATOM      3  N   UNL     1      45.999   5.130  13.737  0.00  0.00    +0.000 NA
ATOM      4  C   UNL     1      46.279   3.818  13.661  0.00  0.00    +0.000 A 
ATOM      5  N   UNL     1      47.250   3.273  14.482  0.00  0.00    +0.000 N 
ATOM      6  N   UNL     1      45.666   2.976  12.818  0.00  0.00    +0.000 NA
ATOM      7  C   UNL     1      44.717   3.498  12.006  0.00  0.00    +0.000 A 
ATOM      8  H   UNL     1      47.085   2.271  14.512  0.00  0.00    +0.000 HD
ENDROOT
BRANCH   1  10
ATOM      9  N   UNL     1      42.311   6.078  11.674  0.00  0.00    +0.000 N 
ATOM     10  C   UNL     1      43.315   5.336  11.115  0.00  0.00    +0.000 C 
ATOM     11  O   UNL     1      43.346   5.117   9.912  0.00  0.00    +0.000 OA
ATOM     12  H   UNL     1      41.641   6.479  11.029  0.00  0.00    +0.000 HD
ATOM     13  H   UNL     1      42.364   6.489  12.595  0.00  0.00    +0.000 HD
ENDBRANCH   1  10
BRANCH   5  14
ATOM     14  C   UNL     1      47.301   3.887  15.798  0.00  0.00    +0.000 C 
BRANCH  14  15
ATOM     15  C   UNL     1      48.600   3.516  16.482  0.00  0.00    +0.000 A 
ATOM     16  C   UNL     1      49.291   4.469  17.229  0.00  0.00    +0.000 A 
ATOM     17  C   UNL     1      50.505   4.116  17.811  0.00  0.00    +0.000 A 
ATOM     18  C   UNL     1      51.000   2.832  17.626  0.00  0.00    +0.000 A 
ATOM     19  C   UNL     1      50.256   1.946  16.863  0.00  0.00    +0.000 A 
ATOM     20  N   UNL     1      49.074   2.257  16.286  0.00  0.00    +0.000 NA
ENDBRANCH  14  15
ENDBRANCH   5  14
TORSDOF 3
ENDMDL
MODEL 6
REMARK VINA RESULT:    -6.249      2.866      6.146
REMARK INTER + INTRA:          -7.697
REMARK INTER:                  -7.650
REMARK INTRA:                  -0.047
REMARK UNBOUND:                -0.352
REMARK  Name = 
REMARK  3 active torsions:
REMARK  status: ('A' for Active; 'I' for Inactive)
REMARK    1  A    between atoms: C_2  and  C_4
REMARK    2  A    between atoms: N_8  and  C_9
REMARK    3  A    between atoms: C_9  and  C_10
REMARK                            x       y       z     vdW  Elec       q    Type
REMARK                         _______ _______ _______ _____ _____    ______ ____
ROOT
ATOM      1  C   UNL     1      46.749   4.759  14.056  0.00  0.00    +0.000 A 
ATOM      2  C   UNL     1      46.588   3.765  13.122  0.00  0.00    +0.000 A 
ATOM      3  N   UNL     1      46.010   3.958  11.919  0.00  0.00    +0.000 NA
ATOM      4  C   UNL     1      45.558   5.193  11.645  0.00  0.00    +0.000 A 
ATOM      5  N   UNL     1      44.956   5.451  10.427  0.00  0.00    +0.000 N 
ATOM      6  N   UNL     1      45.656   6.224  12.496  0.00  0.00    +0.000 NA
ATOM      7  C   UNL     1      46.247   5.985  13.689  0.00  0.00    +0.000 A 
ATOM      8  H   UNL     1      44.411   6.301  10.539  0.00  0.00    +0.000 HD
ENDROOT
BRANCH   1  10
ATOM      9  N   UNL     1      46.896   3.519  16.140  0.00  0.00    +0.000 N 
ATOM     10  C   UNL     1      47.363   4.551  15.374  0.00  0.00    +0.000 C 
ATOM     11  O   UNL     1      48.273   5.269  15.764  0.00  0.00    +0.000 OA
ATOM     12  H   UNL     1      47.387   3.352  17.010  0.00  0.00    +0.000 HD
ATOM     13  H   UNL     1      46.334   2.762  15.778  0.00  0.00    +0.000 HD
ENDBRANCH   1  10
BRANCH   5  14
ATOM     14  C   UNL     1      44.176   4.333   9.922  0.00  0.00    +0.000 C 
BRANCH  14  15
ATOM     15  C   UNL     1      45.005   3.541   8.932  0.00  0.00    +0.000 A 
ATOM     16  C   UNL     1      45.200   2.174   9.123  0.00  0.00    +0.000 A 
ATOM     17  C   UNL     1      46.002   1.478   8.224  0.00  0.00    +0.000 A 
ATOM     18  C   UNL     1      46.593   2.162   7.169  0.00  0.00    +0.000 A 
ATOM     19  C   UNL     1      46.356   3.522   7.055  0.00  0.00    +0.000 A 
ATOM     20  N   UNL     1      45.581   4.226   7.909  0.00  0.00    +0.000 NA
ENDBRANCH  14  15
ENDBRANCH   5  14
TORSDOF 3
ENDMDL
MODEL 7
REMARK VINA RESULT:    -5.999      3.223      4.943
REMARK INTER + INTRA:          -7.403
REMARK INTER:                  -7.195
REMARK INTRA:                  -0.208
REMARK UNBOUND:                -0.352
REMARK  Name = 
REMARK  3 active torsions:
REMARK  status: ('A' for Active; 'I' for Inactive)
REMARK    1  A    between atoms: C_2  and  C_4
REMARK    2  A    between atoms: N_8  and  C_9
REMARK    3  A    between atoms: C_9  and  C_10
REMARK                            x       y       z     vdW  Elec       q    Type
REMARK                         _______ _______ _______ _____ _____    ______ ____
ROOT
ATOM      1  C   UNL     1      44.961   3.941  10.961  0.00  0.00    +0.000 A 
ATOM      2  C   UNL     1      44.954   3.155  12.087  0.00  0.00    +0.000 A 
ATOM      3  N   UNL     1      45.474   3.543  13.270  0.00  0.00    +0.000 NA
ATOM      4  C   UNL     1      46.039   4.760  13.324  0.00  0.00    +0.000 A 
ATOM      5  N   UNL     1      46.588   5.212  14.510  0.00  0.00    +0.000 N 
ATOM      6  N   UNL     1      46.106   5.594  12.276  0.00  0.00    +0.000 NA
ATOM      7  C   UNL     1      45.568   5.165  11.111  0.00  0.00    +0.000 A 
ATOM      8  H   UNL     1      47.227   5.966  14.273  0.00  0.00    +0.000 HD
ENDROOT
BRANCH   1  10
ATOM      9  N   UNL     1      44.023   4.494   8.789  0.00  0.00    +0.000 N 
ATOM     10  C   UNL     1      44.411   3.519   9.666  0.00  0.00    +0.000 C 
ATOM     11  O   UNL     1      44.321   2.334   9.376  0.00  0.00    +0.000 OA
ATOM     12  H   UNL     1      43.719   4.178   7.877  0.00  0.00    +0.000 HD
ATOM     13  H   UNL     1      44.296   5.463   8.871  0.00  0.00    +0.000 HD
ENDBRANCH   1  10
BRANCH   5  14
ATOM     14  C   UNL     1      47.210   4.158  15.294  0.00  0.00    +0.000 C 
BRANCH  14  15
ATOM     15  C   UNL     1      47.904   4.761  16.498  0.00  0.00    +0.000 A 
ATOM     16  C   UNL     1      47.346   4.618  17.767  0.00  0.00    +0.000 A 
ATOM     17  C   UNL     1      47.979   5.219  18.851  0.00  0.00    +0.000 A 
ATOM     18  C   UNL     1      49.141   5.951  18.639  0.00  0.00    +0.000 A 
ATOM     19  C   UNL     1      49.626   6.052  17.345  0.00  0.00    +0.000 A 
ATOM     20  N   UNL     1      49.036   5.479  16.273  0.00  0.00    +0.000 NA
ENDBRANCH  14  15
ENDBRANCH   5  14
TORSDOF 3
ENDMDL
MODEL 8
REMARK VINA RESULT:    -5.839      4.462      7.582
REMARK INTER + INTRA:          -7.215
REMARK INTER:                  -6.980
REMARK INTRA:                  -0.235
REMARK UNBOUND:                -0.352
REMARK  Name = 
REMARK  3 active torsions:
REMARK  status: ('A' for Active; 'I' for Inactive)
REMARK    1  A    between atoms: C_2  and  C_4
REMARK    2  A    between atoms: N_8  and  C_9
REMARK    3  A    between atoms: C_9  and  C_10
REMARK                            x       y       z     vdW  Elec       q    Type
REMARK                         _______ _______ _______ _____ _____    ______ ____
ROOT
ATOM      1  C   UNL     1      48.353   4.453  17.209  0.00  0.00    +0.000 A 
ATOM      2  C   UNL     1      47.419   3.659  16.591  0.00  0.00    +0.000 A 
ATOM      3  N   UNL     1      46.918   3.914  15.364  0.00  0.00    +0.000 NA
ATOM      4  C   UNL     1      47.357   5.018  14.738  0.00  0.00    +0.000 A 
ATOM      5  N   UNL     1      46.879   5.331  13.478  0.00  0.00    +0.000 N 
ATOM      6  N   UNL     1      48.256   5.861  15.264  0.00  0.00    +0.000 NA
ATOM      7  C   UNL     1      48.735   5.564  16.494  0.00  0.00    +0.000 A 
ATOM      8  H   UNL     1      47.063   6.319  13.327  0.00  0.00    +0.000 HD
ENDROOT
BRANCH   1  10
ATOM      9  N   UNL     1      48.303   3.203  19.291  0.00  0.00    +0.000 N 
ATOM     10  C   UNL     1      48.891   4.190  18.550  0.00  0.00    +0.000 C 
ATOM     11  O   UNL     1      49.844   4.823  18.982  0.00  0.00    +0.000 OA
ATOM     12  H   UNL     1      48.740   2.991  20.180  0.00  0.00    +0.000 HD
ATOM     13  H   UNL     1      47.691   2.499  18.902  0.00  0.00    +0.000 HD
ENDBRANCH   1  10
BRANCH   5  14
ATOM     14  C   UNL     1      45.484   4.971  13.287  0.00  0.00    +0.000 C 
BRANCH  14  15
ATOM     15  C   UNL     1      45.263   4.536  11.853  0.00  0.00    +0.000 A 
ATOM     16  C   UNL     1      45.588   5.398  10.806  0.00  0.00    +0.000 A 
ATOM     17  C   UNL     1      45.334   4.993   9.499  0.00  0.00    +0.000 A 
ATOM     18  C   UNL     1      44.757   3.750   9.272  0.00  0.00    +0.000 A 
ATOM     19  C   UNL     1      44.456   2.957  10.368  0.00  0.00    +0.000 A 
ATOM     20  N   UNL     1      44.691   3.320  11.648  0.00  0.00    +0.000 NA
ENDBRANCH  14  15
ENDBRANCH   5  14
TORSDOF 3
ENDMDL
MODEL 9
REMARK VINA RESULT:    -5.709      4.889      8.177
REMARK INTER + INTRA:          -7.062
REMARK INTER:                  -6.841
REMARK INTRA:                  -0.221
REMARK UNBOUND:                -0.352
REMARK  Name = 
REMARK  3 active torsions:
REMARK  status: ('A' for Active; 'I' for Inactive)
REMARK    1  A    between atoms: C_2  and  C_4
REMARK    2  A    between atoms: N_8  and  C_9
REMARK    3  A    between atoms: C_9  and  C_10
REMARK                            x       y       z     vdW  Elec       q    Type
REMARK                         _______ _______ _______ _____ _____    ______ ____
ROOT
ATOM      1  C   UNL     1      48.995   4.421  17.939  0.00  0.00    +0.000 A 
ATOM      2  C   UNL     1      49.087   5.227  16.831  0.00  0.00    +0.000 A 
ATOM      3  N   UNL     1      48.178   5.233  15.834  0.00  0.00    +0.000 NA
ATOM      4  C   UNL     1      47.141   4.385  15.943  0.00  0.00    +0.000 A 
ATOM      5  N   UNL     1      46.176   4.346  14.952  0.00  0.00    +0.000 N 
ATOM      6  N   UNL     1      46.971   3.551  16.978  0.00  0.00    +0.000 NA
ATOM      7  C   UNL     1      47.905   3.583  17.957  0.00  0.00    +0.000 A 
ATOM      8  H   UNL     1      45.691   3.458  15.045  0.00  0.00    +0.000 HD
ENDROOT
BRANCH   1  10
ATOM      9  N   UNL     1      49.533   4.323  20.305  0.00  0.00    +0.000 N 
ATOM     10  C   UNL     1      49.990   4.399  19.019  0.00  0.00    +0.000 C 
ATOM     11  O   UNL     1      51.187   4.429  18.773  0.00  0.00    +0.000 OA
ATOM     12  H   UNL     1      50.240   4.233  21.025  0.00  0.00    +0.000 HD
ATOM     13  H   UNL     1      48.592   4.052  20.551  0.00  0.00    +0.000 HD
ENDBRANCH   1  10
BRANCH   5  14
ATOM     14  C   UNL     1      46.712   4.571  13.620  0.00  0.00    +0.000 C 
BRANCH  14  15
ATOM     15  C   UNL     1      45.627   4.335  12.590  0.00  0.00    +0.000 A 
ATOM     16  C   UNL     1      45.495   5.202  11.507  0.00  0.00    +0.000 A 
ATOM     17  C   UNL     1      44.463   4.990  10.598  0.00  0.00    +0.000 A 
ATOM     18  C   UNL     1      43.588   3.929  10.798  0.00  0.00    +0.000 A 
ATOM     19  C   UNL     1      43.783   3.119  11.904  0.00  0.00    +0.000 A 
ATOM     20  N   UNL     1      44.776   3.297  12.803  0.00  0.00    +0.000 NA
ENDBRANCH  14  15
ENDBRANCH   5  14
TORSDOF 3
ENDMDL
