MODEL 1
REMARK VINA RESULT:    -9.056      0.000      0.000
REMARK INTER + INTRA:         -13.788
REMARK INTER:                 -12.762
REMARK INTRA:                  -1.026
REMARK UNBOUND:                -1.026
REMARK  Name = 
REMARK  8 active torsions:
REMARK  status: ('A' for Active; 'I' for Inactive)
REMARK    1  A    between atoms: C_1  and  C_2
REMARK    2  A    between atoms: C_2  and  N_3
REMARK    3  A    between atoms: C_2  and  C_25
REMARK    4  A    between atoms: N_3  and  C_4
REMARK    5  A    between atoms: C_4  and  C_5
REMARK    6  A    between atoms: C_8  and  C_9
REMARK    7  A    between atoms: C_9  and  N_10
REMARK    8  A    between atoms: C_11  and  C_13
REMARK                            x       y       z     vdW  Elec       q    Type
REMARK                         _______ _______ _______ _____ _____    ______ ____
ROOT
ATOM      1  C   UNL     1      45.237   6.219  11.015  0.00  0.00    +0.000 C 
ATOM      2  C   UNL     1      44.255   5.710  12.073  0.00  0.00    +0.000 C 
ATOM      3  C   UNL     1      44.902   4.704  13.019  0.00  0.00    +0.000 C 
ATOM      4  C   UNL     1      46.165   5.261  13.699  0.00  0.00    +0.000 C 
ATOM      5  C   UNL     1      47.146   5.852  12.671  0.00  0.00    +0.000 C 
ATOM      6  C   UNL     1      46.464   6.830  11.713  0.00  0.00    +0.000 C 
ENDROOT
BRANCH   1   7
ATOM      7  C   UNL     1      45.651   5.098  10.036  0.00  0.00    +0.000 C 
BRANCH   7   8
ATOM      8  N   UNL     1      44.594   4.799   9.070  0.00  0.00    +0.000 NA
ATOM      9  H   UNL     1      43.706   5.178   9.398  0.00  0.00    +0.000 HD
BRANCH   8  11
ATOM     10  C   UNL     1      44.309   2.603  10.229  0.00  0.00    +0.000 C 
ATOM     11  C   UNL     1      44.394   3.344   8.894  0.00  0.00    +0.000 C 
BRANCH  11  12
ATOM     12  C   UNL     1      45.532   2.753   8.067  0.00  0.00    +0.000 A 
ATOM     13  C   UNL     1      46.044   3.456   6.971  0.00  0.00    +0.000 A 
ATOM     14  C   UNL     1      47.042   2.872   6.197  0.00  0.00    +0.000 A 
ATOM     15  C   UNL     1      47.505   1.609   6.540  0.00  0.00    +0.000 A 
ATOM     16  C   UNL     1      46.962   0.986   7.650  0.00  0.00    +0.000 A 
ATOM     17  N   UNL     1      45.991   1.524   8.419  0.00  0.00    +0.000 NA
ENDBRANCH  11  12
ENDBRANCH   8  11
ENDBRANCH   7   8
ENDBRANCH   1   7
BRANCH   4  18
ATOM     18  C   UNL     1      46.876   4.183  14.535  0.00  0.00    +0.000 C 
BRANCH  18  19
ATOM     19  N   UNL     1      47.447   4.722  15.749  0.00  0.00    +0.000 N 
ATOM     20  C   UNL     1      47.139   4.204  16.988  0.00  0.00    +0.000 C 
ATOM     21  O   UNL     1      46.413   3.223  17.135  0.00  0.00    +0.000 OA
ATOM     22  H   UNL     1      47.735   5.698  15.725  0.00  0.00    +0.000 HD
BRANCH  20  23
ATOM     23  C   UNL     1      47.810   4.836  18.126  0.00  0.00    +0.000 A 
ATOM     24  C   UNL     1      47.130   5.740  18.924  0.00  0.00    +0.000 A 
ATOM     25  S   UNL     1      48.072   6.350  20.211  0.00  0.00    +0.000 S 
ATOM     26  C   UNL     1      49.434   5.452  19.720  0.00  0.00    +0.000 A 
ATOM     27  N   UNL     1      50.612   5.537  20.380  0.00  0.00    +0.000 NA
ATOM     28  C   UNL     1      51.561   4.814  19.880  0.00  0.00    +0.000 A 
ATOM     29  N   UNL     1      51.431   4.007  18.778  0.00  0.00    +0.000 N 
ATOM     30  C   UNL     1      50.261   3.901  18.074  0.00  0.00    +0.000 A 
ATOM     31  O   UNL     1      50.174   3.169  17.083  0.00  0.00    +0.000 OA
ATOM     32  C   UNL     1      49.164   4.685  18.596  0.00  0.00    +0.000 A 
ATOM     33  H   UNL     1      52.210   3.465  18.437  0.00  0.00    +0.000 HD
ENDBRANCH  20  23
ENDBRANCH  18  19
ENDBRANCH   4  18
TORSDOF 7
ENDMDL
MODEL 2
REMARK VINA RESULT:    -8.210      1.966      2.421
REMARK INTER + INTRA:         -12.595
REMARK INTER:                 -11.453
REMARK INTRA:                  -1.143
REMARK UNBOUND:                -1.026
REMARK  Name = 
REMARK  8 active torsions:
REMARK  status: ('A' for Active; 'I' for Inactive)
REMARK    1  A    between atoms: C_1  and  C_2
REMARK    2  A    between atoms: C_2  and  N_3
REMARK    3  A    between atoms: C_2  and  C_25
REMARK    4  A    between atoms: N_3  and  C_4
REMARK    5  A    between atoms: C_4  and  C_5
REMARK    6  A    between atoms: C_8  and  C_9
REMARK    7  A    between atoms: C_9  and  N_10
REMARK    8  A    between atoms: C_11  and  C_13
REMARK                            x       y       z     vdW  Elec       q    Type
REMARK                         _______ _______ _______ _____ _____    ______ ____
ROOT
ATOM      1  C   UNL     1      45.341   6.271  11.112  0.00  0.00    +0.000 C 
ATOM      2  C   UNL     1      44.387   5.760  12.194  0.00  0.00    +0.000 C 
ATOM      3  C   UNL     1      45.080   4.814  13.168  0.00  0.00    +0.000 C 
ATOM      4  C   UNL     1      46.324   5.444  13.820  0.00  0.00    +0.000 C 
ATOM      5  C   UNL     1      47.274   6.039  12.765  0.00  0.00    +0.000 C 
ATOM      6  C   UNL     1      46.546   6.955  11.780  0.00  0.00    +0.000 C 
ENDROOT
BRANCH   1   7
ATOM      7  C   UNL     1      45.795   5.136  10.169  0.00  0.00    +0.000 C 
BRANCH   7   8
ATOM      8  N   UNL     1      44.924   5.017   8.998  0.00  0.00    +0.000 NA
ATOM      9  H   UNL     1      44.059   5.534   9.155  0.00  0.00    +0.000 HD
BRANCH   8  11
ATOM     10  C   UNL     1      44.234   2.840  10.013  0.00  0.00    +0.000 C 
ATOM     11  C   UNL     1      44.537   3.615   8.730  0.00  0.00    +0.000 C 
BRANCH  11  12
ATOM     12  C   UNL     1      45.647   2.900   7.965  0.00  0.00    +0.000 A 
ATOM     13  C   UNL     1      46.252   3.516   6.865  0.00  0.00    +0.000 A 
ATOM     14  C   UNL     1      47.222   2.823   6.147  0.00  0.00    +0.000 A 
ATOM     15  C   UNL     1      47.563   1.538   6.549  0.00  0.00    +0.000 A 
ATOM     16  C   UNL     1      46.933   1.005   7.659  0.00  0.00    +0.000 A 
ATOM     17  N   UNL     1      45.987   1.651   8.374  0.00  0.00    +0.000 NA
ENDBRANCH  11  12
ENDBRANCH   8  11
ENDBRANCH   7   8
ENDBRANCH   1   7
BRANCH   4  18
ATOM     18  C   UNL     1      47.083   4.425  14.687  0.00  0.00    +0.000 C 
BRANCH  18  19
ATOM     19  N   UNL     1      47.189   4.852  16.064  0.00  0.00    +0.000 N 
ATOM     20  C   UNL     1      48.361   5.367  16.575  0.00  0.00    +0.000 C 
ATOM     21  O   UNL     1      49.361   5.550  15.885  0.00  0.00    +0.000 OA
ATOM     22  H   UNL     1      46.562   4.409  16.731  0.00  0.00    +0.000 HD
BRANCH  20  23
ATOM     23  C   UNL     1      48.315   5.779  17.979  0.00  0.00    +0.000 A 
ATOM     24  C   UNL     1      48.267   4.829  18.985  0.00  0.00    +0.000 A 
ATOM     25  S   UNL     1      48.242   5.503  20.553  0.00  0.00    +0.000 S 
ATOM     26  C   UNL     1      48.257   7.091  19.938  0.00  0.00    +0.000 A 
ATOM     27  N   UNL     1      48.215   8.168  20.756  0.00  0.00    +0.000 NA
ATOM     28  C   UNL     1      48.212   9.307  20.144  0.00  0.00    +0.000 A 
ATOM     29  N   UNL     1      48.254   9.464  18.782  0.00  0.00    +0.000 N 
ATOM     30  C   UNL     1      48.284   8.402  17.917  0.00  0.00    +0.000 A 
ATOM     31  O   UNL     1      48.317   8.572  16.695  0.00  0.00    +0.000 OA
ATOM     32  C   UNL     1      48.296   7.102  18.551  0.00  0.00    +0.000 A 
ATOM     33  H   UNL     1      48.250  10.381  18.365  0.00  0.00    +0.000 HD
ENDBRANCH  20  23
ENDBRANCH  18  19
ENDBRANCH   4  18
TORSDOF 7
ENDMDL
MODEL 3
REMARK VINA RESULT:    -7.919      1.912      2.444
REMARK INTER + INTRA:         -12.185
REMARK INTER:                 -11.187
REMARK INTRA:                  -0.998
REMARK UNBOUND:                -1.026
REMARK  Name = 
REMARK  8 active torsions:
REMARK  status: ('A' for Active; 'I' for Inactive)
REMARK    1  A    between atoms: C_1  and  C_2
REMARK    2  A    between atoms: C_2  and  N_3
REMARK    3  A    between atoms: C_2  and  C_25
REMARK    4  A    between atoms: N_3  and  C_4
REMARK    5  A    between atoms: C_4  and  C_5
REMARK    6  A    between atoms: C_8  and  C_9
REMARK    7  A    between atoms: C_9  and  N_10
REMARK    8  A    between atoms: C_11  and  C_13
REMARK                            x       y       z     vdW  Elec       q    Type
REMARK                         _______ _______ _______ _____ _____    ______ ____
ROOT
ATOM      1  C   UNL     1      44.353   5.584  11.400  0.00  0.00    +0.000 C 
ATOM      2  C   UNL     1      44.761   5.141  12.807  0.00  0.00    +0.000 C 
ATOM      3  C   UNL     1      46.097   5.741  13.232  0.00  0.00    +0.000 C 
ATOM      4  C   UNL     1      46.110   7.277  13.141  0.00  0.00    +0.000 C 
ATOM      5  C   UNL     1      45.632   7.766  11.762  0.00  0.00    +0.000 C 
ATOM      6  C   UNL     1      44.309   7.121  11.344  0.00  0.00    +0.000 C 
ENDROOT
BRANCH   1   7
ATOM      7  C   UNL     1      45.303   5.014  10.324  0.00  0.00    +0.000 C 
BRANCH   7   8
ATOM      8  N   UNL     1      44.600   4.719   9.075  0.00  0.00    +0.000 NA
ATOM      9  H   UNL     1      43.667   5.129   9.098  0.00  0.00    +0.000 HD
BRANCH   8  11
ATOM     10  C   UNL     1      44.275   2.502  10.181  0.00  0.00    +0.000 C 
ATOM     11  C   UNL     1      44.420   3.267   8.864  0.00  0.00    +0.000 C 
BRANCH  11  12
ATOM     12  C   UNL     1      45.602   2.698   8.085  0.00  0.00    +0.000 A 
ATOM     13  C   UNL     1      46.224   3.463   7.093  0.00  0.00    +0.000 A 
ATOM     14  C   UNL     1      47.262   2.903   6.355  0.00  0.00    +0.000 A 
ATOM     15  C   UNL     1      47.654   1.599   6.630  0.00  0.00    +0.000 A 
ATOM     16  C   UNL     1      47.002   0.914   7.641  0.00  0.00    +0.000 A 
ATOM     17  N   UNL     1      45.990   1.428   8.372  0.00  0.00    +0.000 NA
ENDBRANCH  11  12
ENDBRANCH   8  11
ENDBRANCH   7   8
ENDBRANCH   1   7
BRANCH   4  18
ATOM     18  C   UNL     1      47.508   7.847  13.438  0.00  0.00    +0.000 C 
BRANCH  18  19
ATOM     19  N   UNL     1      47.964   7.508  14.767  0.00  0.00    +0.000 N 
ATOM     20  C   UNL     1      49.264   7.122  15.012  0.00  0.00    +0.000 C 
ATOM     21  O   UNL     1      50.124   7.098  14.134  0.00  0.00    +0.000 OA
ATOM     22  H   UNL     1      47.261   7.169  15.420  0.00  0.00    +0.000 HD
BRANCH  20  23
ATOM     23  C   UNL     1      49.589   6.831  16.409  0.00  0.00    +0.000 A 
ATOM     24  C   UNL     1      50.425   7.672  17.123  0.00  0.00    +0.000 A 
ATOM     25  S   UNL     1      50.665   7.178  18.739  0.00  0.00    +0.000 S 
ATOM     26  C   UNL     1      49.687   5.800  18.528  0.00  0.00    +0.000 A 
ATOM     27  N   UNL     1      49.492   4.910  19.529  0.00  0.00    +0.000 NA
ATOM     28  C   UNL     1      48.742   3.904  19.214  0.00  0.00    +0.000 A 
ATOM     29  N   UNL     1      48.165   3.713  17.984  0.00  0.00    +0.000 N 
ATOM     30  C   UNL     1      48.346   4.581  16.940  0.00  0.00    +0.000 A 
ATOM     31  O   UNL     1      47.818   4.382  15.842  0.00  0.00    +0.000 OA
ATOM     32  C   UNL     1      49.172   5.730  17.241  0.00  0.00    +0.000 A 
ATOM     33  H   UNL     1      47.589   2.907  17.801  0.00  0.00    +0.000 HD
ENDBRANCH  20  23
ENDBRANCH  18  19
ENDBRANCH   4  18
TORSDOF 7
ENDMDL
MODEL 4
REMARK VINA RESULT:    -7.768      2.330      3.367
REMARK INTER + INTRA:         -11.973
REMARK INTER:                 -10.345
REMARK INTRA:                  -1.628
REMARK UNBOUND:                -1.026
REMARK  Name = 
REMARK  8 active torsions:
REMARK  status: ('A' for Active; 'I' for Inactive)
REMARK    1  A    between atoms: C_1  and  C_2
REMARK    2  A    between atoms: C_2  and  N_3
REMARK    3  A    between atoms: C_2  and  C_25
REMARK    4  A    between atoms: N_3  and  C_4
REMARK    5  A    between atoms: C_4  and  C_5
REMARK    6  A    between atoms: C_8  and  C_9
REMARK    7  A    between atoms: C_9  and  N_10
REMARK    8  A    between atoms: C_11  and  C_13
REMARK                            x       y       z     vdW  Elec       q    Type
REMARK                         _______ _______ _______ _____ _____    ______ ____
ROOT
ATOM      1  C   UNL     1      45.445   7.050  11.801  0.00  0.00    +0.000 C 
ATOM      2  C   UNL     1      45.266   8.470  12.344  0.00  0.00    +0.000 C 
ATOM      3  C   UNL     1      46.343   8.835  13.360  0.00  0.00    +0.000 C 
ATOM      4  C   UNL     1      47.766   8.662  12.800  0.00  0.00    +0.000 C 
ATOM      5  C   UNL     1      47.962   7.270  12.175  0.00  0.00    +0.000 C 
ATOM      6  C   UNL     1      46.849   6.915  11.187  0.00  0.00    +0.000 C 
ENDROOT
BRANCH   1   7
ATOM      7  C   UNL     1      45.209   5.987  12.896  0.00  0.00    +0.000 C 
BRANCH   7   8
ATOM      8  N   UNL     1      45.404   4.628  12.388  0.00  0.00    +0.000 NA
ATOM      9  H   UNL     1      46.274   4.578  11.858  0.00  0.00    +0.000 HD
BRANCH   8  11
ATOM     10  C   UNL     1      43.435   3.123  12.069  0.00  0.00    +0.000 C 
ATOM     11  C   UNL     1      44.322   4.215  11.468  0.00  0.00    +0.000 C 
BRANCH  11  12
ATOM     12  C   UNL     1      44.912   3.712  10.154  0.00  0.00    +0.000 A 
ATOM     13  C   UNL     1      45.322   4.621   9.174  0.00  0.00    +0.000 A 
ATOM     14  C   UNL     1      45.803   4.140   7.961  0.00  0.00    +0.000 A 
ATOM     15  C   UNL     1      45.868   2.767   7.762  0.00  0.00    +0.000 A 
ATOM     16  C   UNL     1      45.462   1.932   8.788  0.00  0.00    +0.000 A 
ATOM     17  N   UNL     1      44.988   2.368   9.974  0.00  0.00    +0.000 NA
ENDBRANCH  11  12
ENDBRANCH   8  11
ENDBRANCH   7   8
ENDBRANCH   1   7
BRANCH   4  18
ATOM     18  C   UNL     1      48.830   8.900  13.885  0.00  0.00    +0.000 C 
BRANCH  18  19
ATOM     19  N   UNL     1      48.689   7.987  14.998  0.00  0.00    +0.000 N 
ATOM     20  C   UNL     1      49.756   7.260  15.480  0.00  0.00    +0.000 C 
ATOM     21  O   UNL     1      50.896   7.384  15.037  0.00  0.00    +0.000 OA
ATOM     22  H   UNL     1      47.765   7.589  15.148  0.00  0.00    +0.000 HD
BRANCH  20  23
ATOM     23  C   UNL     1      49.470   6.394  16.624  0.00  0.00    +0.000 A 
ATOM     24  C   UNL     1      50.068   6.633  17.849  0.00  0.00    +0.000 A 
ATOM     25  S   UNL     1      49.592   5.530  19.062  0.00  0.00    +0.000 S 
ATOM     26  C   UNL     1      48.597   4.672  17.979  0.00  0.00    +0.000 A 
ATOM     27  N   UNL     1      47.909   3.573  18.367  0.00  0.00    +0.000 NA
ATOM     28  C   UNL     1      47.213   3.016  17.430  0.00  0.00    +0.000 A 
ATOM     29  N   UNL     1      47.139   3.468  16.137  0.00  0.00    +0.000 N 
ATOM     30  C   UNL     1      47.827   4.568  15.698  0.00  0.00    +0.000 A 
ATOM     31  O   UNL     1      47.745   4.950  14.527  0.00  0.00    +0.000 OA
ATOM     32  C   UNL     1      48.618   5.234  16.710  0.00  0.00    +0.000 A 
ATOM     33  H   UNL     1      46.576   2.989  15.452  0.00  0.00    +0.000 HD
ENDBRANCH  20  23
ENDBRANCH  18  19
ENDBRANCH   4  18
TORSDOF 7
ENDMDL
MODEL 5
REMARK VINA RESULT:    -7.649      2.474      3.420
REMARK INTER + INTRA:         -11.805
REMARK INTER:                 -10.599
REMARK INTRA:                  -1.206
REMARK UNBOUND:                -1.026
REMARK  Name = 
REMARK  8 active torsions:
REMARK  status: ('A' for Active; 'I' for Inactive)
REMARK    1  A    between atoms: C_1  and  C_2
REMARK    2  A    between atoms: C_2  and  N_3
REMARK    3  A    between atoms: C_2  and  C_25
REMARK    4  A    between atoms: N_3  and  C_4
REMARK    5  A    between atoms: C_4  and  C_5
REMARK    6  A    between atoms: C_8  and  C_9
REMARK    7  A    between atoms: C_9  and  N_10
REMARK    8  A    between atoms: C_11  and  C_13
REMARK                            x       y       z     vdW  Elec       q    Type
REMARK                         _______ _______ _______ _____ _____    ______ ____
ROOT
ATOM      1  C   UNL     1      46.289   6.466  11.810  0.00  0.00    +0.000 C 
ATOM      2  C   UNL     1      47.340   7.571  11.934  0.00  0.00    +0.000 C 
ATOM      3  C   UNL     1      47.687   7.871  13.388  0.00  0.00    +0.000 C 
ATOM      4  C   UNL     1      48.146   6.620  14.157  0.00  0.00    +0.000 C 
ATOM      5  C   UNL     1      47.149   5.459  13.994  0.00  0.00    +0.000 C 
ATOM      6  C   UNL     1      46.792   5.202  12.528  0.00  0.00    +0.000 C 
ENDROOT
BRANCH   1   7
ATOM      7  C   UNL     1      44.920   6.916  12.365  0.00  0.00    +0.000 C 
BRANCH   7   8
ATOM      8  N   UNL     1      43.865   6.829  11.354  0.00  0.00    +0.000 NA
ATOM      9  H   UNL     1      43.215   7.607  11.464  0.00  0.00    +0.000 HD
BRANCH   8  11
ATOM     10  C   UNL     1      42.984   5.102  12.930  0.00  0.00    +0.000 C 
ATOM     11  C   UNL     1      43.069   5.590  11.483  0.00  0.00    +0.000 C 
BRANCH  11  12
ATOM     12  C   UNL     1      43.671   4.486  10.619  0.00  0.00    +0.000 A 
ATOM     13  C   UNL     1      44.286   4.801   9.404  0.00  0.00    +0.000 A 
ATOM     14  C   UNL     1      44.777   3.773   8.605  0.00  0.00    +0.000 A 
ATOM     15  C   UNL     1      44.644   2.462   9.042  0.00  0.00    +0.000 A 
ATOM     16  C   UNL     1      44.040   2.232  10.265  0.00  0.00    +0.000 A 
ATOM     17  N   UNL     1      43.552   3.207  11.062  0.00  0.00    +0.000 NA
ENDBRANCH  11  12
ENDBRANCH   8  11
ENDBRANCH   7   8
ENDBRANCH   1   7
BRANCH   4  18
ATOM     18  C   UNL     1      48.352   6.922  15.652  0.00  0.00    +0.000 C 
BRANCH  18  19
ATOM     19  N   UNL     1      49.508   6.240  16.192  0.00  0.00    +0.000 N 
ATOM     20  C   UNL     1      49.402   5.357  17.244  0.00  0.00    +0.000 C 
ATOM     21  O   UNL     1      48.323   5.051  17.747  0.00  0.00    +0.000 OA
ATOM     22  H   UNL     1      50.406   6.703  16.077  0.00  0.00    +0.000 HD
BRANCH  20  23
ATOM     23  C   UNL     1      50.652   4.726  17.671  0.00  0.00    +0.000 A 
ATOM     24  C   UNL     1      51.662   5.485  18.238  0.00  0.00    +0.000 A 
ATOM     25  S   UNL     1      53.027   4.566  18.690  0.00  0.00    +0.000 S 
ATOM     26  C   UNL     1      52.329   3.126  18.108  0.00  0.00    +0.000 A 
ATOM     27  N   UNL     1      52.992   1.947  18.159  0.00  0.00    +0.000 NA
ATOM     28  C   UNL     1      52.342   0.946  17.661  0.00  0.00    +0.000 A 
ATOM     29  N   UNL     1      51.083   1.019  17.122  0.00  0.00    +0.000 N 
ATOM     30  C   UNL     1      50.382   2.192  17.040  0.00  0.00    +0.000 A 
ATOM     31  O   UNL     1      49.251   2.230  16.546  0.00  0.00    +0.000 OA
ATOM     32  C   UNL     1      51.061   3.346  17.589  0.00  0.00    +0.000 A 
ATOM     33  H   UNL     1      50.629   0.199  16.750  0.00  0.00    +0.000 HD
ENDBRANCH  20  23
ENDBRANCH  18  19
ENDBRANCH   4  18
TORSDOF 7
ENDMDL
MODEL 6
REMARK VINA RESULT:    -6.886      2.873      3.639
REMARK INTER + INTRA:         -10.729
REMARK INTER:                  -9.418
REMARK INTRA:                  -1.311
REMARK UNBOUND:                -1.026
REMARK  Name = 
REMARK  8 active torsions:
REMARK  status: ('A' for Active; 'I' for Inactive)
REMARK    1  A    between atoms: C_1  and  C_2
REMARK    2  A    between atoms: C_2  and  N_3
REMARK    3  A    between atoms: C_2  and  C_25
REMARK    4  A    between atoms: N_3  and  C_4
REMARK    5  A    between atoms: C_4  and  C_5
REMARK    6  A    between atoms: C_8  and  C_9
REMARK    7  A    between atoms: C_9  and  N_10
REMARK    8  A    between atoms: C_11  and  C_13
REMARK                            x       y       z     vdW  Elec       q    Type
REMARK                         _______ _______ _______ _____ _____    ______ ____
ROOT
ATOM      1  C   UNL     1      46.398   5.523  12.277  0.00  0.00    +0.000 C 
ATOM      2  C   UNL     1      46.942   6.621  11.361  0.00  0.00    +0.000 C 
ATOM      3  C   UNL     1      47.068   7.959  12.082  0.00  0.00    +0.000 C 
ATOM      4  C   UNL     1      47.926   7.865  13.356  0.00  0.00    +0.000 C 
ATOM      5  C   UNL     1      47.455   6.720  14.270  0.00  0.00    +0.000 C 
ATOM      6  C   UNL     1      47.303   5.399  13.515  0.00  0.00    +0.000 C 
ENDROOT
BRANCH   1   7
ATOM      7  C   UNL     1      44.932   5.794  12.682  0.00  0.00    +0.000 C 
BRANCH   7   8
ATOM      8  N   UNL     1      44.050   5.874  11.518  0.00  0.00    +0.000 NA
ATOM      9  H   UNL     1      43.276   6.509  11.713  0.00  0.00    +0.000 HD
BRANCH   8  11
ATOM     10  C   UNL     1      43.367   3.634  12.390  0.00  0.00    +0.000 C 
ATOM     11  C   UNL     1      43.450   4.565  11.180  0.00  0.00    +0.000 C 
BRANCH  11  12
ATOM     12  C   UNL     1      44.259   3.884  10.080  0.00  0.00    +0.000 A 
ATOM     13  C   UNL     1      44.914   4.651   9.112  0.00  0.00    +0.000 A 
ATOM     14  C   UNL     1      45.598   4.008   8.085  0.00  0.00    +0.000 A 
ATOM     15  C   UNL     1      45.613   2.619   8.056  0.00  0.00    +0.000 A 
ATOM     16  C   UNL     1      44.957   1.931   9.061  0.00  0.00    +0.000 A 
ATOM     17  N   UNL     1      44.282   2.526  10.068  0.00  0.00    +0.000 NA
ENDBRANCH  11  12
ENDBRANCH   8  11
ENDBRANCH   7   8
ENDBRANCH   1   7
BRANCH   4  18
ATOM     18  C   UNL     1      47.920   9.190  14.138  0.00  0.00    +0.000 C 
BRANCH  18  19
ATOM     19  N   UNL     1      47.636   8.995  15.542  0.00  0.00    +0.000 N 
ATOM     20  C   UNL     1      48.413   9.567  16.526  0.00  0.00    +0.000 C 
ATOM     21  O   UNL     1      49.351  10.320  16.275  0.00  0.00    +0.000 OA
ATOM     22  H   UNL     1      47.142   8.142  15.795  0.00  0.00    +0.000 HD
BRANCH  20  23
ATOM     23  C   UNL     1      47.994   9.300  17.902  0.00  0.00    +0.000 A 
ATOM     24  C   UNL     1      47.493  10.322  18.691  0.00  0.00    +0.000 A 
ATOM     25  S   UNL     1      47.038   9.810  20.255  0.00  0.00    +0.000 S 
ATOM     26  C   UNL     1      47.532   8.210  19.942  0.00  0.00    +0.000 A 
ATOM     27  N   UNL     1      47.446   7.245  20.887  0.00  0.00    +0.000 NA
ATOM     28  C   UNL     1      47.878   6.086  20.510  0.00  0.00    +0.000 A 
ATOM     29  N   UNL     1      48.382   5.805  19.266  0.00  0.00    +0.000 N 
ATOM     30  C   UNL     1      48.498   6.753  18.285  0.00  0.00    +0.000 A 
ATOM     31  O   UNL     1      48.960   6.474  17.174  0.00  0.00    +0.000 OA
ATOM     32  C   UNL     1      48.023   8.069  18.652  0.00  0.00    +0.000 A 
ATOM     33  H   UNL     1      48.702   4.878  19.032  0.00  0.00    +0.000 HD
ENDBRANCH  20  23
ENDBRANCH  18  19
ENDBRANCH   4  18
TORSDOF 7
ENDMDL
MODEL 7
REMARK VINA RESULT:    -6.559      3.806      6.731
REMARK INTER + INTRA:         -10.269
REMARK INTER:                  -8.445
REMARK INTRA:                  -1.824
REMARK UNBOUND:                -1.026
REMARK  Name = 
REMARK  8 active torsions:
REMARK  status: ('A' for Active; 'I' for Inactive)
REMARK    1  A    between atoms: C_1  and  C_2
REMARK    2  A    between atoms: C_2  and  N_3
REMARK    3  A    between atoms: C_2  and  C_25
REMARK    4  A    between atoms: N_3  and  C_4
REMARK    5  A    between atoms: C_4  and  C_5
REMARK    6  A    between atoms: C_8  and  C_9
REMARK    7  A    between atoms: C_9  and  N_10
REMARK    8  A    between atoms: C_11  and  C_13
REMARK                            x       y       z     vdW  Elec       q    Type
REMARK                         _______ _______ _______ _____ _____    ______ ____
ROOT
ATOM      1  C   UNL     1      47.541   3.385  17.060  0.00  0.00    +0.000 C 
ATOM      2  C   UNL     1      48.846   2.905  17.699  0.00  0.00    +0.000 C 
ATOM      3  C   UNL     1      50.013   3.836  17.388  0.00  0.00    +0.000 C 
ATOM      4  C   UNL     1      49.732   5.292  17.799  0.00  0.00    +0.000 C 
ATOM      5  C   UNL     1      48.388   5.788  17.238  0.00  0.00    +0.000 C 
ATOM      6  C   UNL     1      47.242   4.818  17.532  0.00  0.00    +0.000 C 
ENDROOT
BRANCH   1   7
ATOM      7  C   UNL     1      47.597   3.305  15.519  0.00  0.00    +0.000 C 
BRANCH   7   8
ATOM      8  N   UNL     1      46.471   4.000  14.894  0.00  0.00    +0.000 NA
ATOM      9  H   UNL     1      45.668   3.374  14.834  0.00  0.00    +0.000 HD
BRANCH   8  11
ATOM     10  C   UNL     1      47.308   5.865  13.458  0.00  0.00    +0.000 C 
ATOM     11  C   UNL     1      46.777   4.432  13.514  0.00  0.00    +0.000 C 
BRANCH  11  12
ATOM     12  C   UNL     1      45.531   4.326  12.640  0.00  0.00    +0.000 A 
ATOM     13  C   UNL     1      45.284   5.280  11.648  0.00  0.00    +0.000 A 
ATOM     14  C   UNL     1      44.112   5.196  10.903  0.00  0.00    +0.000 A 
ATOM     15  C   UNL     1      43.223   4.162  11.164  0.00  0.00    +0.000 A 
ATOM     16  C   UNL     1      43.548   3.246  12.149  0.00  0.00    +0.000 A 
ATOM     17  N   UNL     1      44.674   3.302  12.891  0.00  0.00    +0.000 NA
ENDBRANCH  11  12
ENDBRANCH   8  11
ENDBRANCH   7   8
ENDBRANCH   1   7
BRANCH   4  18
ATOM     18  C   UNL     1      50.863   6.232  17.348  0.00  0.00    +0.000 C 
BRANCH  18  19
ATOM     19  N   UNL     1      50.602   6.818  16.052  0.00  0.00    +0.000 N 
ATOM     20  C   UNL     1      51.175   8.010  15.666  0.00  0.00    +0.000 C 
ATOM     21  O   UNL     1      51.983   8.615  16.368  0.00  0.00    +0.000 OA
ATOM     22  H   UNL     1      49.717   6.578  15.611  0.00  0.00    +0.000 HD
BRANCH  20  23
ATOM     23  C   UNL     1      50.838   8.470  14.318  0.00  0.00    +0.000 A 
ATOM     24  C   UNL     1      51.806   8.509  13.329  0.00  0.00    +0.000 A 
ATOM     25  S   UNL     1      51.214   9.052  11.823  0.00  0.00    +0.000 S 
ATOM     26  C   UNL     1      49.650   9.290  12.453  0.00  0.00    +0.000 A 
ATOM     27  N   UNL     1      48.646   9.780  11.689  0.00  0.00    +0.000 NA
ATOM     28  C   UNL     1      47.521   9.925  12.310  0.00  0.00    +0.000 A 
ATOM     29  N   UNL     1      47.310   9.617  13.630  0.00  0.00    +0.000 N 
ATOM     30  C   UNL     1      48.301   9.131  14.442  0.00  0.00    +0.000 A 
ATOM     31  O   UNL     1      48.084   8.866  15.629  0.00  0.00    +0.000 OA
ATOM     32  C   UNL     1      49.580   8.943  13.795  0.00  0.00    +0.000 A 
ATOM     33  H   UNL     1      46.407   9.752  14.057  0.00  0.00    +0.000 HD
ENDBRANCH  20  23
ENDBRANCH  18  19
ENDBRANCH   4  18
TORSDOF 7
ENDMDL
MODEL 8
REMARK VINA RESULT:    -6.514      3.070      4.482
REMARK INTER + INTRA:         -10.206
REMARK INTER:                  -8.337
REMARK INTRA:                  -1.869
REMARK UNBOUND:                -1.026
REMARK  Name = 
REMARK  8 active torsions:
REMARK  status: ('A' for Active; 'I' for Inactive)
REMARK    1  A    between atoms: C_1  and  C_2
REMARK    2  A    between atoms: C_2  and  N_3
REMARK    3  A    between atoms: C_2  and  C_25
REMARK    4  A    between atoms: N_3  and  C_4
REMARK    5  A    between atoms: C_4  and  C_5
REMARK    6  A    between atoms: C_8  and  C_9
REMARK    7  A    between atoms: C_9  and  N_10
REMARK    8  A    between atoms: C_11  and  C_13
REMARK                            x       y       z     vdW  Elec       q    Type
REMARK                         _______ _______ _______ _____ _____    ______ ____
ROOT
ATOM      1  C   UNL     1      48.731   8.548  11.915  0.00  0.00    +0.000 C 
ATOM      2  C   UNL     1      47.958   9.478  12.852  0.00  0.00    +0.000 C 
ATOM      3  C   UNL     1      48.186   9.132  14.319  0.00  0.00    +0.000 C 
ATOM      4  C   UNL     1      49.676   9.124  14.700  0.00  0.00    +0.000 C 
ATOM      5  C   UNL     1      50.502   8.257  13.732  0.00  0.00    +0.000 C 
ATOM      6  C   UNL     1      50.228   8.601  12.267  0.00  0.00    +0.000 C 
ENDROOT
BRANCH   1   7
ATOM      7  C   UNL     1      48.194   7.101  11.976  0.00  0.00    +0.000 C 
BRANCH   7   8
ATOM      8  N   UNL     1      46.738   7.053  11.834  0.00  0.00    +0.000 NA
ATOM      9  H   UNL     1      46.350   7.993  11.917  0.00  0.00    +0.000 HD
BRANCH   8  11
ATOM     10  C   UNL     1      47.124   5.471  13.729  0.00  0.00    +0.000 C 
ATOM     11  C   UNL     1      46.100   6.237  12.890  0.00  0.00    +0.000 C 
BRANCH  11  12
ATOM     12  C   UNL     1      45.121   5.246  12.269  0.00  0.00    +0.000 A 
ATOM     13  C   UNL     1      44.775   4.077  12.954  0.00  0.00    +0.000 A 
ATOM     14  C   UNL     1      43.925   3.160  12.344  0.00  0.00    +0.000 A 
ATOM     15  C   UNL     1      43.440   3.437  11.072  0.00  0.00    +0.000 A 
ATOM     16  C   UNL     1      43.813   4.625  10.469  0.00  0.00    +0.000 A 
ATOM     17  N   UNL     1      44.638   5.533  11.032  0.00  0.00    +0.000 NA
ENDBRANCH  11  12
ENDBRANCH   8  11
ENDBRANCH   7   8
ENDBRANCH   1   7
BRANCH   4  18
ATOM     18  C   UNL     1      49.886   8.635  16.143  0.00  0.00    +0.000 C 
BRANCH  18  19
ATOM     19  N   UNL     1      49.668   7.211  16.275  0.00  0.00    +0.000 N 
ATOM     20  C   UNL     1      48.980   6.679  17.344  0.00  0.00    +0.000 C 
ATOM     21  O   UNL     1      48.463   7.377  18.214  0.00  0.00    +0.000 OA
ATOM     22  H   UNL     1      50.344   6.601  15.823  0.00  0.00    +0.000 HD
BRANCH  20  23
ATOM     23  C   UNL     1      48.816   5.225  17.334  0.00  0.00    +0.000 A 
ATOM     24  C   UNL     1      47.551   4.663  17.316  0.00  0.00    +0.000 A 
ATOM     25  S   UNL     1      47.568   2.956  17.284  0.00  0.00    +0.000 S 
ATOM     26  C   UNL     1      49.269   2.910  17.331  0.00  0.00    +0.000 A 
ATOM     27  N   UNL     1      49.945   1.738  17.359  0.00  0.00    +0.000 NA
ATOM     28  C   UNL     1      51.231   1.862  17.414  0.00  0.00    +0.000 A 
ATOM     29  N   UNL     1      51.902   3.058  17.438  0.00  0.00    +0.000 N 
ATOM     30  C   UNL     1      51.258   4.267  17.424  0.00  0.00    +0.000 A 
ATOM     31  O   UNL     1      51.887   5.328  17.450  0.00  0.00    +0.000 OA
ATOM     32  C   UNL     1      49.816   4.186  17.355  0.00  0.00    +0.000 A 
ATOM     33  H   UNL     1      52.909   3.088  17.480  0.00  0.00    +0.000 HD
ENDBRANCH  20  23
ENDBRANCH  18  19
ENDBRANCH   4  18
TORSDOF 7
ENDMDL
