MODEL 1
REMARK VINA RESULT:    -7.245      0.000      0.000
REMARK INTER + INTRA:          -8.431
REMARK INTER:                  -8.939
REMARK INTRA:                   0.508
REMARK UNBOUND:                 0.508
REMARK  Name = 
REMARK  7 active torsions:
REMARK  status: ('A' for Active; 'I' for Inactive)
REMARK    1  A    between atoms: C_1  and  C_2
REMARK    2  A    between atoms: C_2  and  C_3
REMARK    3  A    between atoms: C_2  and  C_4
REMARK    4  A    between atoms: C_2  and  C_5
REMARK    5  A    between atoms: N_8  and  C_9
REMARK    6  A    between atoms: C_9  and  C_10
REMARK    7  A    between atoms: C_20  and  C_21
REMARK                            x       y       z     vdW  Elec       q    Type
REMARK                         _______ _______ _______ _____ _____    ______ ____
ROOT
ATOM      1  C   UNL     1      47.722   4.824  15.841  0.00  0.00    +0.000 A 
ATOM      2  N   UNL     1      46.761   4.154  15.119  0.00  0.00    +0.000 NA
ATOM      3  C   UNL     1      46.395   4.552  13.882  0.00  0.00    +0.000 A 
ATOM      4  N   UNL     1      45.487   3.717  13.224  0.00  0.00    +0.000 N 
ATOM      5  C   UNL     1      46.987   5.641  13.288  0.00  0.00    +0.000 A 
ATOM      6  C   UNL     1      47.973   6.332  13.987  0.00  0.00    +0.000 A 
ATOM      7  C   UNL     1      48.346   5.955  15.291  0.00  0.00    +0.000 A 
ATOM      8  H   UNL     1      45.149   3.061  13.928  0.00  0.00    +0.000 HD
ENDROOT
BRANCH   7   9
ATOM      9  C   UNL     1      49.418   6.775  15.936  0.00  0.00    +0.000 C 
ATOM     10  N   UNL     1      49.024   7.889  16.631  0.00  0.00    +0.000 N 
ATOM     11  O   UNL     1      50.611   6.526  15.863  0.00  0.00    +0.000 OA
ATOM     12  H   UNL     1      48.065   8.136  16.825  0.00  0.00    +0.000 HD
ATOM     13  H   UNL     1      49.757   8.439  17.065  0.00  0.00    +0.000 HD
ENDBRANCH   7   9
BRANCH   1  15
ATOM     14  C   UNL     1      47.125   2.915  17.426  0.00  0.00    +0.000 C 
ATOM     15  C   UNL     1      47.987   4.205  17.232  0.00  0.00    +0.000 C 
ATOM     16  C   UNL     1      47.587   5.141  18.389  0.00  0.00    +0.000 C 
ATOM     17  C   UNL     1      49.445   3.724  17.377  0.00  0.00    +0.000 C 
ENDBRANCH   1  15
BRANCH   4  18
ATOM     18  C   UNL     1      44.448   4.203  12.278  0.00  0.00    +0.000 C 
ATOM     19  C   UNL     1      43.862   5.567  12.642  0.00  0.00    +0.000 C 
ATOM     20  C   UNL     1      42.987   4.363  12.669  0.00  0.00    +0.000 C 
BRANCH  18  21
ATOM     21  C   UNL     1      44.772   3.954  10.788  0.00  0.00    +0.000 A 
ATOM     22  N   UNL     1      45.385   4.932  10.078  0.00  0.00    +0.000 NA
ATOM     23  C   UNL     1      45.626   4.689   8.775  0.00  0.00    +0.000 A 
ATOM     24  C   UNL     1      45.301   3.513   8.147  0.00  0.00    +0.000 A 
ATOM     25  C   UNL     1      44.700   2.569   8.942  0.00  0.00    +0.000 A 
ATOM     26  N   UNL     1      44.424   2.763  10.247  0.00  0.00    +0.000 NA
ENDBRANCH  18  21
ENDBRANCH   4  18
TORSDOF 4
ENDMDL
MODEL 2
REMARK VINA RESULT:    -7.215      1.949      3.495
REMARK INTER + INTRA:          -8.394
REMARK INTER:                  -8.214
REMARK INTRA:                  -0.180
REMARK UNBOUND:                 0.508
REMARK  Name = 
REMARK  7 active torsions:
REMARK  status: ('A' for Active; 'I' for Inactive)
REMARK    1  A    between atoms: C_1  and  C_2
REMARK    2  A    between atoms: C_2  and  C_3
REMARK    3  A    between atoms: C_2  and  C_4
REMARK    4  A    between atoms: C_2  and  C_5
REMARK    5  A    between atoms: N_8  and  C_9
REMARK    6  A    between atoms: C_9  and  C_10
REMARK    7  A    between atoms: C_20  and  C_21
REMARK                            x       y       z     vdW  Elec       q    Type
REMARK                         _______ _______ _______ _____ _____    ______ ____
ROOT
ATOM      1  C   UNL     1      47.834   6.965  13.284  0.00  0.00    +0.000 A 
ATOM      2  N   UNL     1      46.910   6.664  12.310  0.00  0.00    +0.000 NA
ATOM      3  C   UNL     1      46.055   5.628  12.438  0.00  0.00    +0.000 A 
ATOM      4  N   UNL     1      45.101   5.504  11.423  0.00  0.00    +0.000 N 
ATOM      5  C   UNL     1      46.067   4.838  13.563  0.00  0.00    +0.000 A 
ATOM      6  C   UNL     1      46.981   5.126  14.573  0.00  0.00    +0.000 A 
ATOM      7  C   UNL     1      47.905   6.181  14.446  0.00  0.00    +0.000 A 
ATOM      8  H   UNL     1      45.392   6.146  10.686  0.00  0.00    +0.000 HD
ENDROOT
BRANCH   7   9
ATOM      9  C   UNL     1      48.834   6.390  15.599  0.00  0.00    +0.000 C 
ATOM     10  N   UNL     1      48.278   6.773  16.792  0.00  0.00    +0.000 N 
ATOM     11  O   UNL     1      50.046   6.262  15.537  0.00  0.00    +0.000 OA
ATOM     12  H   UNL     1      47.287   6.823  16.974  0.00  0.00    +0.000 HD
ATOM     13  H   UNL     1      48.914   6.913  17.568  0.00  0.00    +0.000 HD
ENDBRANCH   7   9
BRANCH   1  15
ATOM     14  C   UNL     1      48.082   8.997  11.760  0.00  0.00    +0.000 C 
ATOM     15  C   UNL     1      48.715   8.186  12.937  0.00  0.00    +0.000 C 
ATOM     16  C   UNL     1      50.122   7.791  12.449  0.00  0.00    +0.000 C 
ATOM     17  C   UNL     1      48.789   9.191  14.105  0.00  0.00    +0.000 C 
ENDBRANCH   1  15
BRANCH   4  18
ATOM     18  C   UNL     1      44.566   4.204  10.940  0.00  0.00    +0.000 C 
ATOM     19  C   UNL     1      43.047   4.076  11.050  0.00  0.00    +0.000 C 
ATOM     20  C   UNL     1      43.918   3.184  11.865  0.00  0.00    +0.000 C 
BRANCH  18  21
ATOM     21  C   UNL     1      45.222   3.684   9.641  0.00  0.00    +0.000 A 
ATOM     22  N   UNL     1      45.346   2.347   9.459  0.00  0.00    +0.000 NA
ATOM     23  C   UNL     1      45.947   1.933   8.327  0.00  0.00    +0.000 A 
ATOM     24  C   UNL     1      46.418   2.784   7.360  0.00  0.00    +0.000 A 
ATOM     25  C   UNL     1      46.237   4.121   7.614  0.00  0.00    +0.000 A 
ATOM     26  N   UNL     1      45.653   4.591   8.733  0.00  0.00    +0.000 NA
ENDBRANCH  18  21
ENDBRANCH   4  18
TORSDOF 4
ENDMDL
MODEL 3
REMARK VINA RESULT:    -6.575      4.458      6.540
REMARK INTER + INTRA:          -7.604
REMARK INTER:                  -7.649
REMARK INTRA:                   0.045
REMARK UNBOUND:                 0.508
REMARK  Name = 
REMARK  7 active torsions:
REMARK  status: ('A' for Active; 'I' for Inactive)
REMARK    1  A    between atoms: C_1  and  C_2
REMARK    2  A    between atoms: C_2  and  C_3
REMARK    3  A    between atoms: C_2  and  C_4
REMARK    4  A    between atoms: C_2  and  C_5
REMARK    5  A    between atoms: N_8  and  C_9
REMARK    6  A    between atoms: C_9  and  C_10
REMARK    7  A    between atoms: C_20  and  C_21
REMARK                            x       y       z     vdW  Elec       q    Type
REMARK                         _______ _______ _______ _____ _____    ______ ____
ROOT
ATOM      1  C   UNL     1      44.773   5.790  12.184  0.00  0.00    +0.000 A 
ATOM      2  N   UNL     1      44.097   6.753  11.472  0.00  0.00    +0.000 NA
ATOM      3  C   UNL     1      44.514   8.036  11.439  0.00  0.00    +0.000 A 
ATOM      4  N   UNL     1      43.793   8.883  10.591  0.00  0.00    +0.000 N 
ATOM      5  C   UNL     1      45.648   8.427  12.111  0.00  0.00    +0.000 A 
ATOM      6  C   UNL     1      46.362   7.473  12.830  0.00  0.00    +0.000 A 
ATOM      7  C   UNL     1      45.928   6.136  12.905  0.00  0.00    +0.000 A 
ATOM      8  H   UNL     1      42.964   8.360  10.311  0.00  0.00    +0.000 HD
ENDROOT
BRANCH   7   9
ATOM      9  C   UNL     1      46.782   5.206  13.706  0.00  0.00    +0.000 C 
ATOM     10  N   UNL     1      46.283   4.774  14.908  0.00  0.00    +0.000 N 
ATOM     11  O   UNL     1      47.893   4.831  13.369  0.00  0.00    +0.000 OA
ATOM     12  H   UNL     1      45.347   4.953  15.239  0.00  0.00    +0.000 HD
ATOM     13  H   UNL     1      46.869   4.144  15.445  0.00  0.00    +0.000 HD
ENDBRANCH   7   9
BRANCH   1  15
ATOM     14  C   UNL     1      43.145   4.326  10.875  0.00  0.00    +0.000 C 
ATOM     15  C   UNL     1      44.127   4.389  12.090  0.00  0.00    +0.000 C 
ATOM     16  C   UNL     1      43.274   4.039  13.324  0.00  0.00    +0.000 C 
ATOM     17  C   UNL     1      45.173   3.293  11.801  0.00  0.00    +0.000 C 
ENDBRANCH   1  15
BRANCH   4  18
ATOM     18  C   UNL     1      43.556  10.325  10.863  0.00  0.00    +0.000 C 
ATOM     19  C   UNL     1      44.301  11.268   9.917  0.00  0.00    +0.000 C 
ATOM     20  C   UNL     1      44.646  11.259  11.366  0.00  0.00    +0.000 C 
BRANCH  18  21
ATOM     21  C   UNL     1      42.091  10.681  11.198  0.00  0.00    +0.000 A 
ATOM     22  N   UNL     1      41.810  11.245  12.397  0.00  0.00    +0.000 NA
ATOM     23  C   UNL     1      40.518  11.516  12.664  0.00  0.00    +0.000 A 
ATOM     24  C   UNL     1      39.492  11.267  11.789  0.00  0.00    +0.000 A 
ATOM     25  C   UNL     1      39.863  10.711  10.590  0.00  0.00    +0.000 A 
ATOM     26  N   UNL     1      41.138  10.409  10.275  0.00  0.00    +0.000 NA
ENDBRANCH  18  21
ENDBRANCH   4  18
TORSDOF 4
ENDMDL
MODEL 4
REMARK VINA RESULT:    -6.548      2.543      4.054
REMARK INTER + INTRA:          -7.571
REMARK INTER:                  -7.726
REMARK INTRA:                   0.155
REMARK UNBOUND:                 0.508
REMARK  Name = 
REMARK  7 active torsions:
REMARK  status: ('A' for Active; 'I' for Inactive)
REMARK    1  A    between atoms: C_1  and  C_2
REMARK    2  A    between atoms: C_2  and  C_3
REMARK    3  A    between atoms: C_2  and  C_4
REMARK    4  A    between atoms: C_2  and  C_5
REMARK    5  A    between atoms: N_8  and  C_9
REMARK    6  A    between atoms: C_9  and  C_10
REMARK    7  A    between atoms: C_20  and  C_21
REMARK                            x       y       z     vdW  Elec       q    Type
REMARK                         _______ _______ _______ _____ _____    ______ ____
ROOT
ATOM      1  C   UNL     1      47.669   8.400  12.879  0.00  0.00    +0.000 A 
ATOM      2  N   UNL     1      46.396   8.055  12.487  0.00  0.00    +0.000 NA
ATOM      3  C   UNL     1      45.869   6.845  12.768  0.00  0.00    +0.000 A 
ATOM      4  N   UNL     1      44.530   6.670  12.404  0.00  0.00    +0.000 N 
ATOM      5  C   UNL     1      46.587   5.910  13.476  0.00  0.00    +0.000 A 
ATOM      6  C   UNL     1      47.874   6.234  13.899  0.00  0.00    +0.000 A 
ATOM      7  C   UNL     1      48.455   7.478  13.588  0.00  0.00    +0.000 A 
ATOM      8  H   UNL     1      44.293   7.470  11.818  0.00  0.00    +0.000 HD
ENDROOT
BRANCH   7   9
ATOM      9  C   UNL     1      49.842   7.707  14.100  0.00  0.00    +0.000 C 
ATOM     10  N   UNL     1      50.869   7.598  13.200  0.00  0.00    +0.000 N 
ATOM     11  O   UNL     1      50.112   7.961  15.263  0.00  0.00    +0.000 OA
ATOM     12  H   UNL     1      50.751   7.479  12.204  0.00  0.00    +0.000 HD
ATOM     13  H   UNL     1      51.806   7.755  13.554  0.00  0.00    +0.000 HD
ENDBRANCH   7   9
BRANCH   1  15
ATOM     14  C   UNL     1      49.154   9.772  11.323  0.00  0.00    +0.000 C 
ATOM     15  C   UNL     1      48.076   9.829  12.454  0.00  0.00    +0.000 C 
ATOM     16  C   UNL     1      48.726  10.631  13.597  0.00  0.00    +0.000 C 
ATOM     17  C   UNL     1      46.896  10.600  11.828  0.00  0.00    +0.000 C 
ENDBRANCH   1  15
BRANCH   4  18
ATOM     18  C   UNL     1      43.955   5.376  11.954  0.00  0.00    +0.000 C 
ATOM     19  C   UNL     1      42.439   5.273  12.130  0.00  0.00    +0.000 C 
ATOM     20  C   UNL     1      43.331   4.372  12.912  0.00  0.00    +0.000 C 
BRANCH  18  21
ATOM     21  C   UNL     1      44.545   4.838  10.631  0.00  0.00    +0.000 A 
ATOM     22  N   UNL     1      45.490   5.568   9.990  0.00  0.00    +0.000 NA
ATOM     23  C   UNL     1      45.960   5.080   8.826  0.00  0.00    +0.000 A 
ATOM     24  C   UNL     1      45.548   3.893   8.275  0.00  0.00    +0.000 A 
ATOM     25  C   UNL     1      44.601   3.208   8.997  0.00  0.00    +0.000 A 
ATOM     26  N   UNL     1      44.088   3.654  10.160  0.00  0.00    +0.000 NA
ENDBRANCH  18  21
ENDBRANCH   4  18
TORSDOF 4
ENDMDL
MODEL 5
REMARK VINA RESULT:    -6.155      1.690      2.471
REMARK INTER + INTRA:          -7.086
REMARK INTER:                  -7.682
REMARK INTRA:                   0.595
REMARK UNBOUND:                 0.508
REMARK  Name = 
REMARK  7 active torsions:
REMARK  status: ('A' for Active; 'I' for Inactive)
REMARK    1  A    between atoms: C_1  and  C_2
REMARK    2  A    between atoms: C_2  and  C_3
REMARK    3  A    between atoms: C_2  and  C_4
REMARK    4  A    between atoms: C_2  and  C_5
REMARK    5  A    between atoms: N_8  and  C_9
REMARK    6  A    between atoms: C_9  and  C_10
REMARK    7  A    between atoms: C_20  and  C_21
REMARK                            x       y       z     vdW  Elec       q    Type
REMARK                         _______ _______ _______ _____ _____    ______ ____
ROOT
ATOM      1  C   UNL     1      48.367   6.937  14.347  0.00  0.00    +0.000 A 
ATOM      2  N   UNL     1      47.515   5.869  14.189  0.00  0.00    +0.000 NA
ATOM      3  C   UNL     1      46.794   5.695  13.062  0.00  0.00    +0.000 A 
ATOM      4  N   UNL     1      46.053   4.511  12.995  0.00  0.00    +0.000 N 
ATOM      5  C   UNL     1      46.897   6.581  12.015  0.00  0.00    +0.000 A 
ATOM      6  C   UNL     1      47.761   7.665  12.139  0.00  0.00    +0.000 A 
ATOM      7  C   UNL     1      48.498   7.884  13.318  0.00  0.00    +0.000 A 
ATOM      8  H   UNL     1      46.082   4.110  13.932  0.00  0.00    +0.000 HD
ENDROOT
BRANCH   7   9
ATOM      9  C   UNL     1      49.392   9.082  13.328  0.00  0.00    +0.000 C 
ATOM     10  N   UNL     1      48.859  10.260  13.782  0.00  0.00    +0.000 N 
ATOM     11  O   UNL     1      50.549   9.080  12.939  0.00  0.00    +0.000 OA
ATOM     12  H   UNL     1      47.947  10.353  14.204  0.00  0.00    +0.000 HD
ATOM     13  H   UNL     1      49.472  11.068  13.785  0.00  0.00    +0.000 HD
ENDBRANCH   7   9
BRANCH   1  15
ATOM     14  C   UNL     1      48.665   8.199  16.545  0.00  0.00    +0.000 C 
ATOM     15  C   UNL     1      49.093   6.947  15.711  0.00  0.00    +0.000 C 
ATOM     16  C   UNL     1      50.624   7.052  15.574  0.00  0.00    +0.000 C 
ATOM     17  C   UNL     1      48.689   5.742  16.585  0.00  0.00    +0.000 C 
ENDBRANCH   1  15
BRANCH   4  18
ATOM     18  C   UNL     1      44.741   4.390  12.308  0.00  0.00    +0.000 C 
ATOM     19  C   UNL     1      43.759   5.516  12.635  0.00  0.00    +0.000 C 
ATOM     20  C   UNL     1      43.441   4.121  13.052  0.00  0.00    +0.000 C 
BRANCH  18  21
ATOM     21  C   UNL     1      44.830   3.945  10.831  0.00  0.00    +0.000 A 
ATOM     22  N   UNL     1      45.283   4.827   9.906  0.00  0.00    +0.000 NA
ATOM     23  C   UNL     1      45.321   4.412   8.626  0.00  0.00    +0.000 A 
ATOM     24  C   UNL     1      44.943   3.156   8.221  0.00  0.00    +0.000 A 
ATOM     25  C   UNL     1      44.513   2.321   9.221  0.00  0.00    +0.000 A 
ATOM     26  N   UNL     1      44.445   2.686  10.516  0.00  0.00    +0.000 NA
ENDBRANCH  18  21
ENDBRANCH   4  18
TORSDOF 4
ENDMDL
MODEL 6
REMARK VINA RESULT:    -6.075      2.622      7.175
REMARK INTER + INTRA:          -6.988
REMARK INTER:                  -7.409
REMARK INTRA:                   0.421
REMARK UNBOUND:                 0.508
REMARK  Name = 
REMARK  7 active torsions:
REMARK  status: ('A' for Active; 'I' for Inactive)
REMARK    1  A    between atoms: C_1  and  C_2
REMARK    2  A    between atoms: C_2  and  C_3
REMARK    3  A    between atoms: C_2  and  C_4
REMARK    4  A    between atoms: C_2  and  C_5
REMARK    5  A    between atoms: N_8  and  C_9
REMARK    6  A    between atoms: C_9  and  C_10
REMARK    7  A    between atoms: C_20  and  C_21
REMARK                            x       y       z     vdW  Elec       q    Type
REMARK                         _______ _______ _______ _____ _____    ______ ____
ROOT
ATOM      1  C   UNL     1      45.888   5.315  12.843  0.00  0.00    +0.000 A 
ATOM      2  N   UNL     1      46.670   5.798  13.867  0.00  0.00    +0.000 NA
ATOM      3  C   UNL     1      47.285   4.973  14.741  0.00  0.00    +0.000 A 
ATOM      4  N   UNL     1      48.132   5.594  15.663  0.00  0.00    +0.000 N 
ATOM      5  C   UNL     1      47.161   3.608  14.629  0.00  0.00    +0.000 A 
ATOM      6  C   UNL     1      46.388   3.089  13.595  0.00  0.00    +0.000 A 
ATOM      7  C   UNL     1      45.711   3.931  12.692  0.00  0.00    +0.000 A 
ATOM      8  H   UNL     1      47.949   6.594  15.582  0.00  0.00    +0.000 HD
ENDROOT
BRANCH   7   9
ATOM      9  C   UNL     1      44.914   3.252  11.624  0.00  0.00    +0.000 C 
ATOM     10  N   UNL     1      43.785   2.582  12.014  0.00  0.00    +0.000 N 
ATOM     11  O   UNL     1      45.218   3.241  10.442  0.00  0.00    +0.000 OA
ATOM     12  H   UNL     1      43.398   2.600  12.946  0.00  0.00    +0.000 HD
ATOM     13  H   UNL     1      43.250   2.124  11.284  0.00  0.00    +0.000 HD
ENDBRANCH   7   9
BRANCH   1  15
ATOM     14  C   UNL     1      45.458   7.822  12.643  0.00  0.00    +0.000 C 
ATOM     15  C   UNL     1      45.278   6.427  11.961  0.00  0.00    +0.000 C 
ATOM     16  C   UNL     1      43.759   6.265  11.758  0.00  0.00    +0.000 C 
ATOM     17  C   UNL     1      46.013   6.558  10.611  0.00  0.00    +0.000 C 
ENDBRANCH   1  15
BRANCH   4  18
ATOM     18  C   UNL     1      48.343   5.112  17.053  0.00  0.00    +0.000 C 
ATOM     19  C   UNL     1      47.053   4.757  17.792  0.00  0.00    +0.000 C 
ATOM     20  C   UNL     1      47.886   5.893  18.276  0.00  0.00    +0.000 C 
BRANCH  18  21
ATOM     21  C   UNL     1      49.536   4.145  17.222  0.00  0.00    +0.000 A 
ATOM     22  N   UNL     1      50.719   4.633  17.668  0.00  0.00    +0.000 NA
ATOM     23  C   UNL     1      51.743   3.765  17.776  0.00  0.00    +0.000 A 
ATOM     24  C   UNL     1      51.645   2.430  17.475  0.00  0.00    +0.000 A 
ATOM     25  C   UNL     1      50.409   2.014  17.046  0.00  0.00    +0.000 A 
ATOM     26  N   UNL     1      49.353   2.840  16.910  0.00  0.00    +0.000 NA
ENDBRANCH  18  21
ENDBRANCH   4  18
TORSDOF 4
ENDMDL
MODEL 7
REMARK VINA RESULT:    -5.965      2.646      7.685
REMARK INTER + INTRA:          -6.851
REMARK INTER:                  -6.314
REMARK INTRA:                  -0.537
REMARK UNBOUND:                 0.508
REMARK  Name = 
REMARK  7 active torsions:
REMARK  status: ('A' for Active; 'I' for Inactive)
REMARK    1  A    between atoms: C_1  and  C_2
REMARK    2  A    between atoms: C_2  and  C_3
REMARK    3  A    between atoms: C_2  and  C_4
REMARK    4  A    between atoms: C_2  and  C_5
REMARK    5  A    between atoms: N_8  and  C_9
REMARK    6  A    between atoms: C_9  and  C_10
REMARK    7  A    between atoms: C_20  and  C_21
REMARK                            x       y       z     vdW  Elec       q    Type
REMARK                         _______ _______ _______ _____ _____    ______ ____
ROOT
ATOM      1  C   UNL     1      46.701   6.023  13.267  0.00  0.00    +0.000 A 
ATOM      2  N   UNL     1      47.773   6.526  13.968  0.00  0.00    +0.000 NA
ATOM      3  C   UNL     1      48.257   5.908  15.066  0.00  0.00    +0.000 A 
ATOM      4  N   UNL     1      49.413   6.471  15.615  0.00  0.00    +0.000 N 
ATOM      5  C   UNL     1      47.700   4.735  15.519  0.00  0.00    +0.000 A 
ATOM      6  C   UNL     1      46.623   4.193  14.823  0.00  0.00    +0.000 A 
ATOM      7  C   UNL     1      46.081   4.838  13.695  0.00  0.00    +0.000 A 
ATOM      8  H   UNL     1      49.535   7.370  15.149  0.00  0.00    +0.000 HD
ENDROOT
BRANCH   7   9
ATOM      9  C   UNL     1      44.926   4.155  13.033  0.00  0.00    +0.000 C 
ATOM     10  N   UNL     1      45.170   2.945  12.438  0.00  0.00    +0.000 N 
ATOM     11  O   UNL     1      43.798   4.617  12.973  0.00  0.00    +0.000 OA
ATOM     12  H   UNL     1      46.039   2.437  12.503  0.00  0.00    +0.000 HD
ATOM     13  H   UNL     1      44.382   2.489  11.992  0.00  0.00    +0.000 HD
ENDBRANCH   7   9
BRANCH   1  15
ATOM     14  C   UNL     1      47.462   7.874  11.685  0.00  0.00    +0.000 C 
ATOM     15  C   UNL     1      46.307   6.884  12.046  0.00  0.00    +0.000 C 
ATOM     16  C   UNL     1      45.076   7.772  12.312  0.00  0.00    +0.000 C 
ATOM     17  C   UNL     1      46.118   6.029  10.777  0.00  0.00    +0.000 C 
ENDBRANCH   1  15
BRANCH   4  18
ATOM     18  C   UNL     1      49.725   6.477  17.068  0.00  0.00    +0.000 C 
ATOM     19  C   UNL     1      51.221   6.495  17.385  0.00  0.00    +0.000 C 
ATOM     20  C   UNL     1      50.404   5.311  17.771  0.00  0.00    +0.000 C 
BRANCH  18  21
ATOM     21  C   UNL     1      48.818   7.399  17.914  0.00  0.00    +0.000 A 
ATOM     22  N   UNL     1      48.224   6.896  19.023  0.00  0.00    +0.000 NA
ATOM     23  C   UNL     1      47.420   7.721  19.719  0.00  0.00    +0.000 A 
ATOM     24  C   UNL     1      47.188   9.029  19.374  0.00  0.00    +0.000 A 
ATOM     25  C   UNL     1      47.841   9.464  18.247  0.00  0.00    +0.000 A 
ATOM     26  N   UNL     1      48.648   8.679  17.507  0.00  0.00    +0.000 NA
ENDBRANCH  18  21
ENDBRANCH   4  18
TORSDOF 4
ENDMDL
MODEL 8
REMARK VINA RESULT:    -5.901      2.308      6.883
REMARK INTER + INTRA:          -6.773
REMARK INTER:                  -7.158
REMARK INTRA:                   0.385
REMARK UNBOUND:                 0.508
REMARK  Name = 
REMARK  7 active torsions:
REMARK  status: ('A' for Active; 'I' for Inactive)
REMARK    1  A    between atoms: C_1  and  C_2
REMARK    2  A    between atoms: C_2  and  C_3
REMARK    3  A    between atoms: C_2  and  C_4
REMARK    4  A    between atoms: C_2  and  C_5
REMARK    5  A    between atoms: N_8  and  C_9
REMARK    6  A    between atoms: C_9  and  C_10
REMARK    7  A    between atoms: C_20  and  C_21
REMARK                            x       y       z     vdW  Elec       q    Type
REMARK                         _______ _______ _______ _____ _____    ______ ____
ROOT
ATOM      1  C   UNL     1      45.171   4.662  12.634  0.00  0.00    +0.000 A 
ATOM      2  N   UNL     1      45.427   4.169  13.893  0.00  0.00    +0.000 NA
ATOM      3  C   UNL     1      46.474   4.603  14.626  0.00  0.00    +0.000 A 
ATOM      4  N   UNL     1      46.551   4.095  15.927  0.00  0.00    +0.000 N 
ATOM      5  C   UNL     1      47.321   5.572  14.143  0.00  0.00    +0.000 A 
ATOM      6  C   UNL     1      47.080   6.101  12.878  0.00  0.00    +0.000 A 
ATOM      7  C   UNL     1      46.014   5.640  12.082  0.00  0.00    +0.000 A 
ATOM      8  H   UNL     1      45.870   3.337  15.972  0.00  0.00    +0.000 HD
ENDROOT
BRANCH   7   9
ATOM      9  C   UNL     1      45.859   6.288  10.743  0.00  0.00    +0.000 C 
ATOM     10  N   UNL     1      45.036   7.381  10.666  0.00  0.00    +0.000 N 
ATOM     11  O   UNL     1      46.398   5.892   9.722  0.00  0.00    +0.000 OA
ATOM     12  H   UNL     1      44.613   7.839  11.459  0.00  0.00    +0.000 HD
ATOM     13  H   UNL     1      44.936   7.814   9.755  0.00  0.00    +0.000 HD
ENDBRANCH   7   9
BRANCH   1  15
ATOM     14  C   UNL     1      43.437   2.798  12.795  0.00  0.00    +0.000 C 
ATOM     15  C   UNL     1      43.928   4.030  11.969  0.00  0.00    +0.000 C 
ATOM     16  C   UNL     1      44.217   3.486  10.556  0.00  0.00    +0.000 C 
ATOM     17  C   UNL     1      42.726   4.997  11.962  0.00  0.00    +0.000 C 
ENDBRANCH   1  15
BRANCH   4  18
ATOM     18  C   UNL     1      47.828   3.827  16.639  0.00  0.00    +0.000 C 
ATOM     19  C   UNL     1      48.614   2.639  16.083  0.00  0.00    +0.000 C 
ATOM     20  C   UNL     1      48.063   2.571  17.465  0.00  0.00    +0.000 C 
BRANCH  18  21
ATOM     21  C   UNL     1      48.635   5.092  17.006  0.00  0.00    +0.000 A 
ATOM     22  N   UNL     1      48.028   6.075  17.714  0.00  0.00    +0.000 NA
ATOM     23  C   UNL     1      48.755   7.174  17.991  0.00  0.00    +0.000 A 
ATOM     24  C   UNL     1      50.063   7.337  17.610  0.00  0.00    +0.000 A 
ATOM     25  C   UNL     1      50.608   6.288  16.912  0.00  0.00    +0.000 A 
ATOM     26  N   UNL     1      49.924   5.171  16.598  0.00  0.00    +0.000 NA
ENDBRANCH  18  21
ENDBRANCH   4  18
TORSDOF 4
ENDMDL
MODEL 9
REMARK VINA RESULT:    -5.888      2.047      2.845
REMARK INTER + INTRA:          -6.757
REMARK INTER:                  -6.964
REMARK INTRA:                   0.207
REMARK UNBOUND:                 0.508
REMARK  Name = 
REMARK  7 active torsions:
REMARK  status: ('A' for Active; 'I' for Inactive)
REMARK    1  A    between atoms: C_1  and  C_2
REMARK    2  A    between atoms: C_2  and  C_3
REMARK    3  A    between atoms: C_2  and  C_4
REMARK    4  A    between atoms: C_2  and  C_5
REMARK    5  A    between atoms: N_8  and  C_9
REMARK    6  A    between atoms: C_9  and  C_10
REMARK    7  A    between atoms: C_20  and  C_21
REMARK                            x       y       z     vdW  Elec       q    Type
REMARK                         _______ _______ _______ _____ _____    ______ ____
ROOT
ATOM      1  C   UNL     1      48.837   5.337  16.766  0.00  0.00    +0.000 A 
ATOM      2  N   UNL     1      48.255   5.012  15.563  0.00  0.00    +0.000 NA
ATOM      3  C   UNL     1      47.985   5.947  14.628  0.00  0.00    +0.000 A 
ATOM      4  N   UNL     1      47.492   5.461  13.413  0.00  0.00    +0.000 N 
ATOM      5  C   UNL     1      48.299   7.269  14.841  0.00  0.00    +0.000 A 
ATOM      6  C   UNL     1      48.902   7.628  16.043  0.00  0.00    +0.000 A 
ATOM      7  C   UNL     1      49.162   6.674  17.046  0.00  0.00    +0.000 A 
ATOM      8  H   UNL     1      47.266   4.480  13.575  0.00  0.00    +0.000 HD
ENDROOT
BRANCH   7   9
ATOM      9  C   UNL     1      49.815   7.184  18.291  0.00  0.00    +0.000 C 
ATOM     10  N   UNL     1      51.181   7.109  18.359  0.00  0.00    +0.000 N 
ATOM     11  O   UNL     1      49.208   7.637  19.248  0.00  0.00    +0.000 OA
ATOM     12  H   UNL     1      51.781   6.834  17.596  0.00  0.00    +0.000 HD
ATOM     13  H   UNL     1      51.616   7.456  19.207  0.00  0.00    +0.000 HD
ENDBRANCH   7   9
BRANCH   1  15
ATOM     14  C   UNL     1      48.305   2.868  17.129  0.00  0.00    +0.000 C 
ATOM     15  C   UNL     1      49.056   4.119  17.691  0.00  0.00    +0.000 C 
ATOM     16  C   UNL     1      48.489   4.333  19.108  0.00  0.00    +0.000 C 
ATOM     17  C   UNL     1      50.538   3.693  17.738  0.00  0.00    +0.000 C 
ENDBRANCH   1  15
BRANCH   4  18
ATOM     18  C   UNL     1      46.518   6.192  12.560  0.00  0.00    +0.000 C 
ATOM     19  C   UNL     1      47.161   7.020  11.448  0.00  0.00    +0.000 C 
ATOM     20  C   UNL     1      46.417   7.709  12.538  0.00  0.00    +0.000 C 
BRANCH  18  21
ATOM     21  C   UNL     1      45.256   5.380  12.190  0.00  0.00    +0.000 A 
ATOM     22  N   UNL     1      45.325   4.027  12.183  0.00  0.00    +0.000 NA
ATOM     23  C   UNL     1      44.213   3.355  11.829  0.00  0.00    +0.000 A 
ATOM     24  C   UNL     1      43.029   3.964  11.496  0.00  0.00    +0.000 A 
ATOM     25  C   UNL     1      43.039   5.336  11.545  0.00  0.00    +0.000 A 
ATOM     26  N   UNL     1      44.125   6.059  11.882  0.00  0.00    +0.000 NA
ENDBRANCH  18  21
ENDBRANCH   4  18
TORSDOF 4
ENDMDL
