MODEL 1
REMARK VINA RESULT:    -7.998      0.000      0.000
REMARK INTER + INTRA:         -12.875
REMARK INTER:                 -11.505
REMARK INTRA:                  -1.371
REMARK UNBOUND:                -1.371
REMARK  Name = 
REMARK  8 active torsions:
REMARK  status: ('A' for Active; 'I' for Inactive)
REMARK    1  A    between atoms: N_1  and  C_2
REMARK    2  A    between atoms: C_2  and  C_3
REMARK    3  A    between atoms: C_3  and  N_4
REMARK    4  A    between atoms: C_3  and  C_17
REMARK    5  A    between atoms: C_5  and  C_7
REMARK    6  A    between atoms: C_20  and  O_21
REMARK    7  A    between atoms: O_21  and  C_22
REMARK    8  A    between atoms: C_22  and  C_23
REMARK                            x       y       z     vdW  Elec       q    Type
REMARK                         _______ _______ _______ _____ _____    ______ ____
ROOT
ATOM      1  C   UNL     1      47.898   7.089  13.829  0.00  0.00    +0.000 C 
ENDROOT
BRANCH   1   2
ATOM      2  C   UNL     1      46.964   6.217  12.991  0.00  0.00    +0.000 A 
ATOM      3  C   UNL     1      46.544   4.959  13.444  0.00  0.00    +0.000 A 
ATOM      4  C   UNL     1      45.681   4.180  12.664  0.00  0.00    +0.000 A 
ATOM      5  C   UNL     1      45.218   4.652  11.435  0.00  0.00    +0.000 A 
ATOM      6  C   UNL     1      45.661   5.887  10.963  0.00  0.00    +0.000 A 
ATOM      7  C   UNL     1      46.508   6.670  11.743  0.00  0.00    +0.000 A 
BRANCH   5   8
ATOM      8  O   UNL     1      44.331   3.842  10.776  0.00  0.00    +0.000 OA
BRANCH   8   9
ATOM      9  C   UNL     1      44.204   4.117   9.375  0.00  0.00    +0.000 C 
BRANCH   9  10
ATOM     10  C   UNL     1      45.218   3.355   8.556  0.00  0.00    +0.000 A 
ATOM     11  C   UNL     1      45.459   2.001   8.775  0.00  0.00    +0.000 A 
ATOM     12  C   UNL     1      46.420   1.359   8.000  0.00  0.00    +0.000 A 
ATOM     13  C   UNL     1      47.122   2.081   7.041  0.00  0.00    +0.000 A 
ATOM     14  C   UNL     1      46.837   3.428   6.900  0.00  0.00    +0.000 A 
ATOM     15  N   UNL     1      45.912   4.077   7.636  0.00  0.00    +0.000 NA
ENDBRANCH   9  10
ENDBRANCH   8   9
ENDBRANCH   5   8
ENDBRANCH   1   2
BRANCH   1  16
ATOM     16  N   UNL     1      47.892   6.566  15.191  0.00  0.00    +0.000 N 
ATOM     17  C   UNL     1      49.030   6.280  15.898  0.00  0.00    +0.000 C 
ATOM     18  O   UNL     1      50.155   6.556  15.496  0.00  0.00    +0.000 OA
ATOM     19  H   UNL     1      47.041   6.081  15.457  0.00  0.00    +0.000 HD
BRANCH  17  20
ATOM     20  C   UNL     1      48.818   5.675  17.217  0.00  0.00    +0.000 A 
ATOM     21  C   UNL     1      49.047   4.320  17.410  0.00  0.00    +0.000 A 
ATOM     22  S   UNL     1      48.765   3.805  19.012  0.00  0.00    +0.000 S 
ATOM     23  C   UNL     1      48.278   5.366  19.488  0.00  0.00    +0.000 A 
ATOM     24  N   UNL     1      47.865   5.619  20.758  0.00  0.00    +0.000 NA
ATOM     25  C   UNL     1      47.495   6.839  20.965  0.00  0.00    +0.000 A 
ATOM     26  N   UNL     1      47.510   7.835  20.022  0.00  0.00    +0.000 N 
ATOM     27  C   UNL     1      47.961   7.638  18.742  0.00  0.00    +0.000 A 
ATOM     28  O   UNL     1      48.044   8.563  17.941  0.00  0.00    +0.000 OA
ATOM     29  C   UNL     1      48.361   6.274  18.447  0.00  0.00    +0.000 A 
ATOM     30  H   UNL     1      47.229   8.774  20.253  0.00  0.00    +0.000 HD
ENDBRANCH  17  20
ENDBRANCH   1  16
BRANCH   1  31
ATOM     31  C   UNL     1      47.463   8.586  13.761  0.00  0.00    +0.000 C 
BRANCH  31  32
ATOM     32  N   UNL     1      47.418   9.264  15.065  0.00  0.00    +0.000 NA
ATOM     33  H   UNL     1      48.371   9.482  15.352  0.00  0.00    +0.000 HD
ATOM     34  H   UNL     1      47.050   8.625  15.770  0.00  0.00    +0.000 HD
ENDBRANCH  31  32
ENDBRANCH   1  31
TORSDOF 8
ENDMDL
MODEL 2
REMARK VINA RESULT:    -7.626      1.343      2.095
REMARK INTER + INTRA:         -12.340
REMARK INTER:                 -11.316
REMARK INTRA:                  -1.024
REMARK UNBOUND:                -1.371
REMARK  Name = 
REMARK  8 active torsions:
REMARK  status: ('A' for Active; 'I' for Inactive)
REMARK    1  A    between atoms: N_1  and  C_2
REMARK    2  A    between atoms: C_2  and  C_3
REMARK    3  A    between atoms: C_3  and  N_4
REMARK    4  A    between atoms: C_3  and  C_17
REMARK    5  A    between atoms: C_5  and  C_7
REMARK    6  A    between atoms: C_20  and  O_21
REMARK    7  A    between atoms: O_21  and  C_22
REMARK    8  A    between atoms: C_22  and  C_23
REMARK                            x       y       z     vdW  Elec       q    Type
REMARK                         _______ _______ _______ _____ _____    ______ ____
ROOT
ATOM      1  C   UNL     1      48.416   7.157  13.513  0.00  0.00    +0.000 C 
ENDROOT
BRANCH   1   2
ATOM      2  C   UNL     1      47.294   6.305  12.923  0.00  0.00    +0.000 A 
ATOM      3  C   UNL     1      46.583   6.724  11.791  0.00  0.00    +0.000 A 
ATOM      4  C   UNL     1      45.563   5.923  11.261  0.00  0.00    +0.000 A 
ATOM      5  C   UNL     1      45.255   4.693  11.845  0.00  0.00    +0.000 A 
ATOM      6  C   UNL     1      45.935   4.288  12.993  0.00  0.00    +0.000 A 
ATOM      7  C   UNL     1      46.958   5.076  13.514  0.00  0.00    +0.000 A 
BRANCH   5   8
ATOM      8  O   UNL     1      44.284   3.958  11.218  0.00  0.00    +0.000 OA
BRANCH   8   9
ATOM      9  C   UNL     1      44.078   4.298   9.840  0.00  0.00    +0.000 C 
BRANCH   9  10
ATOM     10  C   UNL     1      45.014   3.544   8.927  0.00  0.00    +0.000 A 
ATOM     11  C   UNL     1      45.228   2.177   9.074  0.00  0.00    +0.000 A 
ATOM     12  C   UNL     1      46.118   1.543   8.213  0.00  0.00    +0.000 A 
ATOM     13  C   UNL     1      46.779   2.286   7.241  0.00  0.00    +0.000 A 
ATOM     14  C   UNL     1      46.526   3.644   7.174  0.00  0.00    +0.000 A 
ATOM     15  N   UNL     1      45.669   4.286   7.994  0.00  0.00    +0.000 NA
ENDBRANCH   9  10
ENDBRANCH   8   9
ENDBRANCH   5   8
ENDBRANCH   1   2
BRANCH   1  16
ATOM     16  N   UNL     1      48.237   7.191  14.960  0.00  0.00    +0.000 N 
ATOM     17  C   UNL     1      49.234   6.906  15.855  0.00  0.00    +0.000 C 
ATOM     18  O   UNL     1      50.399   6.721  15.522  0.00  0.00    +0.000 OA
ATOM     19  H   UNL     1      47.278   7.070  15.272  0.00  0.00    +0.000 HD
BRANCH  17  20
ATOM     20  C   UNL     1      48.834   6.903  17.266  0.00  0.00    +0.000 A 
ATOM     21  C   UNL     1      48.391   8.071  17.869  0.00  0.00    +0.000 A 
ATOM     22  S   UNL     1      47.954   7.866  19.506  0.00  0.00    +0.000 S 
ATOM     23  C   UNL     1      48.390   6.221  19.475  0.00  0.00    +0.000 A 
ATOM     24  N   UNL     1      48.293   5.445  20.587  0.00  0.00    +0.000 NA
ATOM     25  C   UNL     1      48.691   4.227  20.423  0.00  0.00    +0.000 A 
ATOM     26  N   UNL     1      49.167   3.708  19.246  0.00  0.00    +0.000 N 
ATOM     27  C   UNL     1      49.240   4.439  18.088  0.00  0.00    +0.000 A 
ATOM     28  O   UNL     1      49.588   3.930  17.029  0.00  0.00    +0.000 OA
ATOM     29  C   UNL     1      48.832   5.826  18.225  0.00  0.00    +0.000 A 
ATOM     30  H   UNL     1      49.440   2.741  19.178  0.00  0.00    +0.000 HD
ENDBRANCH  17  20
ENDBRANCH   1  16
BRANCH   1  31
ATOM     31  C   UNL     1      48.419   8.583  12.877  0.00  0.00    +0.000 C 
BRANCH  31  32
ATOM     32  N   UNL     1      47.750   9.610  13.689  0.00  0.00    +0.000 NA
ATOM     33  H   UNL     1      47.450  10.367  13.076  0.00  0.00    +0.000 HD
ATOM     34  H   UNL     1      48.420  10.022  14.339  0.00  0.00    +0.000 HD
ENDBRANCH  31  32
ENDBRANCH   1  31
TORSDOF 8
ENDMDL
MODEL 3
REMARK VINA RESULT:    -7.525      3.290      4.719
REMARK INTER + INTRA:         -12.195
REMARK INTER:                 -10.820
REMARK INTRA:                  -1.375
REMARK UNBOUND:                -1.371
REMARK  Name = 
REMARK  8 active torsions:
REMARK  status: ('A' for Active; 'I' for Inactive)
REMARK    1  A    between atoms: N_1  and  C_2
REMARK    2  A    between atoms: C_2  and  C_3
REMARK    3  A    between atoms: C_3  and  N_4
REMARK    4  A    between atoms: C_3  and  C_17
REMARK    5  A    between atoms: C_5  and  C_7
REMARK    6  A    between atoms: C_20  and  O_21
REMARK    7  A    between atoms: O_21  and  C_22
REMARK    8  A    between atoms: C_22  and  C_23
REMARK                            x       y       z     vdW  Elec       q    Type
REMARK                         _______ _______ _______ _____ _____    ______ ____
ROOT
ATOM      1  C   UNL     1      46.769   5.651  14.082  0.00  0.00    +0.000 C 
ENDROOT
BRANCH   1   2
ATOM      2  C   UNL     1      46.080   5.076  12.845  0.00  0.00    +0.000 A 
ATOM      3  C   UNL     1      45.595   3.762  12.829  0.00  0.00    +0.000 A 
ATOM      4  C   UNL     1      44.959   3.258  11.687  0.00  0.00    +0.000 A 
ATOM      5  C   UNL     1      44.787   4.063  10.561  0.00  0.00    +0.000 A 
ATOM      6  C   UNL     1      45.299   5.360  10.558  0.00  0.00    +0.000 A 
ATOM      7  C   UNL     1      45.920   5.868  11.696  0.00  0.00    +0.000 A 
BRANCH   5   8
ATOM      8  O   UNL     1      44.100   3.497   9.518  0.00  0.00    +0.000 OA
BRANCH   8   9
ATOM      9  C   UNL     1      44.532   2.175   9.170  0.00  0.00    +0.000 C 
BRANCH   9  10
ATOM     10  C   UNL     1      45.655   2.196   8.162  0.00  0.00    +0.000 A 
ATOM     11  C   UNL     1      45.843   3.277   7.306  0.00  0.00    +0.000 A 
ATOM     12  C   UNL     1      46.886   3.228   6.385  0.00  0.00    +0.000 A 
ATOM     13  C   UNL     1      47.701   2.103   6.333  0.00  0.00    +0.000 A 
ATOM     14  C   UNL     1      47.435   1.062   7.205  0.00  0.00    +0.000 A 
ATOM     15  N   UNL     1      46.433   1.081   8.107  0.00  0.00    +0.000 NA
ENDBRANCH   9  10
ENDBRANCH   8   9
ENDBRANCH   5   8
ENDBRANCH   1   2
BRANCH   1  16
ATOM     16  N   UNL     1      47.947   6.384  13.635  0.00  0.00    +0.000 N 
ATOM     17  C   UNL     1      48.003   7.750  13.548  0.00  0.00    +0.000 C 
ATOM     18  O   UNL     1      47.111   8.484  13.959  0.00  0.00    +0.000 OA
ATOM     19  H   UNL     1      48.583   5.852  13.049  0.00  0.00    +0.000 HD
BRANCH  17  20
ATOM     20  C   UNL     1      49.243   8.297  12.989  0.00  0.00    +0.000 A 
ATOM     21  C   UNL     1      49.222   8.992  11.788  0.00  0.00    +0.000 A 
ATOM     22  S   UNL     1      50.755   9.567  11.309  0.00  0.00    +0.000 S 
ATOM     23  C   UNL     1      51.505   8.862  12.665  0.00  0.00    +0.000 A 
ATOM     24  N   UNL     1      52.849   8.952  12.852  0.00  0.00    +0.000 NA
ATOM     25  C   UNL     1      53.282   8.341  13.905  0.00  0.00    +0.000 A 
ATOM     26  N   UNL     1      52.495   7.658  14.796  0.00  0.00    +0.000 N 
ATOM     27  C   UNL     1      51.130   7.580  14.674  0.00  0.00    +0.000 A 
ATOM     28  O   UNL     1      50.439   7.037  15.528  0.00  0.00    +0.000 OA
ATOM     29  C   UNL     1      50.595   8.225  13.488  0.00  0.00    +0.000 A 
ATOM     30  H   UNL     1      52.891   7.221  15.612  0.00  0.00    +0.000 HD
ENDBRANCH  17  20
ENDBRANCH   1  16
BRANCH   1  31
ATOM     31  C   UNL     1      47.118   4.516  15.095  0.00  0.00    +0.000 C 
BRANCH  31  32
ATOM     32  N   UNL     1      48.283   4.802  15.947  0.00  0.00    +0.000 NA
ATOM     33  H   UNL     1      49.067   5.061  15.351  0.00  0.00    +0.000 HD
ATOM     34  H   UNL     1      48.566   3.953  16.435  0.00  0.00    +0.000 HD
ENDBRANCH  31  32
ENDBRANCH   1  31
TORSDOF 8
ENDMDL
MODEL 4
REMARK VINA RESULT:    -7.440      2.722      4.158
REMARK INTER + INTRA:         -12.073
REMARK INTER:                 -10.832
REMARK INTRA:                  -1.241
REMARK UNBOUND:                -1.371
REMARK  Name = 
REMARK  8 active torsions:
REMARK  status: ('A' for Active; 'I' for Inactive)
REMARK    1  A    between atoms: N_1  and  C_2
REMARK    2  A    between atoms: C_2  and  C_3
REMARK    3  A    between atoms: C_3  and  N_4
REMARK    4  A    between atoms: C_3  and  C_17
REMARK    5  A    between atoms: C_5  and  C_7
REMARK    6  A    between atoms: C_20  and  O_21
REMARK    7  A    between atoms: O_21  and  C_22
REMARK    8  A    between atoms: C_22  and  C_23
REMARK                            x       y       z     vdW  Elec       q    Type
REMARK                         _______ _______ _______ _____ _____    ______ ____
ROOT
ATOM      1  C   UNL     1      46.829   5.010  14.746  0.00  0.00    +0.000 C 
ENDROOT
BRANCH   1   2
ATOM      2  C   UNL     1      46.190   4.760  13.382  0.00  0.00    +0.000 A 
ATOM      3  C   UNL     1      45.640   3.513  13.055  0.00  0.00    +0.000 A 
ATOM      4  C   UNL     1      45.052   3.308  11.801  0.00  0.00    +0.000 A 
ATOM      5  C   UNL     1      44.992   4.345  10.869  0.00  0.00    +0.000 A 
ATOM      6  C   UNL     1      45.570   5.576  11.175  0.00  0.00    +0.000 A 
ATOM      7  C   UNL     1      46.144   5.788  12.426  0.00  0.00    +0.000 A 
BRANCH   5   8
ATOM      8  O   UNL     1      44.344   4.062   9.696  0.00  0.00    +0.000 OA
BRANCH   8   9
ATOM      9  C   UNL     1      44.412   2.686   9.296  0.00  0.00    +0.000 C 
BRANCH   9  10
ATOM     10  C   UNL     1      45.538   2.438   8.322  0.00  0.00    +0.000 A 
ATOM     11  C   UNL     1      45.952   3.418   7.424  0.00  0.00    +0.000 A 
ATOM     12  C   UNL     1      46.983   3.122   6.538  0.00  0.00    +0.000 A 
ATOM     13  C   UNL     1      47.563   1.858   6.560  0.00  0.00    +0.000 A 
ATOM     14  C   UNL     1      47.080   0.934   7.468  0.00  0.00    +0.000 A 
ATOM     15  N   UNL     1      46.083   1.192   8.339  0.00  0.00    +0.000 NA
ENDBRANCH   9  10
ENDBRANCH   8   9
ENDBRANCH   5   8
ENDBRANCH   1   2
BRANCH   1  16
ATOM     16  N   UNL     1      47.902   5.981  14.564  0.00  0.00    +0.000 N 
ATOM     17  C   UNL     1      48.631   6.509  15.597  0.00  0.00    +0.000 C 
ATOM     18  O   UNL     1      48.533   6.117  16.754  0.00  0.00    +0.000 OA
ATOM     19  H   UNL     1      47.845   6.523  13.708  0.00  0.00    +0.000 HD
BRANCH  17  20
ATOM     20  C   UNL     1      49.604   7.540  15.221  0.00  0.00    +0.000 A 
ATOM     21  C   UNL     1      50.943   7.391  15.551  0.00  0.00    +0.000 A 
ATOM     22  S   UNL     1      51.922   8.682  15.015  0.00  0.00    +0.000 S 
ATOM     23  C   UNL     1      50.579   9.506  14.370  0.00  0.00    +0.000 A 
ATOM     24  N   UNL     1      50.717  10.724  13.780  0.00  0.00    +0.000 NA
ATOM     25  C   UNL     1      49.608  11.244  13.368  0.00  0.00    +0.000 A 
ATOM     26  N   UNL     1      48.375  10.655  13.479  0.00  0.00    +0.000 N 
ATOM     27  C   UNL     1      48.193   9.409  14.024  0.00  0.00    +0.000 A 
ATOM     28  O   UNL     1      47.094   8.867  14.036  0.00  0.00    +0.000 OA
ATOM     29  C   UNL     1      49.406   8.792  14.532  0.00  0.00    +0.000 A 
ATOM     30  H   UNL     1      47.550  11.103  13.116  0.00  0.00    +0.000 HD
ENDBRANCH  17  20
ENDBRANCH   1  16
BRANCH   1  31
ATOM     31  C   UNL     1      47.333   3.672  15.373  0.00  0.00    +0.000 C 
BRANCH  31  32
ATOM     32  N   UNL     1      46.873   3.437  16.750  0.00  0.00    +0.000 NA
ATOM     33  H   UNL     1      47.480   3.949  17.389  0.00  0.00    +0.000 HD
ATOM     34  H   UNL     1      46.985   2.451  16.984  0.00  0.00    +0.000 HD
ENDBRANCH  31  32
ENDBRANCH   1  31
TORSDOF 8
ENDMDL
MODEL 5
REMARK VINA RESULT:    -7.117      2.802      4.677
REMARK INTER + INTRA:         -11.608
REMARK INTER:                 -10.415
REMARK INTRA:                  -1.193
REMARK UNBOUND:                -1.371
REMARK  Name = 
REMARK  8 active torsions:
REMARK  status: ('A' for Active; 'I' for Inactive)
REMARK    1  A    between atoms: N_1  and  C_2
REMARK    2  A    between atoms: C_2  and  C_3
REMARK    3  A    between atoms: C_3  and  N_4
REMARK    4  A    between atoms: C_3  and  C_17
REMARK    5  A    between atoms: C_5  and  C_7
REMARK    6  A    between atoms: C_20  and  O_21
REMARK    7  A    between atoms: O_21  and  C_22
REMARK    8  A    between atoms: C_22  and  C_23
REMARK                            x       y       z     vdW  Elec       q    Type
REMARK                         _______ _______ _______ _____ _____    ______ ____
ROOT
ATOM      1  C   UNL     1      46.939   5.140  14.992  0.00  0.00    +0.000 C 
ENDROOT
BRANCH   1   2
ATOM      2  C   UNL     1      46.081   4.700  13.807  0.00  0.00    +0.000 A 
ATOM      3  C   UNL     1      45.138   5.563  13.233  0.00  0.00    +0.000 A 
ATOM      4  C   UNL     1      44.368   5.143  12.142  0.00  0.00    +0.000 A 
ATOM      5  C   UNL     1      44.541   3.868  11.603  0.00  0.00    +0.000 A 
ATOM      6  C   UNL     1      45.453   2.992  12.192  0.00  0.00    +0.000 A 
ATOM      7  C   UNL     1      46.229   3.411  13.269  0.00  0.00    +0.000 A 
BRANCH   5   8
ATOM      8  O   UNL     1      43.784   3.573  10.500  0.00  0.00    +0.000 OA
BRANCH   8   9
ATOM      9  C   UNL     1      44.188   4.253   9.304  0.00  0.00    +0.000 C 
BRANCH   9  10
ATOM     10  C   UNL     1      45.220   3.469   8.531  0.00  0.00    +0.000 A 
ATOM     11  C   UNL     1      45.392   2.101   8.729  0.00  0.00    +0.000 A 
ATOM     12  C   UNL     1      46.374   1.438   7.999  0.00  0.00    +0.000 A 
ATOM     13  C   UNL     1      47.164   2.153   7.106  0.00  0.00    +0.000 A 
ATOM     14  C   UNL     1      46.944   3.513   6.983  0.00  0.00    +0.000 A 
ATOM     15  N   UNL     1      46.000   4.183   7.676  0.00  0.00    +0.000 NA
ENDBRANCH   9  10
ENDBRANCH   8   9
ENDBRANCH   5   8
ENDBRANCH   1   2
BRANCH   1  16
ATOM     16  N   UNL     1      48.018   5.973  14.476  0.00  0.00    +0.000 N 
ATOM     17  C   UNL     1      48.727   6.859  15.243  0.00  0.00    +0.000 C 
ATOM     18  O   UNL     1      48.601   6.939  16.460  0.00  0.00    +0.000 OA
ATOM     19  H   UNL     1      47.982   6.145  13.476  0.00  0.00    +0.000 HD
BRANCH  17  20
ATOM     20  C   UNL     1      49.710   7.673  14.523  0.00  0.00    +0.000 A 
ATOM     21  C   UNL     1      51.026   7.729  14.960  0.00  0.00    +0.000 A 
ATOM     22  S   UNL     1      52.024   8.712  13.985  0.00  0.00    +0.000 S 
ATOM     23  C   UNL     1      50.720   9.134  12.977  0.00  0.00    +0.000 A 
ATOM     24  N   UNL     1      50.883   9.994  11.936  0.00  0.00    +0.000 NA
ATOM     25  C   UNL     1      49.800  10.248  11.280  0.00  0.00    +0.000 A 
ATOM     26  N   UNL     1      48.568   9.713  11.560  0.00  0.00    +0.000 N 
ATOM     27  C   UNL     1      48.364   8.807  12.569  0.00  0.00    +0.000 A 
ATOM     28  O   UNL     1      47.273   8.278  12.746  0.00  0.00    +0.000 OA
ATOM     29  C   UNL     1      49.546   8.509  13.359  0.00  0.00    +0.000 A 
ATOM     30  H   UNL     1      47.765   9.934  10.994  0.00  0.00    +0.000 HD
ENDBRANCH  17  20
ENDBRANCH   1  16
BRANCH   1  31
ATOM     31  C   UNL     1      47.464   3.900  15.782  0.00  0.00    +0.000 C 
BRANCH  31  32
ATOM     32  N   UNL     1      46.714   3.602  17.011  0.00  0.00    +0.000 NA
ATOM     33  H   UNL     1      46.878   4.350  17.683  0.00  0.00    +0.000 HD
ATOM     34  H   UNL     1      47.081   2.752  17.438  0.00  0.00    +0.000 HD
ENDBRANCH  31  32
ENDBRANCH   1  31
TORSDOF 8
ENDMDL
MODEL 6
REMARK VINA RESULT:    -6.947      1.781      2.426
REMARK INTER + INTRA:         -11.363
REMARK INTER:                 -10.640
REMARK INTRA:                  -0.723
REMARK UNBOUND:                -1.371
REMARK  Name = 
REMARK  8 active torsions:
REMARK  status: ('A' for Active; 'I' for Inactive)
REMARK    1  A    between atoms: N_1  and  C_2
REMARK    2  A    between atoms: C_2  and  C_3
REMARK    3  A    between atoms: C_3  and  N_4
REMARK    4  A    between atoms: C_3  and  C_17
REMARK    5  A    between atoms: C_5  and  C_7
REMARK    6  A    between atoms: C_20  and  O_21
REMARK    7  A    between atoms: O_21  and  C_22
REMARK    8  A    between atoms: C_22  and  C_23
REMARK                            x       y       z     vdW  Elec       q    Type
REMARK                         _______ _______ _______ _____ _____    ______ ____
ROOT
ATOM      1  C   UNL     1      47.887   7.402  13.292  0.00  0.00    +0.000 C 
ENDROOT
BRANCH   1   2
ATOM      2  C   UNL     1      46.838   6.586  12.539  0.00  0.00    +0.000 A 
ATOM      3  C   UNL     1      45.918   5.779  13.221  0.00  0.00    +0.000 A 
ATOM      4  C   UNL     1      44.959   5.046  12.511  0.00  0.00    +0.000 A 
ATOM      5  C   UNL     1      44.898   5.123  11.119  0.00  0.00    +0.000 A 
ATOM      6  C   UNL     1      45.833   5.896  10.433  0.00  0.00    +0.000 A 
ATOM      7  C   UNL     1      46.780   6.637  11.136  0.00  0.00    +0.000 A 
BRANCH   5   8
ATOM      8  O   UNL     1      43.887   4.417  10.522  0.00  0.00    +0.000 OA
BRANCH   8   9
ATOM      9  C   UNL     1      44.174   3.026  10.320  0.00  0.00    +0.000 C 
BRANCH   9  10
ATOM     10  C   UNL     1      45.033   2.799   9.100  0.00  0.00    +0.000 A 
ATOM     11  C   UNL     1      45.111   3.744   8.080  0.00  0.00    +0.000 A 
ATOM     12  C   UNL     1      45.906   3.468   6.972  0.00  0.00    +0.000 A 
ATOM     13  C   UNL     1      46.589   2.259   6.903  0.00  0.00    +0.000 A 
ATOM     14  C   UNL     1      46.442   1.365   7.948  0.00  0.00    +0.000 A 
ATOM     15  N   UNL     1      45.679   1.605   9.035  0.00  0.00    +0.000 NA
ENDBRANCH   9  10
ENDBRANCH   8   9
ENDBRANCH   5   8
ENDBRANCH   1   2
BRANCH   1  16
ATOM     16  N   UNL     1      47.990   6.857  14.641  0.00  0.00    +0.000 N 
ATOM     17  C   UNL     1      49.179   6.658  15.291  0.00  0.00    +0.000 C 
ATOM     18  O   UNL     1      50.257   7.036  14.845  0.00  0.00    +0.000 OA
ATOM     19  H   UNL     1      47.196   6.297  14.935  0.00  0.00    +0.000 HD
BRANCH  17  20
ATOM     20  C   UNL     1      49.081   6.015  16.605  0.00  0.00    +0.000 A 
ATOM     21  C   UNL     1      49.609   6.636  17.728  0.00  0.00    +0.000 A 
ATOM     22  S   UNL     1      49.382   5.745  19.166  0.00  0.00    +0.000 S 
ATOM     23  C   UNL     1      48.616   4.477  18.326  0.00  0.00    +0.000 A 
ATOM     24  N   UNL     1      48.191   3.360  18.974  0.00  0.00    +0.000 NA
ATOM     25  C   UNL     1      47.659   2.469  18.204  0.00  0.00    +0.000 A 
ATOM     26  N   UNL     1      47.502   2.595  16.847  0.00  0.00    +0.000 N 
ATOM     27  C   UNL     1      47.874   3.722  16.159  0.00  0.00    +0.000 A 
ATOM     28  O   UNL     1      47.647   3.846  14.961  0.00  0.00    +0.000 OA
ATOM     29  C   UNL     1      48.506   4.744  16.974  0.00  0.00    +0.000 A 
ATOM     30  H   UNL     1      47.058   1.872  16.306  0.00  0.00    +0.000 HD
ENDBRANCH  17  20
ENDBRANCH   1  16
BRANCH   1  31
ATOM     31  C   UNL     1      47.517   8.918  13.285  0.00  0.00    +0.000 C 
BRANCH  31  32
ATOM     32  N   UNL     1      47.657   9.582  14.590  0.00  0.00    +0.000 NA
ATOM     33  H   UNL     1      46.803  10.104  14.783  0.00  0.00    +0.000 HD
ATOM     34  H   UNL     1      48.406  10.273  14.543  0.00  0.00    +0.000 HD
ENDBRANCH  31  32
ENDBRANCH   1  31
TORSDOF 8
ENDMDL
MODEL 7
REMARK VINA RESULT:    -6.823      2.804      3.940
REMARK INTER + INTRA:         -11.185
REMARK INTER:                 -10.003
REMARK INTRA:                  -1.182
REMARK UNBOUND:                -1.371
REMARK  Name = 
REMARK  8 active torsions:
REMARK  status: ('A' for Active; 'I' for Inactive)
REMARK    1  A    between atoms: N_1  and  C_2
REMARK    2  A    between atoms: C_2  and  C_3
REMARK    3  A    between atoms: C_3  and  N_4
REMARK    4  A    between atoms: C_3  and  C_17
REMARK    5  A    between atoms: C_5  and  C_7
REMARK    6  A    between atoms: C_20  and  O_21
REMARK    7  A    between atoms: O_21  and  C_22
REMARK    8  A    between atoms: C_22  and  C_23
REMARK                            x       y       z     vdW  Elec       q    Type
REMARK                         _______ _______ _______ _____ _____    ______ ____
ROOT
ATOM      1  C   UNL     1      47.074   5.134  15.077  0.00  0.00    +0.000 C 
ENDROOT
BRANCH   1   2
ATOM      2  C   UNL     1      46.503   5.125  13.660  0.00  0.00    +0.000 A 
ATOM      3  C   UNL     1      46.761   6.173  12.767  0.00  0.00    +0.000 A 
ATOM      4  C   UNL     1      46.235   6.141  11.470  0.00  0.00    +0.000 A 
ATOM      5  C   UNL     1      45.463   5.058  11.047  0.00  0.00    +0.000 A 
ATOM      6  C   UNL     1      45.173   4.030  11.943  0.00  0.00    +0.000 A 
ATOM      7  C   UNL     1      45.706   4.053  13.229  0.00  0.00    +0.000 A 
BRANCH   5   8
ATOM      8  O   UNL     1      45.045   5.092   9.742  0.00  0.00    +0.000 OA
BRANCH   8   9
ATOM      9  C   UNL     1      44.480   3.862   9.268  0.00  0.00    +0.000 C 
BRANCH   9  10
ATOM     10  C   UNL     1      45.423   3.127   8.346  0.00  0.00    +0.000 A 
ATOM     11  C   UNL     1      45.795   1.808   8.589  0.00  0.00    +0.000 A 
ATOM     12  C   UNL     1      46.683   1.192   7.712  0.00  0.00    +0.000 A 
ATOM     13  C   UNL     1      47.183   1.905   6.629  0.00  0.00    +0.000 A 
ATOM     14  C   UNL     1      46.779   3.218   6.470  0.00  0.00    +0.000 A 
ATOM     15  N   UNL     1      45.920   3.843   7.302  0.00  0.00    +0.000 NA
ENDBRANCH   9  10
ENDBRANCH   8   9
ENDBRANCH   5   8
ENDBRANCH   1   2
BRANCH   1  16
ATOM     16  N   UNL     1      48.358   5.825  15.036  0.00  0.00    +0.000 N 
ATOM     17  C   UNL     1      48.929   6.430  16.124  0.00  0.00    +0.000 C 
ATOM     18  O   UNL     1      48.473   6.336  17.258  0.00  0.00    +0.000 OA
ATOM     19  H   UNL     1      48.632   6.159  14.117  0.00  0.00    +0.000 HD
BRANCH  17  20
ATOM     20  C   UNL     1      50.178   7.153  15.861  0.00  0.00    +0.000 A 
ATOM     21  C   UNL     1      50.160   8.346  15.153  0.00  0.00    +0.000 A 
ATOM     22  S   UNL     1      51.704   9.047  14.964  0.00  0.00    +0.000 S 
ATOM     23  C   UNL     1      52.453   7.753  15.779  0.00  0.00    +0.000 A 
ATOM     24  N   UNL     1      53.802   7.710  15.941  0.00  0.00    +0.000 NA
ATOM     25  C   UNL     1      54.232   6.653  16.547  0.00  0.00    +0.000 A 
ATOM     26  N   UNL     1      53.436   5.640  17.019  0.00  0.00    +0.000 N 
ATOM     27  C   UNL     1      52.068   5.662  16.919  0.00  0.00    +0.000 A 
ATOM     28  O   UNL     1      51.374   4.787  17.422  0.00  0.00    +0.000 OA
ATOM     29  C   UNL     1      51.535   6.816  16.217  0.00  0.00    +0.000 A 
ATOM     30  H   UNL     1      53.832   4.852  17.505  0.00  0.00    +0.000 HD
ENDBRANCH  17  20
ENDBRANCH   1  16
BRANCH   1  31
ATOM     31  C   UNL     1      47.194   3.681  15.633  0.00  0.00    +0.000 C 
BRANCH  31  32
ATOM     32  N   UNL     1      46.842   3.545  17.056  0.00  0.00    +0.000 NA
ATOM     33  H   UNL     1      47.683   3.688  17.614  0.00  0.00    +0.000 HD
ATOM     34  H   UNL     1      46.538   2.590  17.242  0.00  0.00    +0.000 HD
ENDBRANCH  31  32
ENDBRANCH   1  31
TORSDOF 8
ENDMDL
MODEL 8
REMARK VINA RESULT:    -6.435      3.322      9.303
REMARK INTER + INTRA:         -10.627
REMARK INTER:                  -9.434
REMARK INTRA:                  -1.193
REMARK UNBOUND:                -1.371
REMARK  Name = 
REMARK  8 active torsions:
REMARK  status: ('A' for Active; 'I' for Inactive)
REMARK    1  A    between atoms: N_1  and  C_2
REMARK    2  A    between atoms: C_2  and  C_3
REMARK    3  A    between atoms: C_3  and  N_4
REMARK    4  A    between atoms: C_3  and  C_17
REMARK    5  A    between atoms: C_5  and  C_7
REMARK    6  A    between atoms: C_20  and  O_21
REMARK    7  A    between atoms: O_21  and  C_22
REMARK    8  A    between atoms: C_22  and  C_23
REMARK                            x       y       z     vdW  Elec       q    Type
REMARK                         _______ _______ _______ _____ _____    ______ ____
ROOT
ATOM      1  C   UNL     1      44.987   5.696  11.921  0.00  0.00    +0.000 C 
ENDROOT
BRANCH   1   2
ATOM      2  C   UNL     1      46.067   5.717  13.001  0.00  0.00    +0.000 A 
ATOM      3  C   UNL     1      46.142   4.711  13.973  0.00  0.00    +0.000 A 
ATOM      4  C   UNL     1      47.145   4.745  14.949  0.00  0.00    +0.000 A 
ATOM      5  C   UNL     1      48.090   5.771  14.957  0.00  0.00    +0.000 A 
ATOM      6  C   UNL     1      47.999   6.795  14.014  0.00  0.00    +0.000 A 
ATOM      7  C   UNL     1      47.011   6.757  13.034  0.00  0.00    +0.000 A 
BRANCH   5   8
ATOM      8  O   UNL     1      49.066   5.683  15.915  0.00  0.00    +0.000 OA
BRANCH   8   9
ATOM      9  C   UNL     1      48.761   4.786  16.991  0.00  0.00    +0.000 C 
BRANCH   9  10
ATOM     10  C   UNL     1      49.868   3.786  17.222  0.00  0.00    +0.000 A 
ATOM     11  C   UNL     1      49.678   2.426  16.992  0.00  0.00    +0.000 A 
ATOM     12  C   UNL     1      50.732   1.552  17.241  0.00  0.00    +0.000 A 
ATOM     13  C   UNL     1      51.936   2.051  17.723  0.00  0.00    +0.000 A 
ATOM     14  C   UNL     1      52.037   3.412  17.945  0.00  0.00    +0.000 A 
ATOM     15  N   UNL     1      51.034   4.284  17.713  0.00  0.00    +0.000 NA
ENDBRANCH   9  10
ENDBRANCH   8   9
ENDBRANCH   5   8
ENDBRANCH   1   2
BRANCH   1  16
ATOM     16  N   UNL     1      45.337   4.655  10.962  0.00  0.00    +0.000 N 
ATOM     17  C   UNL     1      44.464   4.156  10.031  0.00  0.00    +0.000 C 
ATOM     18  O   UNL     1      43.349   4.628   9.839  0.00  0.00    +0.000 OA
ATOM     19  H   UNL     1      46.112   4.063  11.241  0.00  0.00    +0.000 HD
BRANCH  17  20
ATOM     20  C   UNL     1      44.974   3.048   9.217  0.00  0.00    +0.000 A 
ATOM     21  C   UNL     1      44.473   1.766   9.389  0.00  0.00    +0.000 A 
ATOM     22  S   UNL     1      45.175   0.616   8.341  0.00  0.00    +0.000 S 
ATOM     23  C   UNL     1      46.207   1.786   7.659  0.00  0.00    +0.000 A 
ATOM     24  N   UNL     1      47.111   1.453   6.700  0.00  0.00    +0.000 NA
ATOM     25  C   UNL     1      47.849   2.435   6.300  0.00  0.00    +0.000 A 
ATOM     26  N   UNL     1      47.759   3.723   6.761  0.00  0.00    +0.000 N 
ATOM     27  C   UNL     1      46.832   4.115   7.694  0.00  0.00    +0.000 A 
ATOM     28  O   UNL     1      46.715   5.288   8.028  0.00  0.00    +0.000 OA
ATOM     29  C   UNL     1      45.997   3.041   8.200  0.00  0.00    +0.000 A 
ATOM     30  H   UNL     1      48.350   4.451   6.391  0.00  0.00    +0.000 HD
ENDBRANCH  17  20
ENDBRANCH   1  16
BRANCH   1  31
ATOM     31  C   UNL     1      44.845   7.101  11.256  0.00  0.00    +0.000 C 
BRANCH  31  32
ATOM     32  N   UNL     1      43.456   7.561  11.101  0.00  0.00    +0.000 NA
ATOM     33  H   UNL     1      42.951   6.887  10.528  0.00  0.00    +0.000 HD
ATOM     34  H   UNL     1      43.443   8.439  10.583  0.00  0.00    +0.000 HD
ENDBRANCH  31  32
ENDBRANCH   1  31
TORSDOF 8
ENDMDL
MODEL 9
REMARK VINA RESULT:    -6.088      3.363      4.607
REMARK INTER + INTRA:         -10.128
REMARK INTER:                  -8.769
REMARK INTRA:                  -1.359
REMARK UNBOUND:                -1.371
REMARK  Name = 
REMARK  8 active torsions:
REMARK  status: ('A' for Active; 'I' for Inactive)
REMARK    1  A    between atoms: N_1  and  C_2
REMARK    2  A    between atoms: C_2  and  C_3
REMARK    3  A    between atoms: C_3  and  N_4
REMARK    4  A    between atoms: C_3  and  C_17
REMARK    5  A    between atoms: C_5  and  C_7
REMARK    6  A    between atoms: C_20  and  O_21
REMARK    7  A    between atoms: O_21  and  C_22
REMARK    8  A    between atoms: C_22  and  C_23
REMARK                            x       y       z     vdW  Elec       q    Type
REMARK                         _______ _______ _______ _____ _____    ______ ____
ROOT
ATOM      1  C   UNL     1      48.033   4.990  16.904  0.00  0.00    +0.000 C 
ENDROOT
BRANCH   1   2
ATOM      2  C   UNL     1      47.695   5.307  15.449  0.00  0.00    +0.000 A 
ATOM      3  C   UNL     1      46.752   4.550  14.741  0.00  0.00    +0.000 A 
ATOM      4  C   UNL     1      46.450   4.863  13.410  0.00  0.00    +0.000 A 
ATOM      5  C   UNL     1      47.072   5.941  12.779  0.00  0.00    +0.000 A 
ATOM      6  C   UNL     1      48.037   6.676  13.466  0.00  0.00    +0.000 A 
ATOM      7  C   UNL     1      48.330   6.375  14.794  0.00  0.00    +0.000 A 
BRANCH   5   8
ATOM      8  O   UNL     1      46.665   6.202  11.496  0.00  0.00    +0.000 OA
BRANCH   8   9
ATOM      9  C   UNL     1      45.322   5.793  11.205  0.00  0.00    +0.000 C 
BRANCH   9  10
ATOM     10  C   UNL     1      45.274   4.757  10.108  0.00  0.00    +0.000 A 
ATOM     11  C   UNL     1      44.671   3.518  10.305  0.00  0.00    +0.000 A 
ATOM     12  C   UNL     1      44.676   2.598   9.261  0.00  0.00    +0.000 A 
ATOM     13  C   UNL     1      45.290   2.929   8.059  0.00  0.00    +0.000 A 
ATOM     14  C   UNL     1      45.884   4.174   7.950  0.00  0.00    +0.000 A 
ATOM     15  N   UNL     1      45.896   5.086   8.944  0.00  0.00    +0.000 NA
ENDBRANCH   9  10
ENDBRANCH   8   9
ENDBRANCH   5   8
ENDBRANCH   1   2
BRANCH   1  16
ATOM     16  N   UNL     1      49.481   4.849  17.004  0.00  0.00    +0.000 N 
ATOM     17  C   UNL     1      50.254   5.558  17.885  0.00  0.00    +0.000 C 
ATOM     18  O   UNL     1      49.783   6.282  18.756  0.00  0.00    +0.000 OA
ATOM     19  H   UNL     1      49.933   4.493  16.167  0.00  0.00    +0.000 HD
BRANCH  17  20
ATOM     20  C   UNL     1      51.700   5.346  17.771  0.00  0.00    +0.000 A 
ATOM     21  C   UNL     1      52.557   6.428  17.637  0.00  0.00    +0.000 A 
ATOM     22  S   UNL     1      54.202   5.984  17.536  0.00  0.00    +0.000 S 
ATOM     23  C   UNL     1      53.817   4.327  17.618  0.00  0.00    +0.000 A 
ATOM     24  N   UNL     1      54.785   3.375  17.550  0.00  0.00    +0.000 NA
ATOM     25  C   UNL     1      54.343   2.162  17.590  0.00  0.00    +0.000 A 
ATOM     26  N   UNL     1      53.022   1.811  17.705  0.00  0.00    +0.000 N 
ATOM     27  C   UNL     1      52.016   2.736  17.823  0.00  0.00    +0.000 A 
ATOM     28  O   UNL     1      50.852   2.398  18.009  0.00  0.00    +0.000 OA
ATOM     29  C   UNL     1      52.457   4.118  17.752  0.00  0.00    +0.000 A 
ATOM     30  H   UNL     1      52.743   0.845  17.754  0.00  0.00    +0.000 HD
ENDBRANCH  17  20
ENDBRANCH   1  16
BRANCH   1  31
ATOM     31  C   UNL     1      47.273   3.713  17.382  0.00  0.00    +0.000 C 
BRANCH  31  32
ATOM     32  N   UNL     1      47.795   3.127  18.626  0.00  0.00    +0.000 NA
ATOM     33  H   UNL     1      48.112   2.179  18.432  0.00  0.00    +0.000 HD
ATOM     34  H   UNL     1      47.039   3.039  19.305  0.00  0.00    +0.000 HD
ENDBRANCH  31  32
ENDBRANCH   1  31
TORSDOF 8
ENDMDL
