MODEL 1
REMARK VINA RESULT:    -7.468      0.000      0.000
REMARK INTER + INTRA:          -9.569
REMARK INTER:                  -9.214
REMARK INTRA:                  -0.355
REMARK UNBOUND:                -0.355
REMARK  Name = 
REMARK  5 active torsions:
REMARK  status: ('A' for Active; 'I' for Inactive)
REMARK    1  A    between atoms: C_1  and  N_2
REMARK    2  A    between atoms: C_5  and  C_6
REMARK    3  A    between atoms: C_6  and  O_7
REMARK    4  A    between atoms: O_7  and  C_8
REMARK    5  A    between atoms: C_11  and  C_12
REMARK                            x       y       z     vdW  Elec       q    Type
REMARK                         _______ _______ _______ _____ _____    ______ ____
ROOT
ATOM      1  C   UNL     1      44.617   3.957   8.905  0.00  0.00    +0.000 A 
ATOM      2  C   UNL     1      44.649   2.602   9.225  0.00  0.00    +0.000 A 
ATOM      3  N   UNL     1      45.536   1.729   8.669  0.00  0.00    +0.000 NA
ATOM      4  C   UNL     1      46.394   2.291   7.769  0.00  0.00    +0.000 A 
ATOM      5  C   UNL     1      46.367   3.640   7.453  0.00  0.00    +0.000 A 
ATOM      6  N   UNL     1      45.480   4.499   8.015  0.00  0.00    +0.000 NA
ENDROOT
BRANCH   4   7
ATOM      7  C   UNL     1      47.388   1.416   7.089  0.00  0.00    +0.000 C 
ATOM      8  N   UNL     1      48.454   2.042   6.506  0.00  0.00    +0.000 N 
ATOM      9  O   UNL     1      47.264   0.197   7.054  0.00  0.00    +0.000 OA
ATOM     10  H   UNL     1      48.546   3.051   6.549  0.00  0.00    +0.000 HD
ATOM     11  H   UNL     1      49.160   1.485   6.046  0.00  0.00    +0.000 HD
ENDBRANCH   4   7
BRANCH   1  12
ATOM     12  O   UNL     1      43.663   4.757   9.504  0.00  0.00    +0.000 OA
BRANCH  12  13
ATOM     13  C   UNL     1      43.316   4.286  10.814  0.00  0.00    +0.000 C 
BRANCH  13  18
ATOM     14  C   UNL     1      47.158   5.645  13.264  0.00  0.00    +0.000 C 
ATOM     15  N   UNL     1      45.737   5.950  13.077  0.00  0.00    +0.000 NA
ATOM     16  C   UNL     1      45.494   6.383  11.694  0.00  0.00    +0.000 C 
ATOM     17  C   UNL     1      44.011   6.669  11.438  0.00  0.00    +0.000 C 
ATOM     18  C   UNL     1      43.124   5.467  11.784  0.00  0.00    +0.000 C 
ATOM     19  C   UNL     1      43.423   5.043  13.229  0.00  0.00    +0.000 C 
ATOM     20  C   UNL     1      44.917   4.793  13.464  0.00  0.00    +0.000 C 
ENDBRANCH  13  18
ENDBRANCH  12  13
ENDBRANCH   1  12
TORSDOF 4
ENDMDL
MODEL 2
REMARK VINA RESULT:    -6.389      1.090      1.603
REMARK INTER + INTRA:          -8.238
REMARK INTER:                  -9.036
REMARK INTRA:                   0.798
REMARK UNBOUND:                -0.355
REMARK  Name = 
REMARK  5 active torsions:
REMARK  status: ('A' for Active; 'I' for Inactive)
REMARK    1  A    between atoms: C_1  and  N_2
REMARK    2  A    between atoms: C_5  and  C_6
REMARK    3  A    between atoms: C_6  and  O_7
REMARK    4  A    between atoms: O_7  and  C_8
REMARK    5  A    between atoms: C_11  and  C_12
REMARK                            x       y       z     vdW  Elec       q    Type
REMARK                         _______ _______ _______ _____ _____    ______ ____
ROOT
ATOM      1  C   UNL     1      44.927   3.706   9.210  0.00  0.00    +0.000 A 
ATOM      2  C   UNL     1      45.206   2.344   9.129  0.00  0.00    +0.000 A 
ATOM      3  N   UNL     1      46.085   1.818   8.230  0.00  0.00    +0.000 NA
ATOM      4  C   UNL     1      46.675   2.737   7.411  0.00  0.00    +0.000 A 
ATOM      5  C   UNL     1      46.403   4.093   7.493  0.00  0.00    +0.000 A 
ATOM      6  N   UNL     1      45.526   4.604   8.395  0.00  0.00    +0.000 NA
ENDROOT
BRANCH   4   7
ATOM      7  C   UNL     1      47.636   2.260   6.379  0.00  0.00    +0.000 C 
ATOM      8  N   UNL     1      47.705   2.992   5.228  0.00  0.00    +0.000 N 
ATOM      9  O   UNL     1      48.332   1.266   6.550  0.00  0.00    +0.000 OA
ATOM     10  H   UNL     1      47.127   3.815   5.103  0.00  0.00    +0.000 HD
ATOM     11  H   UNL     1      48.355   2.712   4.506  0.00  0.00    +0.000 HD
ENDBRANCH   4   7
BRANCH   1  12
ATOM     12  O   UNL     1      44.001   4.140  10.138  0.00  0.00    +0.000 OA
BRANCH  12  13
ATOM     13  C   UNL     1      43.608   3.088  11.033  0.00  0.00    +0.000 C 
BRANCH  13  18
ATOM     14  C   UNL     1      45.286   7.482  11.727  0.00  0.00    +0.000 C 
ATOM     15  N   UNL     1      44.880   6.271  12.446  0.00  0.00    +0.000 NA
ATOM     16  C   UNL     1      43.455   6.002  12.214  0.00  0.00    +0.000 C 
ATOM     17  C   UNL     1      42.995   4.718  12.909  0.00  0.00    +0.000 C 
ATOM     18  C   UNL     1      43.839   3.506  12.497  0.00  0.00    +0.000 C 
ATOM     19  C   UNL     1      45.318   3.838  12.745  0.00  0.00    +0.000 C 
ATOM     20  C   UNL     1      45.742   5.144  12.062  0.00  0.00    +0.000 C 
ENDBRANCH  13  18
ENDBRANCH  12  13
ENDBRANCH   1  12
TORSDOF 4
ENDMDL
MODEL 3
REMARK VINA RESULT:    -6.186      4.090      6.361
REMARK INTER + INTRA:          -7.987
REMARK INTER:                  -7.653
REMARK INTRA:                  -0.334
REMARK UNBOUND:                -0.355
REMARK  Name = 
REMARK  5 active torsions:
REMARK  status: ('A' for Active; 'I' for Inactive)
REMARK    1  A    between atoms: C_1  and  N_2
REMARK    2  A    between atoms: C_5  and  C_6
REMARK    3  A    between atoms: C_6  and  O_7
REMARK    4  A    between atoms: O_7  and  C_8
REMARK    5  A    between atoms: C_11  and  C_12
REMARK                            x       y       z     vdW  Elec       q    Type
REMARK                         _______ _______ _______ _____ _____    ______ ____
ROOT
ATOM      1  C   UNL     1      46.408   3.932  13.665  0.00  0.00    +0.000 A 
ATOM      2  C   UNL     1      46.064   5.275  13.533  0.00  0.00    +0.000 A 
ATOM      3  N   UNL     1      45.164   5.723  12.612  0.00  0.00    +0.000 NA
ATOM      4  C   UNL     1      44.626   4.747  11.825  0.00  0.00    +0.000 A 
ATOM      5  C   UNL     1      44.963   3.409  11.959  0.00  0.00    +0.000 A 
ATOM      6  N   UNL     1      45.859   2.975  12.882  0.00  0.00    +0.000 NA
ENDROOT
BRANCH   4   7
ATOM      7  C   UNL     1      43.648   5.137  10.772  0.00  0.00    +0.000 C 
ATOM      8  N   UNL     1      43.935   4.738   9.497  0.00  0.00    +0.000 N 
ATOM      9  O   UNL     1      42.637   5.779  11.031  0.00  0.00    +0.000 OA
ATOM     10  H   UNL     1      44.772   4.202   9.300  0.00  0.00    +0.000 HD
ATOM     11  H   UNL     1      43.290   4.970   8.754  0.00  0.00    +0.000 HD
ENDBRANCH   4   7
BRANCH   1  12
ATOM     12  O   UNL     1      47.349   3.578  14.612  0.00  0.00    +0.000 OA
BRANCH  12  13
ATOM     13  C   UNL     1      47.475   4.574  15.639  0.00  0.00    +0.000 C 
BRANCH  13  18
ATOM     14  C   UNL     1      50.980   4.549  18.850  0.00  0.00    +0.000 C 
ATOM     15  N   UNL     1      49.579   4.163  18.663  0.00  0.00    +0.000 NA
ATOM     16  C   UNL     1      48.759   5.354  18.405  0.00  0.00    +0.000 C 
ATOM     17  C   UNL     1      47.291   4.994  18.156  0.00  0.00    +0.000 C 
ATOM     18  C   UNL     1      47.131   3.981  17.017  0.00  0.00    +0.000 C 
ATOM     19  C   UNL     1      48.015   2.763  17.325  0.00  0.00    +0.000 C 
ATOM     20  C   UNL     1      49.471   3.155  17.598  0.00  0.00    +0.000 C 
ENDBRANCH  13  18
ENDBRANCH  12  13
ENDBRANCH   1  12
TORSDOF 4
ENDMDL
MODEL 4
REMARK VINA RESULT:    -5.830      1.410      2.406
REMARK INTER + INTRA:          -7.548
REMARK INTER:                  -7.897
REMARK INTRA:                   0.349
REMARK UNBOUND:                -0.355
REMARK  Name = 
REMARK  5 active torsions:
REMARK  status: ('A' for Active; 'I' for Inactive)
REMARK    1  A    between atoms: C_1  and  N_2
REMARK    2  A    between atoms: C_5  and  C_6
REMARK    3  A    between atoms: C_6  and  O_7
REMARK    4  A    between atoms: O_7  and  C_8
REMARK    5  A    between atoms: C_11  and  C_12
REMARK                            x       y       z     vdW  Elec       q    Type
REMARK                         _______ _______ _______ _____ _____    ______ ____
ROOT
ATOM      1  C   UNL     1      45.300   4.314   9.110  0.00  0.00    +0.000 A 
ATOM      2  C   UNL     1      46.103   4.828   8.095  0.00  0.00    +0.000 A 
ATOM      3  N   UNL     1      46.828   4.040   7.251  0.00  0.00    +0.000 NA
ATOM      4  C   UNL     1      46.703   2.701   7.480  0.00  0.00    +0.000 A 
ATOM      5  C   UNL     1      45.900   2.187   8.486  0.00  0.00    +0.000 A 
ATOM      6  N   UNL     1      45.182   2.983   9.319  0.00  0.00    +0.000 NA
ENDROOT
BRANCH   4   7
ATOM      7  C   UNL     1      47.472   1.756   6.625  0.00  0.00    +0.000 C 
ATOM      8  N   UNL     1      48.619   2.240   6.061  0.00  0.00    +0.000 N 
ATOM      9  O   UNL     1      47.103   0.603   6.437  0.00  0.00    +0.000 OA
ATOM     10  H   UNL     1      48.914   3.194   6.231  0.00  0.00    +0.000 HD
ATOM     11  H   UNL     1      49.179   1.628   5.484  0.00  0.00    +0.000 HD
ENDBRANCH   4   7
BRANCH   1  12
ATOM     12  O   UNL     1      44.623   5.195   9.931  0.00  0.00    +0.000 OA
BRANCH  12  13
ATOM     13  C   UNL     1      45.522   5.967  10.742  0.00  0.00    +0.000 C 
BRANCH  13  18
ATOM     14  C   UNL     1      43.433   1.995  12.312  0.00  0.00    +0.000 C 
ATOM     15  N   UNL     1      43.827   3.342  12.736  0.00  0.00    +0.000 NA
ATOM     16  C   UNL     1      45.287   3.485  12.663  0.00  0.00    +0.000 C 
ATOM     17  C   UNL     1      45.743   4.894  13.055  0.00  0.00    +0.000 C 
ATOM     18  C   UNL     1      45.059   5.976  12.210  0.00  0.00    +0.000 C 
ATOM     19  C   UNL     1      43.539   5.777  12.306  0.00  0.00    +0.000 C 
ATOM     20  C   UNL     1      43.115   4.350  11.939  0.00  0.00    +0.000 C 
ENDBRANCH  13  18
ENDBRANCH  12  13
ENDBRANCH   1  12
TORSDOF 4
ENDMDL
MODEL 5
REMARK VINA RESULT:    -5.779      4.222      7.456
REMARK INTER + INTRA:          -7.485
REMARK INTER:                  -7.157
REMARK INTRA:                  -0.329
REMARK UNBOUND:                -0.355
REMARK  Name = 
REMARK  5 active torsions:
REMARK  status: ('A' for Active; 'I' for Inactive)
REMARK    1  A    between atoms: C_1  and  N_2
REMARK    2  A    between atoms: C_5  and  C_6
REMARK    3  A    between atoms: C_6  and  O_7
REMARK    4  A    between atoms: O_7  and  C_8
REMARK    5  A    between atoms: C_11  and  C_12
REMARK                            x       y       z     vdW  Elec       q    Type
REMARK                         _______ _______ _______ _____ _____    ______ ____
ROOT
ATOM      1  C   UNL     1      47.214   5.056  14.764  0.00  0.00    +0.000 A 
ATOM      2  C   UNL     1      48.264   5.831  15.252  0.00  0.00    +0.000 A 
ATOM      3  N   UNL     1      48.934   5.533  16.401  0.00  0.00    +0.000 NA
ATOM      4  C   UNL     1      48.492   4.410  17.039  0.00  0.00    +0.000 A 
ATOM      5  C   UNL     1      47.451   3.636  16.552  0.00  0.00    +0.000 A 
ATOM      6  N   UNL     1      46.793   3.942  15.405  0.00  0.00    +0.000 NA
ENDROOT
BRANCH   4   7
ATOM      7  C   UNL     1      49.144   4.011  18.316  0.00  0.00    +0.000 C 
ATOM      8  N   UNL     1      48.392   3.264  19.177  0.00  0.00    +0.000 N 
ATOM      9  O   UNL     1      50.297   4.331  18.584  0.00  0.00    +0.000 OA
ATOM     10  H   UNL     1      47.442   3.002  18.939  0.00  0.00    +0.000 HD
ATOM     11  H   UNL     1      48.801   2.960  20.050  0.00  0.00    +0.000 HD
ENDBRANCH   4   7
BRANCH   1  12
ATOM     12  O   UNL     1      46.581   5.455  13.603  0.00  0.00    +0.000 OA
BRANCH  12  13
ATOM     13  C   UNL     1      45.391   4.691  13.354  0.00  0.00    +0.000 C 
BRANCH  13  18
ATOM     14  C   UNL     1      44.551   3.358   8.868  0.00  0.00    +0.000 C 
ATOM     15  N   UNL     1      44.169   4.358   9.870  0.00  0.00    +0.000 NA
ATOM     16  C   UNL     1      43.529   3.701  11.017  0.00  0.00    +0.000 C 
ATOM     17  C   UNL     1      43.153   4.703  12.112  0.00  0.00    +0.000 C 
ATOM     18  C   UNL     1      44.359   5.528  12.576  0.00  0.00    +0.000 C 
ATOM     19  C   UNL     1      45.002   6.183  11.344  0.00  0.00    +0.000 C 
ATOM     20  C   UNL     1      45.339   5.160  10.253  0.00  0.00    +0.000 C 
ENDBRANCH  13  18
ENDBRANCH  12  13
ENDBRANCH   1  12
TORSDOF 4
ENDMDL
MODEL 6
REMARK VINA RESULT:    -5.778      2.762      6.511
REMARK INTER + INTRA:          -7.484
REMARK INTER:                  -7.057
REMARK INTRA:                  -0.427
REMARK UNBOUND:                -0.355
REMARK  Name = 
REMARK  5 active torsions:
REMARK  status: ('A' for Active; 'I' for Inactive)
REMARK    1  A    between atoms: C_1  and  N_2
REMARK    2  A    between atoms: C_5  and  C_6
REMARK    3  A    between atoms: C_6  and  O_7
REMARK    4  A    between atoms: O_7  and  C_8
REMARK    5  A    between atoms: C_11  and  C_12
REMARK                            x       y       z     vdW  Elec       q    Type
REMARK                         _______ _______ _______ _____ _____    ______ ____
ROOT
ATOM      1  C   UNL     1      45.778   4.530  13.367  0.00  0.00    +0.000 A 
ATOM      2  C   UNL     1      46.145   5.723  12.748  0.00  0.00    +0.000 A 
ATOM      3  N   UNL     1      47.133   6.532  13.224  0.00  0.00    +0.000 NA
ATOM      4  C   UNL     1      47.737   6.080  14.361  0.00  0.00    +0.000 A 
ATOM      5  C   UNL     1      47.377   4.891  14.975  0.00  0.00    +0.000 A 
ATOM      6  N   UNL     1      46.392   4.092  14.490  0.00  0.00    +0.000 NA
ENDROOT
BRANCH   4   7
ATOM      7  C   UNL     1      48.815   6.904  14.972  0.00  0.00    +0.000 C 
ATOM      8  N   UNL     1      49.363   6.428  16.130  0.00  0.00    +0.000 N 
ATOM      9  O   UNL     1      49.197   7.953  14.466  0.00  0.00    +0.000 OA
ATOM     10  H   UNL     1      49.040   5.556  16.534  0.00  0.00    +0.000 HD
ATOM     11  H   UNL     1      50.108   6.950  16.572  0.00  0.00    +0.000 HD
ENDBRANCH   4   7
BRANCH   1  12
ATOM     12  O   UNL     1      44.746   3.791  12.822  0.00  0.00    +0.000 OA
BRANCH  12  13
ATOM     13  C   UNL     1      45.173   3.042  11.674  0.00  0.00    +0.000 C 
BRANCH  13  18
ATOM     14  C   UNL     1      46.763   3.731   7.247  0.00  0.00    +0.000 C 
ATOM     15  N   UNL     1      45.532   3.538   8.018  0.00  0.00    +0.000 NA
ATOM     16  C   UNL     1      45.542   2.216   8.659  0.00  0.00    +0.000 C 
ATOM     17  C   UNL     1      44.292   1.988   9.515  0.00  0.00    +0.000 C 
ATOM     18  C   UNL     1      44.105   3.088  10.566  0.00  0.00    +0.000 C 
ATOM     19  C   UNL     1      44.115   4.448   9.852  0.00  0.00    +0.000 C 
ATOM     20  C   UNL     1      45.362   4.636   8.980  0.00  0.00    +0.000 C 
ENDBRANCH  13  18
ENDBRANCH  12  13
ENDBRANCH   1  12
TORSDOF 4
ENDMDL
MODEL 7
REMARK VINA RESULT:    -5.169      3.330      5.377
REMARK INTER + INTRA:          -6.732
REMARK INTER:                  -6.389
REMARK INTRA:                  -0.343
REMARK UNBOUND:                -0.355
REMARK  Name = 
REMARK  5 active torsions:
REMARK  status: ('A' for Active; 'I' for Inactive)
REMARK    1  A    between atoms: C_1  and  N_2
REMARK    2  A    between atoms: C_5  and  C_6
REMARK    3  A    between atoms: C_6  and  O_7
REMARK    4  A    between atoms: O_7  and  C_8
REMARK    5  A    between atoms: C_11  and  C_12
REMARK                            x       y       z     vdW  Elec       q    Type
REMARK                         _______ _______ _______ _____ _____    ______ ____
ROOT
ATOM      1  C   UNL     1      45.126   6.518  12.568  0.00  0.00    +0.000 A 
ATOM      2  C   UNL     1      45.425   5.361  13.283  0.00  0.00    +0.000 A 
ATOM      3  N   UNL     1      45.045   4.117  12.874  0.00  0.00    +0.000 NA
ATOM      4  C   UNL     1      44.344   4.095  11.704  0.00  0.00    +0.000 A 
ATOM      5  C   UNL     1      44.050   5.245  10.989  0.00  0.00    +0.000 A 
ATOM      6  N   UNL     1      44.435   6.478  11.405  0.00  0.00    +0.000 NA
ENDROOT
BRANCH   4   7
ATOM      7  C   UNL     1      43.865   2.786  11.184  0.00  0.00    +0.000 C 
ATOM      8  N   UNL     1      44.532   2.277  10.105  0.00  0.00    +0.000 N 
ATOM      9  O   UNL     1      42.924   2.190  11.694  0.00  0.00    +0.000 OA
ATOM     10  H   UNL     1      45.313   2.779   9.698  0.00  0.00    +0.000 HD
ATOM     11  H   UNL     1      44.248   1.383   9.729  0.00  0.00    +0.000 HD
ENDBRANCH   4   7
BRANCH   1  12
ATOM     12  O   UNL     1      45.532   7.736  13.077  0.00  0.00    +0.000 OA
BRANCH  12  13
ATOM     13  C   UNL     1      46.954   7.788  13.269  0.00  0.00    +0.000 C 
BRANCH  13  18
ATOM     14  C   UNL     1      51.492   9.023  13.963  0.00  0.00    +0.000 C 
ATOM     15  N   UNL     1      50.400   9.125  12.991  0.00  0.00    +0.000 NA
ATOM     16  C   UNL     1      50.013   7.786  12.527  0.00  0.00    +0.000 C 
ATOM     17  C   UNL     1      48.842   7.841  11.542  0.00  0.00    +0.000 C 
ATOM     18  C   UNL     1      47.629   8.572  12.128  0.00  0.00    +0.000 C 
ATOM     19  C   UNL     1      48.084   9.957  12.611  0.00  0.00    +0.000 C 
ATOM     20  C   UNL     1      49.276   9.874  13.572  0.00  0.00    +0.000 C 
ENDBRANCH  13  18
ENDBRANCH  12  13
ENDBRANCH   1  12
TORSDOF 4
ENDMDL
MODEL 8
REMARK VINA RESULT:    -5.105      3.739      6.213
REMARK INTER + INTRA:          -6.654
REMARK INTER:                  -6.356
REMARK INTRA:                  -0.298
REMARK UNBOUND:                -0.355
REMARK  Name = 
REMARK  5 active torsions:
REMARK  status: ('A' for Active; 'I' for Inactive)
REMARK    1  A    between atoms: C_1  and  N_2
REMARK    2  A    between atoms: C_5  and  C_6
REMARK    3  A    between atoms: C_6  and  O_7
REMARK    4  A    between atoms: O_7  and  C_8
REMARK    5  A    between atoms: C_11  and  C_12
REMARK                            x       y       z     vdW  Elec       q    Type
REMARK                         _______ _______ _______ _____ _____    ______ ____
ROOT
ATOM      1  C   UNL     1      47.001   5.030  13.643  0.00  0.00    +0.000 A 
ATOM      2  C   UNL     1      46.591   3.706  13.514  0.00  0.00    +0.000 A 
ATOM      3  N   UNL     1      45.586   3.317  12.679  0.00  0.00    +0.000 NA
ATOM      4  C   UNL     1      45.010   4.335  11.976  0.00  0.00    +0.000 A 
ATOM      5  C   UNL     1      45.420   5.653  12.099  0.00  0.00    +0.000 A 
ATOM      6  N   UNL     1      46.423   6.027  12.934  0.00  0.00    +0.000 NA
ENDROOT
BRANCH   4   7
ATOM      7  C   UNL     1      43.887   4.018  11.052  0.00  0.00    +0.000 C 
ATOM      8  N   UNL     1      43.592   4.959  10.106  0.00  0.00    +0.000 N 
ATOM      9  O   UNL     1      43.261   2.968  11.129  0.00  0.00    +0.000 OA
ATOM     10  H   UNL     1      44.123   5.820  10.052  0.00  0.00    +0.000 HD
ATOM     11  H   UNL     1      42.845   4.778   9.449  0.00  0.00    +0.000 HD
ENDBRANCH   4   7
BRANCH   1  12
ATOM     12  O   UNL     1      48.012   5.328  14.536  0.00  0.00    +0.000 OA
BRANCH  12  13
ATOM     13  C   UNL     1      48.379   6.715  14.485  0.00  0.00    +0.000 C 
BRANCH  13  18
ATOM     14  C   UNL     1      47.630   8.344  18.888  0.00  0.00    +0.000 C 
ATOM     15  N   UNL     1      48.700   7.975  17.957  0.00  0.00    +0.000 NA
ATOM     16  C   UNL     1      48.603   6.548  17.621  0.00  0.00    +0.000 C 
ATOM     17  C   UNL     1      49.675   6.126  16.612  0.00  0.00    +0.000 C 
ATOM     18  C   UNL     1      49.635   6.977  15.337  0.00  0.00    +0.000 C 
ATOM     19  C   UNL     1      49.724   8.457  15.739  0.00  0.00    +0.000 C 
ATOM     20  C   UNL     1      48.659   8.844  16.772  0.00  0.00    +0.000 C 
ENDBRANCH  13  18
ENDBRANCH  12  13
ENDBRANCH   1  12
TORSDOF 4
ENDMDL
MODEL 9
REMARK VINA RESULT:    -4.978      4.157      6.447
REMARK INTER + INTRA:          -6.496
REMARK INTER:                  -6.029
REMARK INTRA:                  -0.467
REMARK UNBOUND:                -0.355
REMARK  Name = 
REMARK  5 active torsions:
REMARK  status: ('A' for Active; 'I' for Inactive)
REMARK    1  A    between atoms: C_1  and  N_2
REMARK    2  A    between atoms: C_5  and  C_6
REMARK    3  A    between atoms: C_6  and  O_7
REMARK    4  A    between atoms: O_7  and  C_8
REMARK    5  A    between atoms: C_11  and  C_12
REMARK                            x       y       z     vdW  Elec       q    Type
REMARK                         _______ _______ _______ _____ _____    ______ ____
ROOT
ATOM      1  C   UNL     1      46.889   5.759  13.185  0.00  0.00    +0.000 A 
ATOM      2  C   UNL     1      46.369   6.577  12.185  0.00  0.00    +0.000 A 
ATOM      3  N   UNL     1      45.120   6.410  11.664  0.00  0.00    +0.000 NA
ATOM      4  C   UNL     1      44.416   5.374  12.204  0.00  0.00    +0.000 A 
ATOM      5  C   UNL     1      44.929   4.562  13.203  0.00  0.00    +0.000 A 
ATOM      6  N   UNL     1      46.174   4.740  13.714  0.00  0.00    +0.000 NA
ENDROOT
BRANCH   4   7
ATOM      7  C   UNL     1      43.048   5.095  11.687  0.00  0.00    +0.000 C 
ATOM      8  N   UNL     1      42.161   6.133  11.719  0.00  0.00    +0.000 N 
ATOM      9  O   UNL     1      42.731   3.994  11.250  0.00  0.00    +0.000 OA
ATOM     10  H   UNL     1      42.440   7.039  12.078  0.00  0.00    +0.000 HD
ATOM     11  H   UNL     1      41.225   5.991  11.365  0.00  0.00    +0.000 HD
ENDBRANCH   4   7
BRANCH   1  12
ATOM     12  O   UNL     1      48.175   5.992  13.630  0.00  0.00    +0.000 OA
BRANCH  12  13
ATOM     13  C   UNL     1      48.934   6.769  12.691  0.00  0.00    +0.000 C 
BRANCH  13  18
ATOM     14  C   UNL     1      48.152  11.236  11.264  0.00  0.00    +0.000 C 
ATOM     15  N   UNL     1      48.945  10.444  12.209  0.00  0.00    +0.000 NA
ATOM     16  C   UNL     1      48.058   9.756  13.157  0.00  0.00    +0.000 C 
ATOM     17  C   UNL     1      48.841   8.878  14.137  0.00  0.00    +0.000 C 
ATOM     18  C   UNL     1      49.737   7.865  13.414  0.00  0.00    +0.000 C 
ATOM     19  C   UNL     1      50.633   8.628  12.427  0.00  0.00    +0.000 C 
ATOM     20  C   UNL     1      49.825   9.521  11.479  0.00  0.00    +0.000 C 
ENDBRANCH  13  18
ENDBRANCH  12  13
ENDBRANCH   1  12
TORSDOF 4
ENDMDL
