MODEL 1
REMARK VINA RESULT:    -8.218      0.000      0.000
REMARK INTER + INTRA:         -12.194
REMARK INTER:                 -11.101
REMARK INTRA:                  -1.094
REMARK UNBOUND:                -1.094
REMARK  Name = 
REMARK  6 active torsions:
REMARK  status: ('A' for Active; 'I' for Inactive)
REMARK    1  A    between atoms: C_2  and  C_25
REMARK    2  A    between atoms: N_3  and  C_4
REMARK    3  A    between atoms: C_4  and  C_5
REMARK    4  A    between atoms: C_8  and  C_9
REMARK    5  A    between atoms: C_9  and  N_10
REMARK    6  A    between atoms: C_11  and  C_13
REMARK                            x       y       z     vdW  Elec       q    Type
REMARK                         _______ _______ _______ _____ _____    ______ ____
ROOT
ATOM      1  C   UNL     1      44.878   5.192  10.583  0.00  0.00    +0.000 A 
ATOM      2  C   UNL     1      44.286   5.434  11.825  0.00  0.00    +0.000 A 
ATOM      3  C   UNL     1      44.880   6.325  12.715  0.00  0.00    +0.000 A 
ATOM      4  C   UNL     1      46.065   6.954  12.345  0.00  0.00    +0.000 A 
ATOM      5  N   UNL     1      46.642   6.762  11.131  0.00  0.00    +0.000 NA
ATOM      6  C   UNL     1      46.038   5.897  10.284  0.00  0.00    +0.000 A 
ENDROOT
BRANCH   1   7
ATOM      7  C   UNL     1      44.297   4.209   9.617  0.00  0.00    +0.000 C 
BRANCH   7  10
ATOM      8  O   UNL     1      45.142   1.608   9.083  0.00  0.00    +0.000 OA
ATOM      9  C   UNL     1      45.573   2.522   8.391  0.00  0.00    +0.000 C 
ATOM     10  N   UNL     1      45.219   3.839   8.578  0.00  0.00    +0.000 N 
ATOM     11  H   UNL     1      45.589   4.527   7.926  0.00  0.00    +0.000 HD
BRANCH   9  12
ATOM     12  C   UNL     1      46.502   2.313   7.294  0.00  0.00    +0.000 A 
ATOM     13  C   UNL     1      47.450   1.317   7.219  0.00  0.00    +0.000 A 
ATOM     14  O   UNL     1      48.130   1.464   6.049  0.00  0.00    +0.000 OA
ATOM     15  C   UNL     1      47.551   2.551   5.469  0.00  0.00    +0.000 A 
ATOM     16  N   UNL     1      46.573   3.101   6.155  0.00  0.00    +0.000 NA
ENDBRANCH   9  12
ENDBRANCH   7  10
ENDBRANCH   1   7
BRANCH   4  17
ATOM     17  C   UNL     1      46.749   7.906  13.296  0.00  0.00    +0.000 C 
BRANCH  17  18
ATOM     18  N   UNL     1      47.293   7.225  14.447  0.00  0.00    +0.000 N 
ATOM     19  C   UNL     1      48.580   6.765  14.500  0.00  0.00    +0.000 C 
ATOM     20  O   UNL     1      49.364   6.906  13.566  0.00  0.00    +0.000 OA
ATOM     21  H   UNL     1      46.606   6.883  15.111  0.00  0.00    +0.000 HD
BRANCH  19  22
ATOM     22  C   UNL     1      49.000   6.160  15.772  0.00  0.00    +0.000 A 
ATOM     23  C   UNL     1      50.079   6.693  16.466  0.00  0.00    +0.000 A 
ATOM     24  S   UNL     1      50.383   5.919  17.956  0.00  0.00    +0.000 S 
ATOM     25  C   UNL     1      49.114   4.813  17.704  0.00  0.00    +0.000 A 
ATOM     26  N   UNL     1      48.838   3.846  18.619  0.00  0.00    +0.000 NA
ATOM     27  C   UNL     1      47.872   3.055  18.285  0.00  0.00    +0.000 A 
ATOM     28  N   UNL     1      47.157   3.147  17.120  0.00  0.00    +0.000 N 
ATOM     29  C   UNL     1      47.371   4.135  16.190  0.00  0.00    +0.000 A 
ATOM     30  O   UNL     1      46.665   4.229  15.192  0.00  0.00    +0.000 OA
ATOM     31  C   UNL     1      48.460   5.040  16.507  0.00  0.00    +0.000 A 
ATOM     32  H   UNL     1      46.403   2.507  16.920  0.00  0.00    +0.000 HD
ENDBRANCH  19  22
ENDBRANCH  17  18
ENDBRANCH   4  17
TORSDOF 6
ENDMDL
MODEL 2
REMARK VINA RESULT:    -7.919      1.293      1.407
REMARK INTER + INTRA:         -11.791
REMARK INTER:                 -10.905
REMARK INTRA:                  -0.886
REMARK UNBOUND:                -1.094
REMARK  Name = 
REMARK  6 active torsions:
REMARK  status: ('A' for Active; 'I' for Inactive)
REMARK    1  A    between atoms: C_2  and  C_25
REMARK    2  A    between atoms: N_3  and  C_4
REMARK    3  A    between atoms: C_4  and  C_5
REMARK    4  A    between atoms: C_8  and  C_9
REMARK    5  A    between atoms: C_9  and  N_10
REMARK    6  A    between atoms: C_11  and  C_13
REMARK                            x       y       z     vdW  Elec       q    Type
REMARK                         _______ _______ _______ _____ _____    ______ ____
ROOT
ATOM      1  C   UNL     1      44.974   4.958  11.232  0.00  0.00    +0.000 A 
ATOM      2  C   UNL     1      45.516   4.510  12.439  0.00  0.00    +0.000 A 
ATOM      3  C   UNL     1      46.319   5.359  13.196  0.00  0.00    +0.000 A 
ATOM      4  C   UNL     1      46.573   6.643  12.723  0.00  0.00    +0.000 A 
ATOM      5  N   UNL     1      46.031   7.113  11.571  0.00  0.00    +0.000 NA
ATOM      6  C   UNL     1      45.247   6.269  10.860  0.00  0.00    +0.000 A 
ENDROOT
BRANCH   1   7
ATOM      7  C   UNL     1      44.143   4.064  10.367  0.00  0.00    +0.000 C 
BRANCH   7  10
ATOM      8  O   UNL     1      45.470   4.453   7.949  0.00  0.00    +0.000 OA
ATOM      9  C   UNL     1      45.545   3.358   8.493  0.00  0.00    +0.000 C 
ATOM     10  N   UNL     1      44.923   3.067   9.686  0.00  0.00    +0.000 N 
ATOM     11  H   UNL     1      45.078   2.146  10.089  0.00  0.00    +0.000 HD
BRANCH   9  12
ATOM     12  C   UNL     1      46.303   2.250   7.940  0.00  0.00    +0.000 A 
ATOM     13  C   UNL     1      47.335   2.352   7.035  0.00  0.00    +0.000 A 
ATOM     14  O   UNL     1      47.778   1.096   6.750  0.00  0.00    +0.000 OA
ATOM     15  C   UNL     1      46.982   0.291   7.506  0.00  0.00    +0.000 A 
ATOM     16  N   UNL     1      46.087   0.914   8.241  0.00  0.00    +0.000 NA
ENDBRANCH   9  12
ENDBRANCH   7  10
ENDBRANCH   1   7
BRANCH   4  17
ATOM     17  C   UNL     1      47.461   7.580  13.505  0.00  0.00    +0.000 C 
BRANCH  17  18
ATOM     18  N   UNL     1      47.767   7.065  14.819  0.00  0.00    +0.000 N 
ATOM     19  C   UNL     1      49.046   6.847  15.254  0.00  0.00    +0.000 C 
ATOM     20  O   UNL     1      50.024   7.081  14.550  0.00  0.00    +0.000 OA
ATOM     21  H   UNL     1      46.987   6.638  15.308  0.00  0.00    +0.000 HD
BRANCH  19  22
ATOM     22  C   UNL     1      49.189   6.391  16.644  0.00  0.00    +0.000 A 
ATOM     23  C   UNL     1      49.780   7.224  17.585  0.00  0.00    +0.000 A 
ATOM     24  S   UNL     1      49.797   6.570  19.161  0.00  0.00    +0.000 S 
ATOM     25  C   UNL     1      49.060   5.131  18.633  0.00  0.00    +0.000 A 
ATOM     26  N   UNL     1      48.797   4.119  19.502  0.00  0.00    +0.000 NA
ATOM     27  C   UNL     1      48.267   3.073  18.960  0.00  0.00    +0.000 A 
ATOM     28  N   UNL     1      47.973   2.949  17.627  0.00  0.00    +0.000 N 
ATOM     29  C   UNL     1      48.178   3.961  16.722  0.00  0.00    +0.000 A 
ATOM     30  O   UNL     1      47.839   3.842  15.550  0.00  0.00    +0.000 OA
ATOM     31  C   UNL     1      48.792   5.154  17.276  0.00  0.00    +0.000 A 
ATOM     32  H   UNL     1      47.546   2.110  17.264  0.00  0.00    +0.000 HD
ENDBRANCH  19  22
ENDBRANCH  17  18
ENDBRANCH   4  17
TORSDOF 6
ENDMDL
MODEL 3
REMARK VINA RESULT:    -7.108      4.829      9.532
REMARK INTER + INTRA:         -10.696
REMARK INTER:                  -9.929
REMARK INTRA:                  -0.767
REMARK UNBOUND:                -1.094
REMARK  Name = 
REMARK  6 active torsions:
REMARK  status: ('A' for Active; 'I' for Inactive)
REMARK    1  A    between atoms: C_2  and  C_25
REMARK    2  A    between atoms: N_3  and  C_4
REMARK    3  A    between atoms: C_4  and  C_5
REMARK    4  A    between atoms: C_8  and  C_9
REMARK    5  A    between atoms: C_9  and  N_10
REMARK    6  A    between atoms: C_11  and  C_13
REMARK                            x       y       z     vdW  Elec       q    Type
REMARK                         _______ _______ _______ _____ _____    ______ ____
ROOT
ATOM      1  C   UNL     1      51.445   2.796  17.647  0.00  0.00    +0.000 A 
ATOM      2  C   UNL     1      50.809   3.926  18.165  0.00  0.00    +0.000 A 
ATOM      3  C   UNL     1      49.444   4.110  17.957  0.00  0.00    +0.000 A 
ATOM      4  C   UNL     1      48.742   3.158  17.224  0.00  0.00    +0.000 A 
ATOM      5  N   UNL     1      49.331   2.035  16.740  0.00  0.00    +0.000 NA
ATOM      6  C   UNL     1      50.656   1.879  16.964  0.00  0.00    +0.000 A 
ENDROOT
BRANCH   1   7
ATOM      7  C   UNL     1      52.917   2.583  17.810  0.00  0.00    +0.000 C 
BRANCH   7  10
ATOM      8  O   UNL     1      54.268   0.478  16.583  0.00  0.00    +0.000 OA
ATOM      9  C   UNL     1      53.907   0.349  17.746  0.00  0.00    +0.000 C 
ATOM     10  N   UNL     1      53.232   1.329  18.438  0.00  0.00    +0.000 N 
ATOM     11  H   UNL     1      53.013   1.154  19.415  0.00  0.00    +0.000 HD
BRANCH   9  12
ATOM     12  C   UNL     1      54.159  -0.852  18.523  0.00  0.00    +0.000 A 
ATOM     13  C   UNL     1      55.372  -1.489  18.653  0.00  0.00    +0.000 A 
ATOM     14  O   UNL     1      55.198  -2.581  19.448  0.00  0.00    +0.000 OA
ATOM     15  C   UNL     1      53.873  -2.547  19.762  0.00  0.00    +0.000 A 
ATOM     16  N   UNL     1      53.198  -1.542  19.248  0.00  0.00    +0.000 NA
ENDBRANCH   9  12
ENDBRANCH   7  10
ENDBRANCH   1   7
BRANCH   4  17
ATOM     17  C   UNL     1      47.267   3.339  16.958  0.00  0.00    +0.000 C 
BRANCH  17  18
ATOM     18  N   UNL     1      47.018   4.355  15.963  0.00  0.00    +0.000 N 
ATOM     19  C   UNL     1      47.051   4.105  14.619  0.00  0.00    +0.000 C 
ATOM     20  O   UNL     1      47.294   2.989  14.167  0.00  0.00    +0.000 OA
ATOM     21  H   UNL     1      47.065   5.312  16.301  0.00  0.00    +0.000 HD
BRANCH  19  22
ATOM     22  C   UNL     1      46.701   5.230  13.741  0.00  0.00    +0.000 A 
ATOM     23  C   UNL     1      47.618   6.252  13.531  0.00  0.00    +0.000 A 
ATOM     24  S   UNL     1      47.080   7.438  12.428  0.00  0.00    +0.000 S 
ATOM     25  C   UNL     1      45.583   6.654  12.229  0.00  0.00    +0.000 A 
ATOM     26  N   UNL     1      44.628   7.167  11.408  0.00  0.00    +0.000 NA
ATOM     27  C   UNL     1      43.529   6.488  11.378  0.00  0.00    +0.000 A 
ATOM     28  N   UNL     1      43.301   5.341  12.092  0.00  0.00    +0.000 N 
ATOM     29  C   UNL     1      44.251   4.763  12.896  0.00  0.00    +0.000 A 
ATOM     30  O   UNL     1      44.037   3.699  13.466  0.00  0.00    +0.000 OA
ATOM     31  C   UNL     1      45.500   5.497  12.983  0.00  0.00    +0.000 A 
ATOM     32  H   UNL     1      42.424   4.847  12.016  0.00  0.00    +0.000 HD
ENDBRANCH  19  22
ENDBRANCH  17  18
ENDBRANCH   4  17
TORSDOF 6
ENDMDL
MODEL 4
REMARK VINA RESULT:    -7.043      2.237      2.714
REMARK INTER + INTRA:         -10.608
REMARK INTER:                  -9.818
REMARK INTRA:                  -0.790
REMARK UNBOUND:                -1.094
REMARK  Name = 
REMARK  6 active torsions:
REMARK  status: ('A' for Active; 'I' for Inactive)
REMARK    1  A    between atoms: C_2  and  C_25
REMARK    2  A    between atoms: N_3  and  C_4
REMARK    3  A    between atoms: C_4  and  C_5
REMARK    4  A    between atoms: C_8  and  C_9
REMARK    5  A    between atoms: C_9  and  N_10
REMARK    6  A    between atoms: C_11  and  C_13
REMARK                            x       y       z     vdW  Elec       q    Type
REMARK                         _______ _______ _______ _____ _____    ______ ____
ROOT
ATOM      1  C   UNL     1      44.827   5.661  11.321  0.00  0.00    +0.000 A 
ATOM      2  C   UNL     1      45.713   5.026  12.194  0.00  0.00    +0.000 A 
ATOM      3  C   UNL     1      46.600   5.784  12.954  0.00  0.00    +0.000 A 
ATOM      4  C   UNL     1      46.589   7.169  12.817  0.00  0.00    +0.000 A 
ATOM      5  N   UNL     1      45.715   7.811  12.001  0.00  0.00    +0.000 NA
ATOM      6  C   UNL     1      44.859   7.050  11.281  0.00  0.00    +0.000 A 
ENDROOT
BRANCH   1   7
ATOM      7  C   UNL     1      43.888   4.882  10.454  0.00  0.00    +0.000 C 
BRANCH   7  10
ATOM      8  O   UNL     1      45.739   5.045   8.378  0.00  0.00    +0.000 OA
ATOM      9  C   UNL     1      45.426   3.940   8.805  0.00  0.00    +0.000 C 
ATOM     10  N   UNL     1      44.520   3.755   9.824  0.00  0.00    +0.000 N 
ATOM     11  H   UNL     1      44.356   2.805  10.146  0.00  0.00    +0.000 HD
BRANCH   9  12
ATOM     12  C   UNL     1      45.983   2.704   8.282  0.00  0.00    +0.000 A 
ATOM     13  C   UNL     1      45.630   1.432   8.673  0.00  0.00    +0.000 A 
ATOM     14  O   UNL     1      46.381   0.545   7.965  0.00  0.00    +0.000 OA
ATOM     15  C   UNL     1      47.158   1.334   7.173  0.00  0.00    +0.000 A 
ATOM     16  N   UNL     1      46.968   2.628   7.309  0.00  0.00    +0.000 NA
ENDBRANCH   9  12
ENDBRANCH   7  10
ENDBRANCH   1   7
BRANCH   4  17
ATOM     17  C   UNL     1      47.556   8.019  13.606  0.00  0.00    +0.000 C 
BRANCH  17  18
ATOM     18  N   UNL     1      47.773   7.499  14.935  0.00  0.00    +0.000 N 
ATOM     19  C   UNL     1      48.977   7.000  15.352  0.00  0.00    +0.000 C 
ATOM     20  O   UNL     1      49.959   6.964  14.616  0.00  0.00    +0.000 OA
ATOM     21  H   UNL     1      46.930   7.291  15.461  0.00  0.00    +0.000 HD
BRANCH  19  22
ATOM     22  C   UNL     1      49.052   6.579  16.758  0.00  0.00    +0.000 A 
ATOM     23  C   UNL     1      49.540   5.318  17.074  0.00  0.00    +0.000 A 
ATOM     24  S   UNL     1      49.630   5.021  18.753  0.00  0.00    +0.000 S 
ATOM     25  C   UNL     1      48.975   6.549  19.115  0.00  0.00    +0.000 A 
ATOM     26  N   UNL     1      48.769   6.935  20.402  0.00  0.00    +0.000 NA
ATOM     27  C   UNL     1      48.235   8.105  20.530  0.00  0.00    +0.000 A 
ATOM     28  N   UNL     1      47.891   8.923  19.487  0.00  0.00    +0.000 N 
ATOM     29  C   UNL     1      48.123   8.594  18.174  0.00  0.00    +0.000 A 
ATOM     30  O   UNL     1      47.867   9.381  17.269  0.00  0.00    +0.000 OA
ATOM     31  C   UNL     1      48.704   7.280  17.972  0.00  0.00    +0.000 A 
ATOM     32  H   UNL     1      47.488   9.834  19.651  0.00  0.00    +0.000 HD
ENDBRANCH  19  22
ENDBRANCH  17  18
ENDBRANCH   4  17
TORSDOF 6
ENDMDL
MODEL 5
REMARK VINA RESULT:    -6.829      3.933      8.488
REMARK INTER + INTRA:         -10.318
REMARK INTER:                  -9.283
REMARK INTRA:                  -1.035
REMARK UNBOUND:                -1.094
REMARK  Name = 
REMARK  6 active torsions:
REMARK  status: ('A' for Active; 'I' for Inactive)
REMARK    1  A    between atoms: C_2  and  C_25
REMARK    2  A    between atoms: N_3  and  C_4
REMARK    3  A    between atoms: C_4  and  C_5
REMARK    4  A    between atoms: C_8  and  C_9
REMARK    5  A    between atoms: C_9  and  N_10
REMARK    6  A    between atoms: C_11  and  C_13
REMARK                            x       y       z     vdW  Elec       q    Type
REMARK                         _______ _______ _______ _____ _____    ______ ____
ROOT
ATOM      1  C   UNL     1      49.567   4.581  17.547  0.00  0.00    +0.000 A 
ATOM      2  C   UNL     1      50.317   5.730  17.282  0.00  0.00    +0.000 A 
ATOM      3  C   UNL     1      49.927   6.592  16.260  0.00  0.00    +0.000 A 
ATOM      4  C   UNL     1      48.795   6.281  15.514  0.00  0.00    +0.000 A 
ATOM      5  N   UNL     1      48.030   5.190  15.774  0.00  0.00    +0.000 NA
ATOM      6  C   UNL     1      48.428   4.375  16.778  0.00  0.00    +0.000 A 
ENDROOT
BRANCH   1   7
ATOM      7  C   UNL     1      49.975   3.606  18.606  0.00  0.00    +0.000 C 
BRANCH   7  10
ATOM      8  O   UNL     1      50.737   1.396  17.091  0.00  0.00    +0.000 OA
ATOM      9  C   UNL     1      51.603   2.041  17.671  0.00  0.00    +0.000 C 
ATOM     10  N   UNL     1      51.327   3.145  18.446  0.00  0.00    +0.000 N 
ATOM     11  H   UNL     1      52.112   3.647  18.852  0.00  0.00    +0.000 HD
BRANCH   9  12
ATOM     12  C   UNL     1      53.015   1.711  17.601  0.00  0.00    +0.000 A 
ATOM     13  C   UNL     1      53.547   0.441  17.582  0.00  0.00    +0.000 A 
ATOM     14  O   UNL     1      54.903   0.547  17.525  0.00  0.00    +0.000 OA
ATOM     15  C   UNL     1      55.124   1.890  17.510  0.00  0.00    +0.000 A 
ATOM     16  N   UNL     1      54.044   2.640  17.549  0.00  0.00    +0.000 NA
ENDBRANCH   9  12
ENDBRANCH   7  10
ENDBRANCH   1   7
BRANCH   4  17
ATOM     17  C   UNL     1      48.360   7.180  14.382  0.00  0.00    +0.000 C 
BRANCH  17  18
ATOM     18  N   UNL     1      47.090   6.777  13.827  0.00  0.00    +0.000 N 
ATOM     19  C   UNL     1      46.831   6.773  12.484  0.00  0.00    +0.000 C 
ATOM     20  O   UNL     1      47.672   7.112  11.655  0.00  0.00    +0.000 OA
ATOM     21  H   UNL     1      46.322   6.738  14.490  0.00  0.00    +0.000 HD
BRANCH  19  22
ATOM     22  C   UNL     1      45.514   6.264  12.079  0.00  0.00    +0.000 A 
ATOM     23  C   UNL     1      44.576   7.134  11.536  0.00  0.00    +0.000 A 
ATOM     24  S   UNL     1      43.131   6.365  11.051  0.00  0.00    +0.000 S 
ATOM     25  C   UNL     1      43.688   4.852  11.594  0.00  0.00    +0.000 A 
ATOM     26  N   UNL     1      42.911   3.741  11.487  0.00  0.00    +0.000 NA
ATOM     27  C   UNL     1      43.445   2.668  11.970  0.00  0.00    +0.000 A 
ATOM     28  N   UNL     1      44.686   2.606  12.547  0.00  0.00    +0.000 N 
ATOM     29  C   UNL     1      45.522   3.691  12.635  0.00  0.00    +0.000 A 
ATOM     30  O   UNL     1      46.653   3.584  13.095  0.00  0.00    +0.000 OA
ATOM     31  C   UNL     1      44.963   4.930  12.125  0.00  0.00    +0.000 A 
ATOM     32  H   UNL     1      45.055   1.733  12.895  0.00  0.00    +0.000 HD
ENDBRANCH  19  22
ENDBRANCH  17  18
ENDBRANCH   4  17
TORSDOF 6
ENDMDL
MODEL 6
REMARK VINA RESULT:    -6.522      3.682      8.542
REMARK INTER + INTRA:          -9.903
REMARK INTER:                  -9.215
REMARK INTRA:                  -0.689
REMARK UNBOUND:                -1.094
REMARK  Name = 
REMARK  6 active torsions:
REMARK  status: ('A' for Active; 'I' for Inactive)
REMARK    1  A    between atoms: C_2  and  C_25
REMARK    2  A    between atoms: N_3  and  C_4
REMARK    3  A    between atoms: C_4  and  C_5
REMARK    4  A    between atoms: C_8  and  C_9
REMARK    5  A    between atoms: C_9  and  N_10
REMARK    6  A    between atoms: C_11  and  C_13
REMARK                            x       y       z     vdW  Elec       q    Type
REMARK                         _______ _______ _______ _____ _____    ______ ____
ROOT
ATOM      1  C   UNL     1      48.943   5.617  17.343  0.00  0.00    +0.000 A 
ATOM      2  C   UNL     1      49.300   6.935  17.050  0.00  0.00    +0.000 A 
ATOM      3  C   UNL     1      49.043   7.459  15.785  0.00  0.00    +0.000 A 
ATOM      4  C   UNL     1      48.439   6.646  14.832  0.00  0.00    +0.000 A 
ATOM      5  N   UNL     1      48.051   5.373  15.102  0.00  0.00    +0.000 NA
ATOM      6  C   UNL     1      48.306   4.894  16.342  0.00  0.00    +0.000 A 
ENDROOT
BRANCH   1   7
ATOM      7  C   UNL     1      49.241   5.002  18.674  0.00  0.00    +0.000 C 
BRANCH   7  10
ATOM      8  O   UNL     1      51.871   4.995  17.754  0.00  0.00    +0.000 OA
ATOM      9  C   UNL     1      51.367   3.936  18.108  0.00  0.00    +0.000 C 
ATOM     10  N   UNL     1      50.075   3.836  18.573  0.00  0.00    +0.000 N 
ATOM     11  H   UNL     1      49.755   2.924  18.890  0.00  0.00    +0.000 HD
BRANCH   9  12
ATOM     12  C   UNL     1      52.080   2.671  18.078  0.00  0.00    +0.000 A 
ATOM     13  C   UNL     1      53.294   2.417  18.676  0.00  0.00    +0.000 A 
ATOM     14  O   UNL     1      53.637   1.126  18.411  0.00  0.00    +0.000 OA
ATOM     15  C   UNL     1      52.601   0.660  17.661  0.00  0.00    +0.000 A 
ATOM     16  N   UNL     1      51.639   1.528  17.429  0.00  0.00    +0.000 NA
ENDBRANCH   9  12
ENDBRANCH   7  10
ENDBRANCH   1   7
BRANCH   4  17
ATOM     17  C   UNL     1      48.170   7.173  13.443  0.00  0.00    +0.000 C 
BRANCH  17  18
ATOM     18  N   UNL     1      47.364   6.262  12.664  0.00  0.00    +0.000 N 
ATOM     19  C   UNL     1      46.385   6.682  11.806  0.00  0.00    +0.000 C 
ATOM     20  O   UNL     1      46.128   7.871  11.639  0.00  0.00    +0.000 OA
ATOM     21  H   UNL     1      47.388   5.295  12.971  0.00  0.00    +0.000 HD
BRANCH  19  22
ATOM     22  C   UNL     1      45.707   5.632  11.033  0.00  0.00    +0.000 A 
ATOM     23  C   UNL     1      45.794   5.633   9.647  0.00  0.00    +0.000 A 
ATOM     24  S   UNL     1      45.014   4.304   8.912  0.00  0.00    +0.000 S 
ATOM     25  C   UNL     1      44.492   3.707  10.418  0.00  0.00    +0.000 A 
ATOM     26  N   UNL     1      43.745   2.574  10.500  0.00  0.00    +0.000 NA
ATOM     27  C   UNL     1      43.389   2.254  11.700  0.00  0.00    +0.000 A 
ATOM     28  N   UNL     1      43.717   2.965  12.825  0.00  0.00    +0.000 N 
ATOM     29  C   UNL     1      44.507   4.087  12.794  0.00  0.00    +0.000 A 
ATOM     30  O   UNL     1      44.838   4.658  13.828  0.00  0.00    +0.000 OA
ATOM     31  C   UNL     1      44.918   4.502  11.466  0.00  0.00    +0.000 A 
ATOM     32  H   UNL     1      43.420   2.657  13.740  0.00  0.00    +0.000 HD
ENDBRANCH  19  22
ENDBRANCH  17  18
ENDBRANCH   4  17
TORSDOF 6
ENDMDL
MODEL 7
REMARK VINA RESULT:    -6.425      3.706      4.643
REMARK INTER + INTRA:          -9.772
REMARK INTER:                  -8.788
REMARK INTRA:                  -0.984
REMARK UNBOUND:                -1.094
REMARK  Name = 
REMARK  6 active torsions:
REMARK  status: ('A' for Active; 'I' for Inactive)
REMARK    1  A    between atoms: C_2  and  C_25
REMARK    2  A    between atoms: N_3  and  C_4
REMARK    3  A    between atoms: C_4  and  C_5
REMARK    4  A    between atoms: C_8  and  C_9
REMARK    5  A    between atoms: C_9  and  N_10
REMARK    6  A    between atoms: C_11  and  C_13
REMARK                            x       y       z     vdW  Elec       q    Type
REMARK                         _______ _______ _______ _____ _____    ______ ____
ROOT
ATOM      1  C   UNL     1      44.699   5.354  10.798  0.00  0.00    +0.000 A 
ATOM      2  C   UNL     1      45.897   5.173  11.494  0.00  0.00    +0.000 A 
ATOM      3  C   UNL     1      46.382   6.189  12.314  0.00  0.00    +0.000 A 
ATOM      4  C   UNL     1      45.661   7.375  12.414  0.00  0.00    +0.000 A 
ATOM      5  N   UNL     1      44.478   7.561  11.775  0.00  0.00    +0.000 NA
ATOM      6  C   UNL     1      44.026   6.554  10.993  0.00  0.00    +0.000 A 
ENDROOT
BRANCH   1   7
ATOM      7  C   UNL     1      44.165   4.306   9.874  0.00  0.00    +0.000 C 
BRANCH   7  10
ATOM      8  O   UNL     1      44.757   1.671   9.189  0.00  0.00    +0.000 OA
ATOM      9  C   UNL     1      45.338   2.578   8.604  0.00  0.00    +0.000 C 
ATOM     10  N   UNL     1      45.118   3.910   8.873  0.00  0.00    +0.000 N 
ATOM     11  H   UNL     1      45.610   4.595   8.306  0.00  0.00    +0.000 HD
BRANCH   9  12
ATOM     12  C   UNL     1      46.320   2.343   7.560  0.00  0.00    +0.000 A 
ATOM     13  C   UNL     1      47.171   1.264   7.481  0.00  0.00    +0.000 A 
ATOM     14  O   UNL     1      47.946   1.412   6.371  0.00  0.00    +0.000 OA
ATOM     15  C   UNL     1      47.518   2.585   5.829  0.00  0.00    +0.000 A 
ATOM     16  N   UNL     1      46.550   3.189   6.485  0.00  0.00    +0.000 NA
ENDBRANCH   9  12
ENDBRANCH   7  10
ENDBRANCH   1   7
BRANCH   4  17
ATOM     17  C   UNL     1      46.172   8.506  13.273  0.00  0.00    +0.000 C 
BRANCH  17  18
ATOM     18  N   UNL     1      47.442   9.009  12.806  0.00  0.00    +0.000 N 
ATOM     19  C   UNL     1      48.420   9.460  13.650  0.00  0.00    +0.000 C 
ATOM     20  O   UNL     1      48.281   9.464  14.870  0.00  0.00    +0.000 OA
ATOM     21  H   UNL     1      47.477   9.245  11.819  0.00  0.00    +0.000 HD
BRANCH  19  22
ATOM     22  C   UNL     1      49.683   9.869  13.018  0.00  0.00    +0.000 A 
ATOM     23  C   UNL     1      50.174  11.152  13.228  0.00  0.00    +0.000 A 
ATOM     24  S   UNL     1      51.684  11.435  12.485  0.00  0.00    +0.000 S 
ATOM     25  C   UNL     1      51.712   9.870  11.817  0.00  0.00    +0.000 A 
ATOM     26  N   UNL     1      52.749   9.460  11.039  0.00  0.00    +0.000 NA
ATOM     27  C   UNL     1      52.624   8.262  10.571  0.00  0.00    +0.000 A 
ATOM     28  N   UNL     1      51.557   7.437  10.814  0.00  0.00    +0.000 N 
ATOM     29  C   UNL     1      50.512   7.792  11.630  0.00  0.00    +0.000 A 
ATOM     30  O   UNL     1      49.608   7.003  11.882  0.00  0.00    +0.000 OA
ATOM     31  C   UNL     1      50.592   9.138  12.167  0.00  0.00    +0.000 A 
ATOM     32  H   UNL     1      51.523   6.504  10.430  0.00  0.00    +0.000 HD
ENDBRANCH  19  22
ENDBRANCH  17  18
ENDBRANCH   4  17
TORSDOF 6
ENDMDL
MODEL 8
REMARK VINA RESULT:    -6.377      4.590      7.276
REMARK INTER + INTRA:          -9.708
REMARK INTER:                  -8.856
REMARK INTRA:                  -0.852
REMARK UNBOUND:                -1.094
REMARK  Name = 
REMARK  6 active torsions:
REMARK  status: ('A' for Active; 'I' for Inactive)
REMARK    1  A    between atoms: C_2  and  C_25
REMARK    2  A    between atoms: N_3  and  C_4
REMARK    3  A    between atoms: C_4  and  C_5
REMARK    4  A    between atoms: C_8  and  C_9
REMARK    5  A    between atoms: C_9  and  N_10
REMARK    6  A    between atoms: C_11  and  C_13
REMARK                            x       y       z     vdW  Elec       q    Type
REMARK                         _______ _______ _______ _____ _____    ______ ____
ROOT
ATOM      1  C   UNL     1      50.321   8.746  11.620  0.00  0.00    +0.000 A 
ATOM      2  C   UNL     1      49.464   9.848  11.659  0.00  0.00    +0.000 A 
ATOM      3  C   UNL     1      48.149   9.688  12.090  0.00  0.00    +0.000 A 
ATOM      4  C   UNL     1      47.714   8.421  12.467  0.00  0.00    +0.000 A 
ATOM      5  N   UNL     1      48.537   7.342  12.470  0.00  0.00    +0.000 NA
ATOM      6  C   UNL     1      49.811   7.528  12.054  0.00  0.00    +0.000 A 
ENDROOT
BRANCH   1   7
ATOM      7  C   UNL     1      51.727   8.865  11.122  0.00  0.00    +0.000 C 
BRANCH   7  10
ATOM      8  O   UNL     1      53.076   9.189   8.706  0.00  0.00    +0.000 OA
ATOM      9  C   UNL     1      52.765   8.058   9.061  0.00  0.00    +0.000 C 
ATOM     10  N   UNL     1      52.095   7.796  10.235  0.00  0.00    +0.000 N 
ATOM     11  H   UNL     1      51.920   6.823  10.473  0.00  0.00    +0.000 HD
BRANCH   9  12
ATOM     12  C   UNL     1      53.075   6.872   8.283  0.00  0.00    +0.000 A 
ATOM     13  C   UNL     1      52.516   6.534   7.072  0.00  0.00    +0.000 A 
ATOM     14  O   UNL     1      53.052   5.348   6.671  0.00  0.00    +0.000 OA
ATOM     15  C   UNL     1      53.919   5.028   7.670  0.00  0.00    +0.000 A 
ATOM     16  N   UNL     1      53.984   5.894   8.658  0.00  0.00    +0.000 NA
ENDBRANCH   9  12
ENDBRANCH   7  10
ENDBRANCH   1   7
BRANCH   4  17
ATOM     17  C   UNL     1      46.288   8.208  12.914  0.00  0.00    +0.000 C 
BRANCH  17  18
ATOM     18  N   UNL     1      45.817   6.878  12.607  0.00  0.00    +0.000 N 
ATOM     19  C   UNL     1      44.739   6.638  11.801  0.00  0.00    +0.000 C 
ATOM     20  O   UNL     1      44.098   7.545  11.278  0.00  0.00    +0.000 OA
ATOM     21  H   UNL     1      46.167   6.146  13.217  0.00  0.00    +0.000 HD
BRANCH  19  22
ATOM     22  C   UNL     1      44.435   5.226  11.530  0.00  0.00    +0.000 A 
ATOM     23  C   UNL     1      43.687   4.494  12.443  0.00  0.00    +0.000 A 
ATOM     24  S   UNL     1      43.363   2.896  11.937  0.00  0.00    +0.000 S 
ATOM     25  C   UNL     1      44.252   3.111  10.502  0.00  0.00    +0.000 A 
ATOM     26  N   UNL     1      44.388   2.098   9.605  0.00  0.00    +0.000 NA
ATOM     27  C   UNL     1      45.116   2.388   8.578  0.00  0.00    +0.000 A 
ATOM     28  N   UNL     1      45.717   3.601   8.366  0.00  0.00    +0.000 N 
ATOM     29  C   UNL     1      45.570   4.665   9.222  0.00  0.00    +0.000 A 
ATOM     30  O   UNL     1      46.065   5.757   8.965  0.00  0.00    +0.000 OA
ATOM     31  C   UNL     1      44.777   4.387  10.404  0.00  0.00    +0.000 A 
ATOM     32  H   UNL     1      46.265   3.773   7.536  0.00  0.00    +0.000 HD
ENDBRANCH  19  22
ENDBRANCH  17  18
ENDBRANCH   4  17
TORSDOF 6
ENDMDL
MODEL 9
REMARK VINA RESULT:    -6.324      2.369      3.298
REMARK INTER + INTRA:          -9.636
REMARK INTER:                  -8.717
REMARK INTRA:                  -0.919
REMARK UNBOUND:                -1.094
REMARK  Name = 
REMARK  6 active torsions:
REMARK  status: ('A' for Active; 'I' for Inactive)
REMARK    1  A    between atoms: C_2  and  C_25
REMARK    2  A    between atoms: N_3  and  C_4
REMARK    3  A    between atoms: C_4  and  C_5
REMARK    4  A    between atoms: C_8  and  C_9
REMARK    5  A    between atoms: C_9  and  N_10
REMARK    6  A    between atoms: C_11  and  C_13
REMARK                            x       y       z     vdW  Elec       q    Type
REMARK                         _______ _______ _______ _____ _____    ______ ____
ROOT
ATOM      1  C   UNL     1      45.418   5.838  11.788  0.00  0.00    +0.000 A 
ATOM      2  C   UNL     1      46.312   5.176  12.633  0.00  0.00    +0.000 A 
ATOM      3  C   UNL     1      47.174   5.912  13.443  0.00  0.00    +0.000 A 
ATOM      4  C   UNL     1      47.129   7.301  13.384  0.00  0.00    +0.000 A 
ATOM      5  N   UNL     1      46.246   7.967  12.597  0.00  0.00    +0.000 NA
ATOM      6  C   UNL     1      45.416   7.227  11.827  0.00  0.00    +0.000 A 
ENDROOT
BRANCH   1   7
ATOM      7  C   UNL     1      44.507   5.086  10.869  0.00  0.00    +0.000 C 
BRANCH   7  10
ATOM      8  O   UNL     1      43.911   2.506  10.004  0.00  0.00    +0.000 OA
ATOM      9  C   UNL     1      44.842   3.104   9.479  0.00  0.00    +0.000 C 
ATOM     10  N   UNL     1      45.217   4.378   9.839  0.00  0.00    +0.000 N 
ATOM     11  H   UNL     1      45.971   4.816   9.316  0.00  0.00    +0.000 HD
BRANCH   9  12
ATOM     12  C   UNL     1      45.649   2.532   8.416  0.00  0.00    +0.000 A 
ATOM     13  C   UNL     1      46.038   3.177   7.263  0.00  0.00    +0.000 A 
ATOM     14  O   UNL     1      46.770   2.307   6.514  0.00  0.00    +0.000 OA
ATOM     15  C   UNL     1      46.787   1.168   7.261  0.00  0.00    +0.000 A 
ATOM     16  N   UNL     1      46.143   1.236   8.405  0.00  0.00    +0.000 NA
ENDBRANCH   9  12
ENDBRANCH   7  10
ENDBRANCH   1   7
BRANCH   4  17
ATOM     17  C   UNL     1      48.067   8.129  14.230  0.00  0.00    +0.000 C 
BRANCH  17  18
ATOM     18  N   UNL     1      49.019   7.310  14.942  0.00  0.00    +0.000 N 
ATOM     19  C   UNL     1      49.108   7.288  16.307  0.00  0.00    +0.000 C 
ATOM     20  O   UNL     1      48.376   7.967  17.021  0.00  0.00    +0.000 OA
ATOM     21  H   UNL     1      49.782   6.946  14.379  0.00  0.00    +0.000 HD
BRANCH  19  22
ATOM     22  C   UNL     1      50.080   6.345  16.877  0.00  0.00    +0.000 A 
ATOM     23  C   UNL     1      49.649   5.357  17.754  0.00  0.00    +0.000 A 
ATOM     24  S   UNL     1      50.892   4.304  18.262  0.00  0.00    +0.000 S 
ATOM     25  C   UNL     1      52.059   5.159  17.367  0.00  0.00    +0.000 A 
ATOM     26  N   UNL     1      53.365   4.779  17.377  0.00  0.00    +0.000 NA
ATOM     27  C   UNL     1      54.146   5.537  16.681  0.00  0.00    +0.000 A 
ATOM     28  N   UNL     1      53.739   6.638  15.974  0.00  0.00    +0.000 N 
ATOM     29  C   UNL     1      52.426   7.031  15.899  0.00  0.00    +0.000 A 
ATOM     30  O   UNL     1      52.087   7.979  15.200  0.00  0.00    +0.000 OA
ATOM     31  C   UNL     1      51.506   6.224  16.680  0.00  0.00    +0.000 A 
ATOM     32  H   UNL     1      54.397   7.184  15.438  0.00  0.00    +0.000 HD
ENDBRANCH  19  22
ENDBRANCH  17  18
ENDBRANCH   4  17
TORSDOF 6
ENDMDL
