MODEL 1
REMARK VINA RESULT:    -8.487      0.000      0.000
REMARK INTER + INTRA:         -13.211
REMARK INTER:                 -12.208
REMARK INTRA:                  -1.004
REMARK UNBOUND:                -1.004
REMARK  Name = 
REMARK  8 active torsions:
REMARK  status: ('A' for Active; 'I' for Inactive)
REMARK    1  A    between atoms: C_2  and  CA_27
REMARK    2  A    between atoms: N_3  and  CA_4
REMARK    3  A    between atoms: CA_4  and  C_5
REMARK    4  A    between atoms: CA_4  and  C_7
REMARK    5  A    between atoms: C_5  and  O_6
REMARK    6  A    between atoms: C_10  and  C_11
REMARK    7  A    between atoms: C_11  and  N_12
REMARK    8  A    between atoms: C_13  and  C_15
REMARK                            x       y       z     vdW  Elec       q    Type
REMARK                         _______ _______ _______ _____ _____    ______ ____
ROOT
ATOM      1  C   UNL     1      45.136   4.848  11.743  0.00  0.00    +0.000 A 
ATOM      2  C   UNL     1      45.848   4.424  12.880  0.00  0.00    +0.000 A 
ATOM      3  C   UNL     1      46.776   5.263  13.506  0.00  0.00    +0.000 A 
ATOM      4  C   UNL     1      47.010   6.554  13.019  0.00  0.00    +0.000 A 
ATOM      5  C   UNL     1      46.305   6.982  11.888  0.00  0.00    +0.000 A 
ATOM      6  C   UNL     1      45.377   6.144  11.261  0.00  0.00    +0.000 A 
ENDROOT
BRANCH   1   7
ATOM      7  CA  UNL     1      44.249   3.850  11.004  0.00  0.00    +0.000 C 
BRANCH   7  10
ATOM      8  O   UNL     1      44.816   4.368   8.284  0.00  0.00    +0.000 OA
ATOM      9  C   UNL     1      45.247   3.341   8.798  0.00  0.00    +0.000 C 
ATOM     10  N   UNL     1      44.994   2.976  10.107  0.00  0.00    +0.000 N 
ATOM     11  H   UNL     1      45.609   2.253  10.469  0.00  0.00    +0.000 HD
BRANCH   9  12
ATOM     12  CA  UNL     1      46.081   2.382   8.068  0.00  0.00    +0.000 A 
ATOM     13  C   UNL     1      46.953   2.677   7.038  0.00  0.00    +0.000 A 
ATOM     14  N   UNL     1      47.491   1.480   6.660  0.00  0.00    +0.000 N 
ATOM     15  C   UNL     1      46.942   0.513   7.457  0.00  0.00    +0.000 A 
ATOM     16  N   UNL     1      46.089   1.017   8.316  0.00  0.00    +0.000 NA
ATOM     17  H   UNL     1      48.169   1.334   5.922  0.00  0.00    +0.000 HD
ENDBRANCH   9  12
ENDBRANCH   7  10
BRANCH   7  18
ATOM     18  C   UNL     1      43.416   3.044  12.041  0.00  0.00    +0.000 C 
BRANCH  18  19
ATOM     19  O   UNL     1      43.052   1.740  11.568  0.00  0.00    +0.000 OA
ATOM     20  H   UNL     1      42.083   1.734  11.485  0.00  0.00    +0.000 HD
ENDBRANCH  18  19
ENDBRANCH   7  18
ENDBRANCH   1   7
BRANCH   4  21
ATOM     21  C   UNL     1      48.035   7.454  13.659  0.00  0.00    +0.000 C 
BRANCH  21  22
ATOM     22  N   UNL     1      47.968   7.400  15.097  0.00  0.00    +0.000 N 
ATOM     23  C   UNL     1      49.052   6.997  15.837  0.00  0.00    +0.000 C 
ATOM     24  O   UNL     1      50.123   6.706  15.311  0.00  0.00    +0.000 OA
ATOM     25  H   UNL     1      47.045   7.415  15.524  0.00  0.00    +0.000 HD
BRANCH  23  26
ATOM     26  C   UNL     1      48.895   6.992  17.298  0.00  0.00    +0.000 A 
ATOM     27  C   UNL     1      48.713   8.193  17.972  0.00  0.00    +0.000 A 
ATOM     28  S   UNL     1      48.493   8.010  19.653  0.00  0.00    +0.000 S 
ATOM     29  C   UNL     1      48.688   6.323  19.548  0.00  0.00    +0.000 A 
ATOM     30  N   UNL     1      48.637   5.544  20.663  0.00  0.00    +0.000 NA
ATOM     31  C   UNL     1      48.836   4.288  20.443  0.00  0.00    +0.000 A 
ATOM     32  N   UNL     1      49.078   3.739  19.210  0.00  0.00    +0.000 N 
ATOM     33  C   UNL     1      49.109   4.482  18.054  0.00  0.00    +0.000 A 
ATOM     34  O   UNL     1      49.290   3.959  16.961  0.00  0.00    +0.000 OA
ATOM     35  C   UNL     1      48.901   5.905  18.247  0.00  0.00    +0.000 A 
ATOM     36  H   UNL     1      49.218   2.745  19.104  0.00  0.00    +0.000 HD
ENDBRANCH  23  26
ENDBRANCH  21  22
ENDBRANCH   4  21
TORSDOF 8
ENDMDL
MODEL 2
REMARK VINA RESULT:    -8.131      1.426      2.087
REMARK INTER + INTRA:         -12.700
REMARK INTER:                 -11.567
REMARK INTRA:                  -1.134
REMARK UNBOUND:                -1.004
REMARK  Name = 
REMARK  8 active torsions:
REMARK  status: ('A' for Active; 'I' for Inactive)
REMARK    1  A    between atoms: C_2  and  CA_27
REMARK    2  A    between atoms: N_3  and  CA_4
REMARK    3  A    between atoms: CA_4  and  C_5
REMARK    4  A    between atoms: CA_4  and  C_7
REMARK    5  A    between atoms: C_5  and  O_6
REMARK    6  A    between atoms: C_10  and  C_11
REMARK    7  A    between atoms: C_11  and  N_12
REMARK    8  A    between atoms: C_13  and  C_15
REMARK                            x       y       z     vdW  Elec       q    Type
REMARK                         _______ _______ _______ _____ _____    ______ ____
ROOT
ATOM      1  C   UNL     1      45.285   4.733  11.917  0.00  0.00    +0.000 A 
ATOM      2  C   UNL     1      45.743   4.269  13.164  0.00  0.00    +0.000 A 
ATOM      3  C   UNL     1      46.710   4.975  13.886  0.00  0.00    +0.000 A 
ATOM      4  C   UNL     1      47.240   6.171  13.387  0.00  0.00    +0.000 A 
ATOM      5  C   UNL     1      46.788   6.638  12.147  0.00  0.00    +0.000 A 
ATOM      6  C   UNL     1      45.821   5.932  11.423  0.00  0.00    +0.000 A 
ENDROOT
BRANCH   1   7
ATOM      7  CA  UNL     1      44.344   3.856  11.095  0.00  0.00    +0.000 C 
BRANCH   7  10
ATOM      8  O   UNL     1      44.911   4.354   8.371  0.00  0.00    +0.000 OA
ATOM      9  C   UNL     1      45.304   3.309   8.880  0.00  0.00    +0.000 C 
ATOM     10  N   UNL     1      45.046   2.953  10.191  0.00  0.00    +0.000 N 
ATOM     11  H   UNL     1      45.633   2.205  10.548  0.00  0.00    +0.000 HD
BRANCH   9  12
ATOM     12  CA  UNL     1      46.092   2.318   8.143  0.00  0.00    +0.000 A 
ATOM     13  C   UNL     1      46.925   2.571   7.071  0.00  0.00    +0.000 A 
ATOM     14  N   UNL     1      47.428   1.357   6.703  0.00  0.00    +0.000 N 
ATOM     15  C   UNL     1      46.898   0.420   7.547  0.00  0.00    +0.000 A 
ATOM     16  N   UNL     1      46.089   0.960   8.427  0.00  0.00    +0.000 NA
ATOM     17  H   UNL     1      48.073   1.180   5.943  0.00  0.00    +0.000 HD
ENDBRANCH   9  12
ENDBRANCH   7  10
BRANCH   7  18
ATOM     18  C   UNL     1      43.392   3.090  12.057  0.00  0.00    +0.000 C 
BRANCH  18  19
ATOM     19  O   UNL     1      42.756   1.967  11.431  0.00  0.00    +0.000 OA
ATOM     20  H   UNL     1      43.278   1.182  11.672  0.00  0.00    +0.000 HD
ENDBRANCH  18  19
ENDBRANCH   7  18
ENDBRANCH   1   7
BRANCH   4  21
ATOM     21  C   UNL     1      48.311   6.921  14.136  0.00  0.00    +0.000 C 
BRANCH  21  22
ATOM     22  N   UNL     1      48.154   6.793  15.563  0.00  0.00    +0.000 N 
ATOM     23  C   UNL     1      49.228   6.500  16.365  0.00  0.00    +0.000 C 
ATOM     24  O   UNL     1      50.362   6.375  15.908  0.00  0.00    +0.000 OA
ATOM     25  H   UNL     1      47.210   6.668  15.921  0.00  0.00    +0.000 HD
BRANCH  23  26
ATOM     26  C   UNL     1      48.975   6.407  17.809  0.00  0.00    +0.000 A 
ATOM     27  C   UNL     1      49.315   5.246  18.492  0.00  0.00    +0.000 A 
ATOM     28  S   UNL     1      49.008   5.321  20.167  0.00  0.00    +0.000 S 
ATOM     29  C   UNL     1      48.356   6.886  20.032  0.00  0.00    +0.000 A 
ATOM     30  N   UNL     1      47.869   7.537  21.123  0.00  0.00    +0.000 NA
ATOM     31  C   UNL     1      47.373   8.702  20.871  0.00  0.00    +0.000 A 
ATOM     32  N   UNL     1      47.322   9.276  19.627  0.00  0.00    +0.000 N 
ATOM     33  C   UNL     1      47.828   8.670  18.502  0.00  0.00    +0.000 A 
ATOM     34  O   UNL     1      47.803   9.225  17.409  0.00  0.00    +0.000 OA
ATOM     35  C   UNL     1      48.389   7.352  18.729  0.00  0.00    +0.000 A 
ATOM     36  H   UNL     1      46.927  10.197  19.498  0.00  0.00    +0.000 HD
ENDBRANCH  23  26
ENDBRANCH  21  22
ENDBRANCH   4  21
TORSDOF 8
ENDMDL
MODEL 3
REMARK VINA RESULT:    -7.233      3.673      5.058
REMARK INTER + INTRA:         -11.409
REMARK INTER:                 -10.406
REMARK INTRA:                  -1.003
REMARK UNBOUND:                -1.004
REMARK  Name = 
REMARK  8 active torsions:
REMARK  status: ('A' for Active; 'I' for Inactive)
REMARK    1  A    between atoms: C_2  and  CA_27
REMARK    2  A    between atoms: N_3  and  CA_4
REMARK    3  A    between atoms: CA_4  and  C_5
REMARK    4  A    between atoms: CA_4  and  C_7
REMARK    5  A    between atoms: C_5  and  O_6
REMARK    6  A    between atoms: C_10  and  C_11
REMARK    7  A    between atoms: C_11  and  N_12
REMARK    8  A    between atoms: C_13  and  C_15
REMARK                            x       y       z     vdW  Elec       q    Type
REMARK                         _______ _______ _______ _____ _____    ______ ____
ROOT
ATOM      1  C   UNL     1      45.296   4.778  11.957  0.00  0.00    +0.000 A 
ATOM      2  C   UNL     1      45.722   4.341  13.224  0.00  0.00    +0.000 A 
ATOM      3  C   UNL     1      46.691   5.047  13.944  0.00  0.00    +0.000 A 
ATOM      4  C   UNL     1      47.253   6.218  13.422  0.00  0.00    +0.000 A 
ATOM      5  C   UNL     1      46.832   6.659  12.162  0.00  0.00    +0.000 A 
ATOM      6  C   UNL     1      45.864   5.953  11.441  0.00  0.00    +0.000 A 
ENDROOT
BRANCH   1   7
ATOM      7  CA  UNL     1      44.352   3.898  11.143  0.00  0.00    +0.000 C 
BRANCH   7  10
ATOM      8  O   UNL     1      44.839   4.372   8.400  0.00  0.00    +0.000 OA
ATOM      9  C   UNL     1      45.267   3.343   8.911  0.00  0.00    +0.000 C 
ATOM     10  N   UNL     1      45.050   2.998  10.233  0.00  0.00    +0.000 N 
ATOM     11  H   UNL     1      45.662   2.268  10.584  0.00  0.00    +0.000 HD
BRANCH   9  12
ATOM     12  CA  UNL     1      46.058   2.359   8.167  0.00  0.00    +0.000 A 
ATOM     13  C   UNL     1      46.961   2.633   7.158  0.00  0.00    +0.000 A 
ATOM     14  N   UNL     1      47.437   1.419   6.754  0.00  0.00    +0.000 N 
ATOM     15  C   UNL     1      46.822   0.463   7.515  0.00  0.00    +0.000 A 
ATOM     16  N   UNL     1      45.985   0.990   8.376  0.00  0.00    +0.000 NA
ATOM     17  H   UNL     1      48.117   1.255   6.022  0.00  0.00    +0.000 HD
ENDBRANCH   9  12
ENDBRANCH   7  10
BRANCH   7  18
ATOM     18  C   UNL     1      43.411   3.127  12.112  0.00  0.00    +0.000 C 
BRANCH  18  19
ATOM     19  O   UNL     1      43.043   1.833  11.617  0.00  0.00    +0.000 OA
ATOM     20  H   UNL     1      42.679   1.968  10.725  0.00  0.00    +0.000 HD
ENDBRANCH  18  19
ENDBRANCH   7  18
ENDBRANCH   1   7
BRANCH   4  21
ATOM     21  C   UNL     1      48.325   6.967  14.169  0.00  0.00    +0.000 C 
BRANCH  21  22
ATOM     22  N   UNL     1      49.542   7.062  13.404  0.00  0.00    +0.000 N 
ATOM     23  C   UNL     1      50.046   8.284  13.034  0.00  0.00    +0.000 C 
ATOM     24  O   UNL     1      49.507   9.336  13.370  0.00  0.00    +0.000 OA
ATOM     25  H   UNL     1      49.867   6.221  12.934  0.00  0.00    +0.000 HD
BRANCH  23  26
ATOM     26  C   UNL     1      51.302   8.282  12.271  0.00  0.00    +0.000 A 
ATOM     27  C   UNL     1      51.275   8.015  10.908  0.00  0.00    +0.000 A 
ATOM     28  S   UNL     1      52.806   8.105  10.161  0.00  0.00    +0.000 S 
ATOM     29  C   UNL     1      53.567   8.449  11.643  0.00  0.00    +0.000 A 
ATOM     30  N   UNL     1      54.915   8.621  11.712  0.00  0.00    +0.000 NA
ATOM     31  C   UNL     1      55.364   8.841  12.903  0.00  0.00    +0.000 A 
ATOM     32  N   UNL     1      54.586   8.909  14.030  0.00  0.00    +0.000 N 
ATOM     33  C   UNL     1      53.219   8.771  14.004  0.00  0.00    +0.000 A 
ATOM     34  O   UNL     1      52.545   8.874  15.023  0.00  0.00    +0.000 OA
ATOM     35  C   UNL     1      52.664   8.511  12.689  0.00  0.00    +0.000 A 
ATOM     36  H   UNL     1      54.999   9.093  14.933  0.00  0.00    +0.000 HD
ENDBRANCH  23  26
ENDBRANCH  21  22
ENDBRANCH   4  21
TORSDOF 8
ENDMDL
MODEL 4
REMARK VINA RESULT:    -7.046      4.743      9.442
REMARK INTER + INTRA:         -11.139
REMARK INTER:                 -10.154
REMARK INTRA:                  -0.984
REMARK UNBOUND:                -1.004
REMARK  Name = 
REMARK  8 active torsions:
REMARK  status: ('A' for Active; 'I' for Inactive)
REMARK    1  A    between atoms: C_2  and  CA_27
REMARK    2  A    between atoms: N_3  and  CA_4
REMARK    3  A    between atoms: CA_4  and  C_5
REMARK    4  A    between atoms: CA_4  and  C_7
REMARK    5  A    between atoms: C_5  and  O_6
REMARK    6  A    between atoms: C_10  and  C_11
REMARK    7  A    between atoms: C_11  and  N_12
REMARK    8  A    between atoms: C_13  and  C_15
REMARK                            x       y       z     vdW  Elec       q    Type
REMARK                         _______ _______ _______ _____ _____    ______ ____
ROOT
ATOM      1  C   UNL     1      51.515   3.104  17.777  0.00  0.00    +0.000 A 
ATOM      2  C   UNL     1      50.776   2.032  17.245  0.00  0.00    +0.000 A 
ATOM      3  C   UNL     1      49.414   2.167  16.958  0.00  0.00    +0.000 A 
ATOM      4  C   UNL     1      48.755   3.381  17.184  0.00  0.00    +0.000 A 
ATOM      5  C   UNL     1      49.486   4.451  17.713  0.00  0.00    +0.000 A 
ATOM      6  C   UNL     1      50.848   4.318  18.001  0.00  0.00    +0.000 A 
ENDROOT
BRANCH   1   7
ATOM      7  CA  UNL     1      52.958   2.868  18.217  0.00  0.00    +0.000 C 
BRANCH   7  10
ATOM      8  O   UNL     1      54.239   0.613  19.340  0.00  0.00    +0.000 OA
ATOM      9  C   UNL     1      54.186   0.722  18.119  0.00  0.00    +0.000 C 
ATOM     10  N   UNL     1      53.618   1.803  17.471  0.00  0.00    +0.000 N 
ATOM     11  H   UNL     1      53.415   1.648  16.489  0.00  0.00    +0.000 HD
BRANCH   9  12
ATOM     12  CA  UNL     1      54.728  -0.292  17.210  0.00  0.00    +0.000 A 
ATOM     13  C   UNL     1      55.206  -0.071  15.933  0.00  0.00    +0.000 A 
ATOM     14  N   UNL     1      55.586  -1.297  15.468  0.00  0.00    +0.000 N 
ATOM     15  C   UNL     1      55.333  -2.208  16.456  0.00  0.00    +0.000 A 
ATOM     16  N   UNL     1      54.816  -1.641  17.520  0.00  0.00    +0.000 NA
ATOM     17  H   UNL     1      55.978  -1.497  14.556  0.00  0.00    +0.000 HD
ENDBRANCH   9  12
ENDBRANCH   7  10
BRANCH   7  18
ATOM     18  C   UNL     1      53.742   4.209  18.130  0.00  0.00    +0.000 C 
BRANCH  18  19
ATOM     19  O   UNL     1      54.683   4.234  17.049  0.00  0.00    +0.000 OA
ATOM     20  H   UNL     1      54.494   3.454  16.497  0.00  0.00    +0.000 HD
ENDBRANCH  18  19
ENDBRANCH   7  18
ENDBRANCH   1   7
BRANCH   4  21
ATOM     21  C   UNL     1      47.280   3.528  16.917  0.00  0.00    +0.000 C 
BRANCH  21  22
ATOM     22  N   UNL     1      47.015   4.542  15.928  0.00  0.00    +0.000 N 
ATOM     23  C   UNL     1      47.081   4.252  14.588  0.00  0.00    +0.000 C 
ATOM     24  O   UNL     1      47.328   3.118  14.182  0.00  0.00    +0.000 OA
ATOM     25  H   UNL     1      47.036   5.511  16.234  0.00  0.00    +0.000 HD
BRANCH  23  26
ATOM     26  C   UNL     1      46.777   5.345  13.654  0.00  0.00    +0.000 A 
ATOM     27  C   UNL     1      47.761   6.276  13.346  0.00  0.00    +0.000 A 
ATOM     28  S   UNL     1      47.266   7.446  12.208  0.00  0.00    +0.000 S 
ATOM     29  C   UNL     1      45.701   6.784  12.130  0.00  0.00    +0.000 A 
ATOM     30  N   UNL     1      44.746   7.342  11.338  0.00  0.00    +0.000 NA
ATOM     31  C   UNL     1      43.595   6.760  11.401  0.00  0.00    +0.000 A 
ATOM     32  N   UNL     1      43.314   5.668  12.181  0.00  0.00    +0.000 N 
ATOM     33  C   UNL     1      44.254   5.053  12.973  0.00  0.00    +0.000 A 
ATOM     34  O   UNL     1      43.983   4.055  13.632  0.00  0.00    +0.000 OA
ATOM     35  C   UNL     1      45.564   5.676  12.947  0.00  0.00    +0.000 A 
ATOM     36  H   UNL     1      42.393   5.254  12.180  0.00  0.00    +0.000 HD
ENDBRANCH  23  26
ENDBRANCH  21  22
ENDBRANCH   4  21
TORSDOF 8
ENDMDL
MODEL 5
REMARK VINA RESULT:    -6.691      3.582      8.784
REMARK INTER + INTRA:         -10.629
REMARK INTER:                  -9.744
REMARK INTRA:                  -0.885
REMARK UNBOUND:                -1.004
REMARK  Name = 
REMARK  8 active torsions:
REMARK  status: ('A' for Active; 'I' for Inactive)
REMARK    1  A    between atoms: C_2  and  CA_27
REMARK    2  A    between atoms: N_3  and  CA_4
REMARK    3  A    between atoms: CA_4  and  C_5
REMARK    4  A    between atoms: CA_4  and  C_7
REMARK    5  A    between atoms: C_5  and  O_6
REMARK    6  A    between atoms: C_10  and  C_11
REMARK    7  A    between atoms: C_11  and  N_12
REMARK    8  A    between atoms: C_13  and  C_15
REMARK                            x       y       z     vdW  Elec       q    Type
REMARK                         _______ _______ _______ _____ _____    ______ ____
ROOT
ATOM      1  C   UNL     1      49.634   4.684  17.476  0.00  0.00    +0.000 A 
ATOM      2  C   UNL     1      48.351   4.620  16.903  0.00  0.00    +0.000 A 
ATOM      3  C   UNL     1      47.924   5.579  15.978  0.00  0.00    +0.000 A 
ATOM      4  C   UNL     1      48.773   6.624  15.592  0.00  0.00    +0.000 A 
ATOM      5  C   UNL     1      50.051   6.693  16.159  0.00  0.00    +0.000 A 
ATOM      6  C   UNL     1      50.479   5.734  17.084  0.00  0.00    +0.000 A 
ENDROOT
BRANCH   1   7
ATOM      7  CA  UNL     1      50.002   3.709  18.590  0.00  0.00    +0.000 C 
BRANCH   7  10
ATOM      8  O   UNL     1      50.852   1.434  17.144  0.00  0.00    +0.000 OA
ATOM      9  C   UNL     1      51.688   2.114  17.730  0.00  0.00    +0.000 C 
ATOM     10  N   UNL     1      51.373   3.222  18.496  0.00  0.00    +0.000 N 
ATOM     11  H   UNL     1      52.161   3.827  18.706  0.00  0.00    +0.000 HD
BRANCH   9  12
ATOM     12  CA  UNL     1      53.123   1.820  17.681  0.00  0.00    +0.000 A 
ATOM     13  C   UNL     1      53.696   0.602  17.370  0.00  0.00    +0.000 A 
ATOM     14  N   UNL     1      55.043   0.796  17.468  0.00  0.00    +0.000 N 
ATOM     15  C   UNL     1      55.246   2.100  17.828  0.00  0.00    +0.000 A 
ATOM     16  N   UNL     1      54.114   2.747  17.967  0.00  0.00    +0.000 NA
ATOM     17  H   UNL     1      55.763   0.101  17.308  0.00  0.00    +0.000 HD
ENDBRANCH   9  12
ENDBRANCH   7  10
BRANCH   7  18
ATOM     18  C   UNL     1      49.717   4.376  19.966  0.00  0.00    +0.000 C 
BRANCH  18  19
ATOM     19  O   UNL     1      48.614   3.776  20.657  0.00  0.00    +0.000 OA
ATOM     20  H   UNL     1      47.911   3.644  19.998  0.00  0.00    +0.000 HD
ENDBRANCH  18  19
ENDBRANCH   7  18
ENDBRANCH   1   7
BRANCH   4  21
ATOM     21  C   UNL     1      48.312   7.685  14.627  0.00  0.00    +0.000 C 
BRANCH  21  22
ATOM     22  N   UNL     1      47.078   7.319  13.981  0.00  0.00    +0.000 N 
ATOM     23  C   UNL     1      47.077   6.495  12.882  0.00  0.00    +0.000 C 
ATOM     24  O   UNL     1      48.114   6.011  12.436  0.00  0.00    +0.000 OA
ATOM     25  H   UNL     1      46.256   7.879  14.189  0.00  0.00    +0.000 HD
BRANCH  23  26
ATOM     26  C   UNL     1      45.769   6.163  12.301  0.00  0.00    +0.000 A 
ATOM     27  C   UNL     1      44.993   7.169  11.741  0.00  0.00    +0.000 A 
ATOM     28  S   UNL     1      43.531   6.609  11.062  0.00  0.00    +0.000 S 
ATOM     29  C   UNL     1      43.858   5.011  11.544  0.00  0.00    +0.000 A 
ATOM     30  N   UNL     1      42.973   4.010  11.288  0.00  0.00    +0.000 NA
ATOM     31  C   UNL     1      43.331   2.854  11.739  0.00  0.00    +0.000 A 
ATOM     32  N   UNL     1      44.495   2.608  12.420  0.00  0.00    +0.000 N 
ATOM     33  C   UNL     1      45.432   3.581  12.675  0.00  0.00    +0.000 A 
ATOM     34  O   UNL     1      46.482   3.324  13.253  0.00  0.00    +0.000 OA
ATOM     35  C   UNL     1      45.073   4.903  12.197  0.00  0.00    +0.000 A 
ATOM     36  H   UNL     1      44.721   1.677  12.740  0.00  0.00    +0.000 HD
ENDBRANCH  23  26
ENDBRANCH  21  22
ENDBRANCH   4  21
TORSDOF 8
ENDMDL
MODEL 6
REMARK VINA RESULT:    -6.648      4.228      5.553
REMARK INTER + INTRA:         -10.567
REMARK INTER:                  -9.388
REMARK INTRA:                  -1.179
REMARK UNBOUND:                -1.004
REMARK  Name = 
REMARK  8 active torsions:
REMARK  status: ('A' for Active; 'I' for Inactive)
REMARK    1  A    between atoms: C_2  and  CA_27
REMARK    2  A    between atoms: N_3  and  CA_4
REMARK    3  A    between atoms: CA_4  and  C_5
REMARK    4  A    between atoms: CA_4  and  C_7
REMARK    5  A    between atoms: C_5  and  O_6
REMARK    6  A    between atoms: C_10  and  C_11
REMARK    7  A    between atoms: C_11  and  N_12
REMARK    8  A    between atoms: C_13  and  C_15
REMARK                            x       y       z     vdW  Elec       q    Type
REMARK                         _______ _______ _______ _____ _____    ______ ____
ROOT
ATOM      1  C   UNL     1      44.950   5.635  11.407  0.00  0.00    +0.000 A 
ATOM      2  C   UNL     1      46.063   5.282  12.192  0.00  0.00    +0.000 A 
ATOM      3  C   UNL     1      46.770   6.247  12.917  0.00  0.00    +0.000 A 
ATOM      4  C   UNL     1      46.378   7.590  12.887  0.00  0.00    +0.000 A 
ATOM      5  C   UNL     1      45.271   7.948  12.107  0.00  0.00    +0.000 A 
ATOM      6  C   UNL     1      44.563   6.984  11.381  0.00  0.00    +0.000 A 
ENDROOT
BRANCH   1   7
ATOM      7  CA  UNL     1      44.303   4.580  10.514  0.00  0.00    +0.000 C 
BRANCH   7  10
ATOM      8  O   UNL     1      44.014   3.700   7.843  0.00  0.00    +0.000 OA
ATOM      9  C   UNL     1      45.048   3.439   8.448  0.00  0.00    +0.000 C 
ATOM     10  N   UNL     1      45.273   3.788   9.767  0.00  0.00    +0.000 N 
ATOM     11  H   UNL     1      46.245   3.740  10.056  0.00  0.00    +0.000 HD
BRANCH   9  12
ATOM     12  CA  UNL     1      46.165   2.718   7.831  0.00  0.00    +0.000 A 
ATOM     13  C   UNL     1      46.463   1.379   7.997  0.00  0.00    +0.000 A 
ATOM     14  N   UNL     1      47.586   1.159   7.252  0.00  0.00    +0.000 N 
ATOM     15  C   UNL     1      47.929   2.347   6.667  0.00  0.00    +0.000 A 
ATOM     16  N   UNL     1      47.099   3.308   6.992  0.00  0.00    +0.000 NA
ATOM     17  H   UNL     1      48.078   0.280   7.154  0.00  0.00    +0.000 HD
ENDBRANCH   9  12
ENDBRANCH   7  10
BRANCH   7  18
ATOM     18  C   UNL     1      43.367   3.687  11.377  0.00  0.00    +0.000 C 
BRANCH  18  19
ATOM     19  O   UNL     1      42.271   4.417  11.944  0.00  0.00    +0.000 OA
ATOM     20  H   UNL     1      42.294   5.307  11.549  0.00  0.00    +0.000 HD
ENDBRANCH  18  19
ENDBRANCH   7  18
ENDBRANCH   1   7
BRANCH   4  21
ATOM     21  C   UNL     1      47.154   8.645  13.632  0.00  0.00    +0.000 C 
BRANCH  21  22
ATOM     22  N   UNL     1      48.417   8.925  12.999  0.00  0.00    +0.000 N 
ATOM     23  C   UNL     1      48.520   9.896  12.034  0.00  0.00    +0.000 C 
ATOM     24  O   UNL     1      47.557  10.585  11.703  0.00  0.00    +0.000 OA
ATOM     25  H   UNL     1      49.152   8.229  13.092  0.00  0.00    +0.000 HD
BRANCH  23  26
ATOM     26  C   UNL     1      49.853  10.124  11.458  0.00  0.00    +0.000 A 
ATOM     27  C   UNL     1      50.257  11.418  11.157  0.00  0.00    +0.000 A 
ATOM     28  S   UNL     1      51.847  11.516  10.549  0.00  0.00    +0.000 S 
ATOM     29  C   UNL     1      52.032   9.826  10.613  0.00  0.00    +0.000 A 
ATOM     30  N   UNL     1      53.185   9.233  10.199  0.00  0.00    +0.000 NA
ATOM     31  C   UNL     1      53.176   7.945  10.270  0.00  0.00    +0.000 A 
ATOM     32  N   UNL     1      52.120   7.194  10.720  0.00  0.00    +0.000 N 
ATOM     33  C   UNL     1      50.949   7.750  11.176  0.00  0.00    +0.000 A 
ATOM     34  O   UNL     1      50.036   7.056  11.609  0.00  0.00    +0.000 OA
ATOM     35  C   UNL     1      50.903   9.199  11.109  0.00  0.00    +0.000 A 
ATOM     36  H   UNL     1      52.180   6.187  10.759  0.00  0.00    +0.000 HD
ENDBRANCH  23  26
ENDBRANCH  21  22
ENDBRANCH   4  21
TORSDOF 8
ENDMDL
MODEL 7
REMARK VINA RESULT:    -6.619      4.772      9.392
REMARK INTER + INTRA:         -10.524
REMARK INTER:                  -9.317
REMARK INTRA:                  -1.208
REMARK UNBOUND:                -1.004
REMARK  Name = 
REMARK  8 active torsions:
REMARK  status: ('A' for Active; 'I' for Inactive)
REMARK    1  A    between atoms: C_2  and  CA_27
REMARK    2  A    between atoms: N_3  and  CA_4
REMARK    3  A    between atoms: CA_4  and  C_5
REMARK    4  A    between atoms: CA_4  and  C_7
REMARK    5  A    between atoms: C_5  and  O_6
REMARK    6  A    between atoms: C_10  and  C_11
REMARK    7  A    between atoms: C_11  and  N_12
REMARK    8  A    between atoms: C_13  and  C_15
REMARK                            x       y       z     vdW  Elec       q    Type
REMARK                         _______ _______ _______ _____ _____    ______ ____
ROOT
ATOM      1  C   UNL     1      51.534   2.996  17.752  0.00  0.00    +0.000 A 
ATOM      2  C   UNL     1      50.718   1.970  17.241  0.00  0.00    +0.000 A 
ATOM      3  C   UNL     1      49.367   2.195  16.958  0.00  0.00    +0.000 A 
ATOM      4  C   UNL     1      48.796   3.456  17.167  0.00  0.00    +0.000 A 
ATOM      5  C   UNL     1      49.603   4.481  17.675  0.00  0.00    +0.000 A 
ATOM      6  C   UNL     1      50.954   4.257  17.959  0.00  0.00    +0.000 A 
ENDROOT
BRANCH   1   7
ATOM      7  CA  UNL     1      52.958   2.667  18.190  0.00  0.00    +0.000 C 
BRANCH   7  10
ATOM      8  O   UNL     1      54.576   0.751  19.494  0.00  0.00    +0.000 OA
ATOM      9  C   UNL     1      54.228   0.548  18.335  0.00  0.00    +0.000 C 
ATOM     10  N   UNL     1      53.471   1.438  17.596  0.00  0.00    +0.000 N 
ATOM     11  H   UNL     1      53.047   1.041  16.763  0.00  0.00    +0.000 HD
BRANCH   9  12
ATOM     12  CA  UNL     1      54.585  -0.671  17.605  0.00  0.00    +0.000 A 
ATOM     13  C   UNL     1      54.776  -1.925  18.153  0.00  0.00    +0.000 A 
ATOM     14  N   UNL     1      55.107  -2.735  17.106  0.00  0.00    +0.000 N 
ATOM     15  C   UNL     1      55.107  -1.966  15.975  0.00  0.00    +0.000 A 
ATOM     16  N   UNL     1      54.798  -0.719  16.235  0.00  0.00    +0.000 NA
ATOM     17  H   UNL     1      55.320  -3.724  17.157  0.00  0.00    +0.000 HD
ENDBRANCH   9  12
ENDBRANCH   7  10
BRANCH   7  18
ATOM     18  C   UNL     1      53.878   3.885  17.887  0.00  0.00    +0.000 C 
BRANCH  18  19
ATOM     19  O   UNL     1      55.270   3.544  17.888  0.00  0.00    +0.000 OA
ATOM     20  H   UNL     1      55.383   2.830  17.236  0.00  0.00    +0.000 HD
ENDBRANCH  18  19
ENDBRANCH   7  18
ENDBRANCH   1   7
BRANCH   4  21
ATOM     21  C   UNL     1      47.333   3.702  16.903  0.00  0.00    +0.000 C 
BRANCH  21  22
ATOM     22  N   UNL     1      47.135   4.686  15.869  0.00  0.00    +0.000 N 
ATOM     23  C   UNL     1      47.122   4.323  14.545  0.00  0.00    +0.000 C 
ATOM     24  O   UNL     1      47.238   3.151  14.195  0.00  0.00    +0.000 OA
ATOM     25  H   UNL     1      47.265   5.663  16.121  0.00  0.00    +0.000 HD
BRANCH  23  26
ATOM     26  C   UNL     1      46.895   5.393  13.564  0.00  0.00    +0.000 A 
ATOM     27  C   UNL     1      45.807   5.315  12.704  0.00  0.00    +0.000 A 
ATOM     28  S   UNL     1      45.654   6.660  11.667  0.00  0.00    +0.000 S 
ATOM     29  C   UNL     1      47.070   7.369  12.291  0.00  0.00    +0.000 A 
ATOM     30  N   UNL     1      47.529   8.554  11.807  0.00  0.00    +0.000 NA
ATOM     31  C   UNL     1      48.630   8.959  12.346  0.00  0.00    +0.000 A 
ATOM     32  N   UNL     1      49.311   8.287  13.328  0.00  0.00    +0.000 N 
ATOM     33  C   UNL     1      48.870   7.103  13.868  0.00  0.00    +0.000 A 
ATOM     34  O   UNL     1      49.481   6.544  14.772  0.00  0.00    +0.000 OA
ATOM     35  C   UNL     1      47.640   6.598  13.289  0.00  0.00    +0.000 A 
ATOM     36  H   UNL     1      50.166   8.662  13.715  0.00  0.00    +0.000 HD
ENDBRANCH  23  26
ENDBRANCH  21  22
ENDBRANCH   4  21
TORSDOF 8
ENDMDL
MODEL 8
REMARK VINA RESULT:    -6.567      3.038      9.174
REMARK INTER + INTRA:         -10.449
REMARK INTER:                  -9.345
REMARK INTRA:                  -1.104
REMARK UNBOUND:                -1.004
REMARK  Name = 
REMARK  8 active torsions:
REMARK  status: ('A' for Active; 'I' for Inactive)
REMARK    1  A    between atoms: C_2  and  CA_27
REMARK    2  A    between atoms: N_3  and  CA_4
REMARK    3  A    between atoms: CA_4  and  C_5
REMARK    4  A    between atoms: CA_4  and  C_7
REMARK    5  A    between atoms: C_5  and  O_6
REMARK    6  A    between atoms: C_10  and  C_11
REMARK    7  A    between atoms: C_11  and  N_12
REMARK    8  A    between atoms: C_13  and  C_15
REMARK                            x       y       z     vdW  Elec       q    Type
REMARK                         _______ _______ _______ _____ _____    ______ ____
ROOT
ATOM      1  C   UNL     1      49.612   8.032  15.506  0.00  0.00    +0.000 A 
ATOM      2  C   UNL     1      50.080   7.392  14.345  0.00  0.00    +0.000 A 
ATOM      3  C   UNL     1      49.328   7.394  13.165  0.00  0.00    +0.000 A 
ATOM      4  C   UNL     1      48.091   8.046  13.111  0.00  0.00    +0.000 A 
ATOM      5  C   UNL     1      47.619   8.684  14.264  0.00  0.00    +0.000 A 
ATOM      6  C   UNL     1      48.370   8.683  15.444  0.00  0.00    +0.000 A 
ENDROOT
BRANCH   1   7
ATOM      7  CA  UNL     1      50.390   7.876  16.809  0.00  0.00    +0.000 C 
BRANCH   7  10
ATOM      8  O   UNL     1      48.808   5.778  17.850  0.00  0.00    +0.000 OA
ATOM      9  C   UNL     1      49.969   5.546  17.531  0.00  0.00    +0.000 C 
ATOM     10  N   UNL     1      50.837   6.509  17.050  0.00  0.00    +0.000 N 
ATOM     11  H   UNL     1      51.665   6.140  16.593  0.00  0.00    +0.000 HD
BRANCH   9  12
ATOM     12  CA  UNL     1      50.566   4.212  17.631  0.00  0.00    +0.000 A 
ATOM     13  C   UNL     1      51.709   3.879  18.331  0.00  0.00    +0.000 A 
ATOM     14  N   UNL     1      51.888   2.541  18.124  0.00  0.00    +0.000 N 
ATOM     15  C   UNL     1      50.868   2.109  17.321  0.00  0.00    +0.000 A 
ATOM     16  N   UNL     1      50.053   3.086  17.003  0.00  0.00    +0.000 NA
ATOM     17  H   UNL     1      52.640   1.973  18.494  0.00  0.00    +0.000 HD
ENDBRANCH   9  12
ENDBRANCH   7  10
BRANCH   7  18
ATOM     18  C   UNL     1      51.575   8.884  16.818  0.00  0.00    +0.000 C 
BRANCH  18  19
ATOM     19  O   UNL     1      52.385   8.778  17.997  0.00  0.00    +0.000 OA
ATOM     20  H   UNL     1      53.244   8.420  17.713  0.00  0.00    +0.000 HD
ENDBRANCH  18  19
ENDBRANCH   7  18
ENDBRANCH   1   7
BRANCH   4  21
ATOM     21  C   UNL     1      47.253   8.022  11.859  0.00  0.00    +0.000 C 
BRANCH  21  22
ATOM     22  N   UNL     1      46.641   6.734  11.650  0.00  0.00    +0.000 N 
ATOM     23  C   UNL     1      45.275   6.599  11.639  0.00  0.00    +0.000 C 
ATOM     24  O   UNL     1      44.527   7.566  11.767  0.00  0.00    +0.000 OA
ATOM     25  H   UNL     1      47.227   5.912  11.771  0.00  0.00    +0.000 HD
BRANCH  23  26
ATOM     26  C   UNL     1      44.742   5.250  11.401  0.00  0.00    +0.000 A 
ATOM     27  C   UNL     1      43.994   4.624  12.389  0.00  0.00    +0.000 A 
ATOM     28  S   UNL     1      43.404   3.090  11.935  0.00  0.00    +0.000 S 
ATOM     29  C   UNL     1      44.176   3.183  10.422  0.00  0.00    +0.000 A 
ATOM     30  N   UNL     1      44.092   2.158   9.531  0.00  0.00    +0.000 NA
ATOM     31  C   UNL     1      44.753   2.347   8.439  0.00  0.00    +0.000 A 
ATOM     32  N   UNL     1      45.487   3.469   8.154  0.00  0.00    +0.000 N 
ATOM     33  C   UNL     1      45.576   4.541   9.009  0.00  0.00    +0.000 A 
ATOM     34  O   UNL     1      46.209   5.547   8.712  0.00  0.00    +0.000 OA
ATOM     35  C   UNL     1      44.858   4.375  10.259  0.00  0.00    +0.000 A 
ATOM     36  H   UNL     1      45.976   3.559   7.275  0.00  0.00    +0.000 HD
ENDBRANCH  23  26
ENDBRANCH  21  22
ENDBRANCH   4  21
TORSDOF 8
ENDMDL
MODEL 9
REMARK VINA RESULT:    -6.525      1.944      2.509
REMARK INTER + INTRA:         -10.389
REMARK INTER:                 -10.085
REMARK INTRA:                  -0.304
REMARK UNBOUND:                -1.004
REMARK  Name = 
REMARK  8 active torsions:
REMARK  status: ('A' for Active; 'I' for Inactive)
REMARK    1  A    between atoms: C_2  and  CA_27
REMARK    2  A    between atoms: N_3  and  CA_4
REMARK    3  A    between atoms: CA_4  and  C_5
REMARK    4  A    between atoms: CA_4  and  C_7
REMARK    5  A    between atoms: C_5  and  O_6
REMARK    6  A    between atoms: C_10  and  C_11
REMARK    7  A    between atoms: C_11  and  N_12
REMARK    8  A    between atoms: C_13  and  C_15
REMARK                            x       y       z     vdW  Elec       q    Type
REMARK                         _______ _______ _______ _____ _____    ______ ____
ROOT
ATOM      1  C   UNL     1      45.583   5.358  11.839  0.00  0.00    +0.000 A 
ATOM      2  C   UNL     1      45.157   4.337  12.707  0.00  0.00    +0.000 A 
ATOM      3  C   UNL     1      45.818   4.095  13.916  0.00  0.00    +0.000 A 
ATOM      4  C   UNL     1      46.916   4.875  14.296  0.00  0.00    +0.000 A 
ATOM      5  C   UNL     1      47.344   5.893  13.436  0.00  0.00    +0.000 A 
ATOM      6  C   UNL     1      46.685   6.136  12.226  0.00  0.00    +0.000 A 
ENDROOT
BRANCH   1   7
ATOM      7  CA  UNL     1      44.931   5.488  10.465  0.00  0.00    +0.000 C 
BRANCH   7  10
ATOM      8  O   UNL     1      44.364   2.802   9.792  0.00  0.00    +0.000 OA
ATOM      9  C   UNL     1      45.225   3.405   9.160  0.00  0.00    +0.000 C 
ATOM     10  N   UNL     1      45.604   4.706   9.435  0.00  0.00    +0.000 N 
ATOM     11  H   UNL     1      46.128   5.159   8.692  0.00  0.00    +0.000 HD
BRANCH   9  12
ATOM     12  CA  UNL     1      45.952   2.803   8.039  0.00  0.00    +0.000 A 
ATOM     13  C   UNL     1      46.243   3.413   6.834  0.00  0.00    +0.000 A 
ATOM     14  N   UNL     1      46.910   2.474   6.101  0.00  0.00    +0.000 N 
ATOM     15  C   UNL     1      47.002   1.344   6.867  0.00  0.00    +0.000 A 
ATOM     16  N   UNL     1      46.437   1.504   8.039  0.00  0.00    +0.000 NA
ATOM     17  H   UNL     1      47.267   2.589   5.160  0.00  0.00    +0.000 HD
ENDBRANCH   9  12
ENDBRANCH   7  10
BRANCH   7  18
ATOM     18  C   UNL     1      43.424   5.120  10.579  0.00  0.00    +0.000 C 
BRANCH  18  19
ATOM     19  O   UNL     1      42.596   6.254  10.868  0.00  0.00    +0.000 OA
ATOM     20  H   UNL     1      42.046   6.406  10.079  0.00  0.00    +0.000 HD
ENDBRANCH  18  19
ENDBRANCH   7  18
ENDBRANCH   1   7
BRANCH   4  21
ATOM     21  C   UNL     1      47.661   4.600  15.577  0.00  0.00    +0.000 C 
BRANCH  21  22
ATOM     22  N   UNL     1      47.870   5.803  16.342  0.00  0.00    +0.000 N 
ATOM     23  C   UNL     1      49.122   6.143  16.789  0.00  0.00    +0.000 C 
ATOM     24  O   UNL     1      50.111   5.463  16.524  0.00  0.00    +0.000 OA
ATOM     25  H   UNL     1      47.052   6.244  16.754  0.00  0.00    +0.000 HD
BRANCH  23  26
ATOM     26  C   UNL     1      49.241   7.397  17.545  0.00  0.00    +0.000 A 
ATOM     27  C   UNL     1      50.085   8.399  17.082  0.00  0.00    +0.000 A 
ATOM     28  S   UNL     1      50.067   9.808  18.042  0.00  0.00    +0.000 S 
ATOM     29  C   UNL     1      48.973   9.109  19.142  0.00  0.00    +0.000 A 
ATOM     30  N   UNL     1      48.554   9.794  20.241  0.00  0.00    +0.000 NA
ATOM     31  C   UNL     1      47.754   9.132  21.007  0.00  0.00    +0.000 A 
ATOM     32  N   UNL     1      47.332   7.848  20.773  0.00  0.00    +0.000 N 
ATOM     33  C   UNL     1      47.705   7.129  19.663  0.00  0.00    +0.000 A 
ATOM     34  O   UNL     1      47.281   5.997  19.461  0.00  0.00    +0.000 OA
ATOM     35  C   UNL     1      48.614   7.825  18.772  0.00  0.00    +0.000 A 
ATOM     36  H   UNL     1      46.697   7.388  21.410  0.00  0.00    +0.000 HD
ENDBRANCH  23  26
ENDBRANCH  21  22
ENDBRANCH   4  21
TORSDOF 8
ENDMDL
