MODEL 1
REMARK VINA RESULT:    -8.438      0.000      0.000
REMARK INTER + INTRA:         -11.593
REMARK INTER:                 -10.905
REMARK INTRA:                  -0.688
REMARK UNBOUND:                -0.688
REMARK  Name = 
REMARK  5 active torsions:
REMARK  status: ('A' for Active; 'I' for Inactive)
REMARK    1  A    between atoms: C_2  and  C_18
REMARK    2  A    between atoms: N_3  and  C_4
REMARK    3  A    between atoms: C_4  and  C_5
REMARK    4  A    between atoms: C_8  and  C_9
REMARK    5  A    between atoms: C_9  and  C_10
REMARK                            x       y       z     vdW  Elec       q    Type
REMARK                         _______ _______ _______ _____ _____    ______ ____
ROOT
ATOM      1  O   UNL     1      47.113   3.227  14.029  0.00  0.00    +0.000 OA
ATOM      2  C   UNL     1      46.862   4.392  14.319  0.00  0.00    +0.000 C 
ATOM      3  N   UNL     1      45.685   5.034  14.015  0.00  0.00    +0.000 N 
ATOM      4  H   UNL     1      45.509   5.921  14.464  0.00  0.00    +0.000 HD
ENDROOT
BRANCH   2   5
ATOM      5  C   UNL     1      47.676   5.187  15.230  0.00  0.00    +0.000 A 
ATOM      6  C   UNL     1      48.307   6.357  14.845  0.00  0.00    +0.000 A 
ATOM      7  S   UNL     1      49.603   6.751  15.901  0.00  0.00    +0.000 S 
ATOM      8  C   UNL     1      49.238   5.440  16.931  0.00  0.00    +0.000 A 
ATOM      9  N   UNL     1      50.044   5.067  17.960  0.00  0.00    +0.000 NA
ATOM     10  C   UNL     1      49.587   4.076  18.657  0.00  0.00    +0.000 A 
ATOM     11  N   UNL     1      48.372   3.465  18.459  0.00  0.00    +0.000 N 
ATOM     12  C   UNL     1      47.515   3.825  17.448  0.00  0.00    +0.000 A 
ATOM     13  O   UNL     1      46.401   3.331  17.328  0.00  0.00    +0.000 OA
ATOM     14  C   UNL     1      48.060   4.829  16.561  0.00  0.00    +0.000 A 
ATOM     15  H   UNL     1      48.037   2.754  19.093  0.00  0.00    +0.000 HD
ENDBRANCH   2   5
BRANCH   3  16
ATOM     16  C   UNL     1      44.529   4.338  13.523  0.00  0.00    +0.000 C 
BRANCH  16  17
ATOM     17  C   UNL     1      44.573   4.261  12.024  0.00  0.00    +0.000 A 
ATOM     18  C   UNL     1      45.300   5.178  11.266  0.00  0.00    +0.000 A 
ATOM     19  C   UNL     1      45.332   5.061   9.876  0.00  0.00    +0.000 A 
ATOM     20  C   UNL     1      44.623   4.025   9.271  0.00  0.00    +0.000 A 
ATOM     21  N   UNL     1      43.854   3.164   9.982  0.00  0.00    +0.000 NA
ATOM     22  C   UNL     1      43.847   3.299  11.330  0.00  0.00    +0.000 A 
BRANCH  20  23
ATOM     23  C   UNL     1      44.696   3.806   7.778  0.00  0.00    +0.000 C 
BRANCH  23  24
ATOM     24  C   UNL     1      45.883   3.015   7.322  0.00  0.00    +0.000 A 
ATOM     25  C   UNL     1      46.269   1.838   7.931  0.00  0.00    +0.000 A 
ATOM     26  N   UNL     1      47.318   1.093   7.534  0.00  0.00    +0.000 NA
ATOM     27  C   UNL     1      47.991   1.559   6.471  0.00  0.00    +0.000 A 
ATOM     28  N   UNL     1      47.711   2.678   5.788  0.00  0.00    +0.000 NA
ATOM     29  C   UNL     1      46.649   3.382   6.231  0.00  0.00    +0.000 A 
ENDBRANCH  23  24
ENDBRANCH  20  23
ENDBRANCH  16  17
ENDBRANCH   3  16
TORSDOF 5
ENDMDL
MODEL 2
REMARK VINA RESULT:    -7.883      1.819      2.782
REMARK INTER + INTRA:         -10.875
REMARK INTER:                  -9.998
REMARK INTRA:                  -0.877
REMARK UNBOUND:                -0.688
REMARK  Name = 
REMARK  5 active torsions:
REMARK  status: ('A' for Active; 'I' for Inactive)
REMARK    1  A    between atoms: C_2  and  C_18
REMARK    2  A    between atoms: N_3  and  C_4
REMARK    3  A    between atoms: C_4  and  C_5
REMARK    4  A    between atoms: C_8  and  C_9
REMARK    5  A    between atoms: C_9  and  C_10
REMARK                            x       y       z     vdW  Elec       q    Type
REMARK                         _______ _______ _______ _____ _____    ______ ____
ROOT
ATOM      1  O   UNL     1      47.415   3.459  15.034  0.00  0.00    +0.000 OA
ATOM      2  C   UNL     1      47.340   4.678  14.919  0.00  0.00    +0.000 C 
ATOM      3  N   UNL     1      46.303   5.341  14.307  0.00  0.00    +0.000 N 
ATOM      4  H   UNL     1      46.247   6.340  14.438  0.00  0.00    +0.000 HD
ENDROOT
BRANCH   2   5
ATOM      5  C   UNL     1      48.217   5.606  15.622  0.00  0.00    +0.000 A 
ATOM      6  C   UNL     1      48.443   5.539  16.985  0.00  0.00    +0.000 A 
ATOM      7  S   UNL     1      49.025   7.033  17.602  0.00  0.00    +0.000 S 
ATOM      8  C   UNL     1      49.094   7.717  16.041  0.00  0.00    +0.000 A 
ATOM      9  N   UNL     1      49.351   9.034  15.826  0.00  0.00    +0.000 NA
ATOM     10  C   UNL     1      49.404   9.365  14.575  0.00  0.00    +0.000 A 
ATOM     11  N   UNL     1      49.285   8.491  13.521  0.00  0.00    +0.000 N 
ATOM     12  C   UNL     1      49.050   7.150  13.691  0.00  0.00    +0.000 A 
ATOM     13  O   UNL     1      49.027   6.365  12.751  0.00  0.00    +0.000 OA
ATOM     14  C   UNL     1      48.839   6.772  15.071  0.00  0.00    +0.000 A 
ATOM     15  H   UNL     1      49.421   8.801  12.570  0.00  0.00    +0.000 HD
ENDBRANCH   2   5
BRANCH   3  16
ATOM     16  C   UNL     1      45.081   4.686  13.934  0.00  0.00    +0.000 C 
BRANCH  16  17
ATOM     17  C   UNL     1      44.992   4.571  12.439  0.00  0.00    +0.000 A 
ATOM     18  C   UNL     1      45.693   5.434  11.597  0.00  0.00    +0.000 A 
ATOM     19  C   UNL     1      45.601   5.283  10.214  0.00  0.00    +0.000 A 
ATOM     20  C   UNL     1      44.796   4.268   9.700  0.00  0.00    +0.000 A 
ATOM     21  N   UNL     1      44.052   3.462  10.497  0.00  0.00    +0.000 NA
ATOM     22  C   UNL     1      44.166   3.629  11.836  0.00  0.00    +0.000 A 
BRANCH  20  23
ATOM     23  C   UNL     1      44.732   4.010   8.212  0.00  0.00    +0.000 C 
BRANCH  23  24
ATOM     24  C   UNL     1      45.765   3.054   7.701  0.00  0.00    +0.000 A 
ATOM     25  C   UNL     1      45.950   1.799   8.248  0.00  0.00    +0.000 A 
ATOM     26  N   UNL     1      46.854   0.908   7.799  0.00  0.00    +0.000 NA
ATOM     27  C   UNL     1      47.588   1.305   6.749  0.00  0.00    +0.000 A 
ATOM     28  N   UNL     1      47.496   2.488   6.123  0.00  0.00    +0.000 NA
ATOM     29  C   UNL     1      46.572   3.338   6.616  0.00  0.00    +0.000 A 
ENDBRANCH  23  24
ENDBRANCH  20  23
ENDBRANCH  16  17
ENDBRANCH   3  16
TORSDOF 5
ENDMDL
MODEL 3
REMARK VINA RESULT:    -7.785      2.963      8.637
REMARK INTER + INTRA:         -10.748
REMARK INTER:                  -9.883
REMARK INTRA:                  -0.865
REMARK UNBOUND:                -0.688
REMARK  Name = 
REMARK  5 active torsions:
REMARK  status: ('A' for Active; 'I' for Inactive)
REMARK    1  A    between atoms: C_2  and  C_18
REMARK    2  A    between atoms: N_3  and  C_4
REMARK    3  A    between atoms: C_4  and  C_5
REMARK    4  A    between atoms: C_8  and  C_9
REMARK    5  A    between atoms: C_9  and  C_10
REMARK                            x       y       z     vdW  Elec       q    Type
REMARK                         _______ _______ _______ _____ _____    ______ ____
ROOT
ATOM      1  O   UNL     1      45.023   7.331  11.407  0.00  0.00    +0.000 OA
ATOM      2  C   UNL     1      45.452   6.182  11.400  0.00  0.00    +0.000 C 
ATOM      3  N   UNL     1      46.665   5.799  11.921  0.00  0.00    +0.000 N 
ATOM      4  H   UNL     1      46.833   4.810  12.034  0.00  0.00    +0.000 HD
ENDROOT
BRANCH   2   5
ATOM      5  C   UNL     1      44.639   5.023  11.054  0.00  0.00    +0.000 A 
ATOM      6  C   UNL     1      43.611   4.561  11.857  0.00  0.00    +0.000 A 
ATOM      7  S   UNL     1      43.227   2.923  11.510  0.00  0.00    +0.000 S 
ATOM      8  C   UNL     1      44.336   2.878  10.214  0.00  0.00    +0.000 A 
ATOM      9  N   UNL     1      44.655   1.730   9.559  0.00  0.00    +0.000 NA
ATOM     10  C   UNL     1      45.483   1.895   8.577  0.00  0.00    +0.000 A 
ATOM     11  N   UNL     1      45.973   3.106   8.152  0.00  0.00    +0.000 N 
ATOM     12  C   UNL     1      45.659   4.292   8.768  0.00  0.00    +0.000 A 
ATOM     13  O   UNL     1      46.035   5.375   8.334  0.00  0.00    +0.000 OA
ATOM     14  C   UNL     1      44.854   4.128   9.958  0.00  0.00    +0.000 A 
ATOM     15  H   UNL     1      46.549   3.174   7.325  0.00  0.00    +0.000 HD
ENDBRANCH   2   5
BRANCH   3  16
ATOM     16  C   UNL     1      47.466   6.671  12.735  0.00  0.00    +0.000 C 
BRANCH  16  17
ATOM     17  C   UNL     1      47.732   6.033  14.068  0.00  0.00    +0.000 A 
ATOM     18  C   UNL     1      47.017   4.915  14.498  0.00  0.00    +0.000 A 
ATOM     19  C   UNL     1      47.307   4.338  15.735  0.00  0.00    +0.000 A 
ATOM     20  C   UNL     1      48.308   4.903  16.523  0.00  0.00    +0.000 A 
ATOM     21  N   UNL     1      48.967   6.030  16.156  0.00  0.00    +0.000 NA
ATOM     22  C   UNL     1      48.669   6.564  14.947  0.00  0.00    +0.000 A 
BRANCH  20  23
ATOM     23  C   UNL     1      48.717   4.265  17.830  0.00  0.00    +0.000 C 
BRANCH  23  24
ATOM     24  C   UNL     1      49.924   3.383  17.742  0.00  0.00    +0.000 A 
ATOM     25  C   UNL     1      49.882   2.121  17.183  0.00  0.00    +0.000 A 
ATOM     26  N   UNL     1      50.952   1.312  17.069  0.00  0.00    +0.000 NA
ATOM     27  C   UNL     1      52.108   1.811  17.532  0.00  0.00    +0.000 A 
ATOM     28  N   UNL     1      52.281   3.020  18.084  0.00  0.00    +0.000 NA
ATOM     29  C   UNL     1      51.175   3.787  18.170  0.00  0.00    +0.000 A 
ENDBRANCH  23  24
ENDBRANCH  20  23
ENDBRANCH  16  17
ENDBRANCH   3  16
TORSDOF 5
ENDMDL
MODEL 4
REMARK VINA RESULT:    -7.311      2.151      3.238
REMARK INTER + INTRA:         -10.136
REMARK INTER:                  -9.264
REMARK INTRA:                  -0.872
REMARK UNBOUND:                -0.688
REMARK  Name = 
REMARK  5 active torsions:
REMARK  status: ('A' for Active; 'I' for Inactive)
REMARK    1  A    between atoms: C_2  and  C_18
REMARK    2  A    between atoms: N_3  and  C_4
REMARK    3  A    between atoms: C_4  and  C_5
REMARK    4  A    between atoms: C_8  and  C_9
REMARK    5  A    between atoms: C_9  and  C_10
REMARK                            x       y       z     vdW  Elec       q    Type
REMARK                         _______ _______ _______ _____ _____    ______ ____
ROOT
ATOM      1  O   UNL     1      48.452   8.189  16.968  0.00  0.00    +0.000 OA
ATOM      2  C   UNL     1      48.700   7.067  16.539  0.00  0.00    +0.000 C 
ATOM      3  N   UNL     1      48.355   6.617  15.288  0.00  0.00    +0.000 N 
ATOM      4  H   UNL     1      48.774   5.754  14.971  0.00  0.00    +0.000 HD
ENDROOT
BRANCH   2   5
ATOM      5  C   UNL     1      49.602   6.135  17.205  0.00  0.00    +0.000 A 
ATOM      6  C   UNL     1      50.839   6.510  17.698  0.00  0.00    +0.000 A 
ATOM      7  S   UNL     1      51.876   5.156  17.898  0.00  0.00    +0.000 S 
ATOM      8  C   UNL     1      50.638   4.070  17.451  0.00  0.00    +0.000 A 
ATOM      9  N   UNL     1      50.862   2.746  17.242  0.00  0.00    +0.000 NA
ATOM     10  C   UNL     1      49.797   2.069  16.949  0.00  0.00    +0.000 A 
ATOM     11  N   UNL     1      48.523   2.582  16.905  0.00  0.00    +0.000 N 
ATOM     12  C   UNL     1      48.247   3.907  17.133  0.00  0.00    +0.000 A 
ATOM     13  O   UNL     1      47.102   4.340  17.173  0.00  0.00    +0.000 OA
ATOM     14  C   UNL     1      49.430   4.719  17.319  0.00  0.00    +0.000 A 
ATOM     15  H   UNL     1      47.725   1.982  16.753  0.00  0.00    +0.000 HD
ENDBRANCH   2   5
BRANCH   3  16
ATOM     16  C   UNL     1      47.863   7.491  14.260  0.00  0.00    +0.000 C 
BRANCH  16  17
ATOM     17  C   UNL     1      46.997   6.726  13.302  0.00  0.00    +0.000 A 
ATOM     18  C   UNL     1      46.737   5.367  13.478  0.00  0.00    +0.000 A 
ATOM     19  C   UNL     1      45.910   4.695  12.577  0.00  0.00    +0.000 A 
ATOM     20  C   UNL     1      45.365   5.402  11.508  0.00  0.00    +0.000 A 
ATOM     21  N   UNL     1      45.660   6.706  11.278  0.00  0.00    +0.000 NA
ATOM     22  C   UNL     1      46.460   7.333  12.172  0.00  0.00    +0.000 A 
BRANCH  20  23
ATOM     23  C   UNL     1      44.396   4.740  10.555  0.00  0.00    +0.000 C 
BRANCH  23  24
ATOM     24  C   UNL     1      45.041   3.939   9.467  0.00  0.00    +0.000 A 
ATOM     25  C   UNL     1      45.662   4.527   8.382  0.00  0.00    +0.000 A 
ATOM     26  N   UNL     1      46.269   3.837   7.398  0.00  0.00    +0.000 NA
ATOM     27  C   UNL     1      46.253   2.502   7.529  0.00  0.00    +0.000 A 
ATOM     28  N   UNL     1      45.696   1.815   8.536  0.00  0.00    +0.000 NA
ATOM     29  C   UNL     1      45.104   2.559   9.494  0.00  0.00    +0.000 A 
ENDBRANCH  23  24
ENDBRANCH  20  23
ENDBRANCH  16  17
ENDBRANCH   3  16
TORSDOF 5
ENDMDL
MODEL 5
REMARK VINA RESULT:    -6.980      2.930      3.563
REMARK INTER + INTRA:          -9.708
REMARK INTER:                  -9.285
REMARK INTRA:                  -0.422
REMARK UNBOUND:                -0.688
REMARK  Name = 
REMARK  5 active torsions:
REMARK  status: ('A' for Active; 'I' for Inactive)
REMARK    1  A    between atoms: C_2  and  C_18
REMARK    2  A    between atoms: N_3  and  C_4
REMARK    3  A    between atoms: C_4  and  C_5
REMARK    4  A    between atoms: C_8  and  C_9
REMARK    5  A    between atoms: C_9  and  C_10
REMARK                            x       y       z     vdW  Elec       q    Type
REMARK                         _______ _______ _______ _____ _____    ______ ____
ROOT
ATOM      1  O   UNL     1      48.543   5.679  12.918  0.00  0.00    +0.000 OA
ATOM      2  C   UNL     1      48.117   6.829  12.873  0.00  0.00    +0.000 C 
ATOM      3  N   UNL     1      46.786   7.169  12.911  0.00  0.00    +0.000 N 
ATOM      4  H   UNL     1      46.557   8.141  13.061  0.00  0.00    +0.000 HD
ENDROOT
BRANCH   2   5
ATOM      5  C   UNL     1      48.965   8.006  13.012  0.00  0.00    +0.000 A 
ATOM      6  C   UNL     1      48.816   9.135  12.226  0.00  0.00    +0.000 A 
ATOM      7  S   UNL     1      50.246  10.086  12.210  0.00  0.00    +0.000 S 
ATOM      8  C   UNL     1      51.008   9.063  13.344  0.00  0.00    +0.000 A 
ATOM      9  N   UNL     1      52.321   9.179  13.673  0.00  0.00    +0.000 NA
ATOM     10  C   UNL     1      52.714   8.343  14.581  0.00  0.00    +0.000 A 
ATOM     11  N   UNL     1      51.904   7.444  15.232  0.00  0.00    +0.000 N 
ATOM     12  C   UNL     1      50.567   7.309  14.949  0.00  0.00    +0.000 A 
ATOM     13  O   UNL     1      49.835   6.564  15.588  0.00  0.00    +0.000 OA
ATOM     14  C   UNL     1      50.128   8.125  13.838  0.00  0.00    +0.000 A 
ATOM     15  H   UNL     1      52.257   6.879  15.990  0.00  0.00    +0.000 HD
ENDBRANCH   2   5
BRANCH   3  16
ATOM     16  C   UNL     1      45.755   6.222  13.236  0.00  0.00    +0.000 C 
BRANCH  16  17
ATOM     17  C   UNL     1      45.483   5.331  12.059  0.00  0.00    +0.000 A 
ATOM     18  C   UNL     1      45.176   3.980  12.221  0.00  0.00    +0.000 A 
ATOM     19  C   UNL     1      44.909   3.189  11.103  0.00  0.00    +0.000 A 
ATOM     20  C   UNL     1      44.965   3.771   9.838  0.00  0.00    +0.000 A 
ATOM     21  N   UNL     1      45.328   5.064   9.652  0.00  0.00    +0.000 NA
ATOM     22  C   UNL     1      45.575   5.809  10.756  0.00  0.00    +0.000 A 
BRANCH  20  23
ATOM     23  C   UNL     1      44.600   2.977   8.605  0.00  0.00    +0.000 C 
BRANCH  23  24
ATOM     24  C   UNL     1      45.763   2.595   7.743  0.00  0.00    +0.000 A 
ATOM     25  C   UNL     1      46.495   1.443   7.953  0.00  0.00    +0.000 A 
ATOM     26  N   UNL     1      47.533   1.060   7.185  0.00  0.00    +0.000 NA
ATOM     27  C   UNL     1      47.828   1.874   6.161  0.00  0.00    +0.000 A 
ATOM     28  N   UNL     1      47.190   3.010   5.846  0.00  0.00    +0.000 NA
ATOM     29  C   UNL     1      46.158   3.342   6.649  0.00  0.00    +0.000 A 
ENDBRANCH  23  24
ENDBRANCH  20  23
ENDBRANCH  16  17
ENDBRANCH   3  16
TORSDOF 5
ENDMDL
MODEL 6
REMARK VINA RESULT:    -6.971      3.258      7.930
REMARK INTER + INTRA:          -9.696
REMARK INTER:                  -8.855
REMARK INTRA:                  -0.842
REMARK UNBOUND:                -0.688
REMARK  Name = 
REMARK  5 active torsions:
REMARK  status: ('A' for Active; 'I' for Inactive)
REMARK    1  A    between atoms: C_2  and  C_18
REMARK    2  A    between atoms: N_3  and  C_4
REMARK    3  A    between atoms: C_4  and  C_5
REMARK    4  A    between atoms: C_8  and  C_9
REMARK    5  A    between atoms: C_9  and  C_10
REMARK                            x       y       z     vdW  Elec       q    Type
REMARK                         _______ _______ _______ _____ _____    ______ ____
ROOT
ATOM      1  O   UNL     1      45.002   7.644  12.484  0.00  0.00    +0.000 OA
ATOM      2  C   UNL     1      45.781   7.206  11.644  0.00  0.00    +0.000 C 
ATOM      3  N   UNL     1      47.009   7.753  11.359  0.00  0.00    +0.000 N 
ATOM      4  H   UNL     1      47.643   7.206  10.794  0.00  0.00    +0.000 HD
ENDROOT
BRANCH   2   5
ATOM      5  C   UNL     1      45.618   5.910  10.996  0.00  0.00    +0.000 A 
ATOM      6  C   UNL     1      45.840   5.714   9.645  0.00  0.00    +0.000 A 
ATOM      7  S   UNL     1      45.049   4.299   9.075  0.00  0.00    +0.000 S 
ATOM      8  C   UNL     1      44.526   3.889  10.646  0.00  0.00    +0.000 A 
ATOM      9  N   UNL     1      43.654   2.876  10.890  0.00  0.00    +0.000 NA
ATOM     10  C   UNL     1      43.403   2.684  12.146  0.00  0.00    +0.000 A 
ATOM     11  N   UNL     1      43.990   3.371  13.182  0.00  0.00    +0.000 N 
ATOM     12  C   UNL     1      44.894   4.384  12.984  0.00  0.00    +0.000 A 
ATOM     13  O   UNL     1      45.473   4.936  13.912  0.00  0.00    +0.000 OA
ATOM     14  C   UNL     1      45.085   4.722  11.591  0.00  0.00    +0.000 A 
ATOM     15  H   UNL     1      43.813   3.114  14.143  0.00  0.00    +0.000 HD
ENDBRANCH   2   5
BRANCH   3  16
ATOM     16  C   UNL     1      47.612   8.768  12.177  0.00  0.00    +0.000 C 
BRANCH  16  17
ATOM     17  C   UNL     1      48.094   8.172  13.468  0.00  0.00    +0.000 A 
ATOM     18  C   UNL     1      48.064   8.892  14.662  0.00  0.00    +0.000 A 
ATOM     19  C   UNL     1      48.502   8.296  15.845  0.00  0.00    +0.000 A 
ATOM     20  C   UNL     1      48.973   6.986  15.803  0.00  0.00    +0.000 A 
ATOM     21  N   UNL     1      49.077   6.290  14.644  0.00  0.00    +0.000 NA
ATOM     22  C   UNL     1      48.638   6.892  13.513  0.00  0.00    +0.000 A 
BRANCH  20  23
ATOM     23  C   UNL     1      49.378   6.268  17.071  0.00  0.00    +0.000 C 
BRANCH  23  24
ATOM     24  C   UNL     1      48.742   4.926  17.257  0.00  0.00    +0.000 A 
ATOM     25  C   UNL     1      49.472   3.796  17.572  0.00  0.00    +0.000 A 
ATOM     26  N   UNL     1      48.931   2.579  17.766  0.00  0.00    +0.000 NA
ATOM     27  C   UNL     1      47.596   2.512  17.646  0.00  0.00    +0.000 A 
ATOM     28  N   UNL     1      46.778   3.534  17.356  0.00  0.00    +0.000 NA
ATOM     29  C   UNL     1      47.377   4.729  17.174  0.00  0.00    +0.000 A 
ENDBRANCH  23  24
ENDBRANCH  20  23
ENDBRANCH  16  17
ENDBRANCH   3  16
TORSDOF 5
ENDMDL
MODEL 7
REMARK VINA RESULT:    -6.084      5.553      7.833
REMARK INTER + INTRA:          -8.550
REMARK INTER:                  -7.767
REMARK INTRA:                  -0.783
REMARK UNBOUND:                -0.688
REMARK  Name = 
REMARK  5 active torsions:
REMARK  status: ('A' for Active; 'I' for Inactive)
REMARK    1  A    between atoms: C_2  and  C_18
REMARK    2  A    between atoms: N_3  and  C_4
REMARK    3  A    between atoms: C_4  and  C_5
REMARK    4  A    between atoms: C_8  and  C_9
REMARK    5  A    between atoms: C_9  and  C_10
REMARK                            x       y       z     vdW  Elec       q    Type
REMARK                         _______ _______ _______ _____ _____    ______ ____
ROOT
ATOM      1  O   UNL     1      45.053   7.675  11.331  0.00  0.00    +0.000 OA
ATOM      2  C   UNL     1      45.908   6.833  11.075  0.00  0.00    +0.000 C 
ATOM      3  N   UNL     1      47.230   6.930  11.434  0.00  0.00    +0.000 N 
ATOM      4  H   UNL     1      47.800   6.101  11.343  0.00  0.00    +0.000 HD
ENDROOT
BRANCH   2   5
ATOM      5  C   UNL     1      45.597   5.505  10.561  0.00  0.00    +0.000 A 
ATOM      6  C   UNL     1      45.662   5.187   9.216  0.00  0.00    +0.000 A 
ATOM      7  S   UNL     1      44.730   3.792   8.852  0.00  0.00    +0.000 S 
ATOM      8  C   UNL     1      44.351   3.545  10.497  0.00  0.00    +0.000 A 
ATOM      9  N   UNL     1      43.447   2.619  10.913  0.00  0.00    +0.000 NA
ATOM     10  C   UNL     1      43.319   2.546  12.199  0.00  0.00    +0.000 A 
ATOM     11  N   UNL     1      44.053   3.269  13.109  0.00  0.00    +0.000 N 
ATOM     12  C   UNL     1      44.993   4.197  12.735  0.00  0.00    +0.000 A 
ATOM     13  O   UNL     1      45.700   4.778  13.550  0.00  0.00    +0.000 OA
ATOM     14  C   UNL     1      45.057   4.409  11.305  0.00  0.00    +0.000 A 
ATOM     15  H   UNL     1      43.963   3.102  14.100  0.00  0.00    +0.000 HD
ENDBRANCH   2   5
BRANCH   3  16
ATOM     16  C   UNL     1      47.711   7.926  12.351  0.00  0.00    +0.000 C 
BRANCH  16  17
ATOM     17  C   UNL     1      49.042   8.450  11.893  0.00  0.00    +0.000 A 
ATOM     18  C   UNL     1      50.095   7.592  11.577  0.00  0.00    +0.000 A 
ATOM     19  C   UNL     1      51.310   8.116  11.135  0.00  0.00    +0.000 A 
ATOM     20  C   UNL     1      51.447   9.499  11.028  0.00  0.00    +0.000 A 
ATOM     21  N   UNL     1      50.461  10.354  11.396  0.00  0.00    +0.000 NA
ATOM     22  C   UNL     1      49.291   9.816  11.815  0.00  0.00    +0.000 A 
BRANCH  20  23
ATOM     23  C   UNL     1      52.713  10.110  10.474  0.00  0.00    +0.000 C 
BRANCH  23  24
ATOM     24  C   UNL     1      53.335   9.343   9.349  0.00  0.00    +0.000 A 
ATOM     25  C   UNL     1      52.877   9.430   8.049  0.00  0.00    +0.000 A 
ATOM     26  N   UNL     1      53.426   8.771   7.011  0.00  0.00    +0.000 NA
ATOM     27  C   UNL     1      54.485   8.002   7.307  0.00  0.00    +0.000 A 
ATOM     28  N   UNL     1      55.030   7.843   8.522  0.00  0.00    +0.000 NA
ATOM     29  C   UNL     1      54.439   8.529   9.521  0.00  0.00    +0.000 A 
ENDBRANCH  23  24
ENDBRANCH  20  23
ENDBRANCH  16  17
ENDBRANCH   3  16
TORSDOF 5
ENDMDL
MODEL 8
REMARK VINA RESULT:    -6.065      3.486      4.975
REMARK INTER + INTRA:          -8.526
REMARK INTER:                  -7.753
REMARK INTRA:                  -0.773
REMARK UNBOUND:                -0.688
REMARK  Name = 
REMARK  5 active torsions:
REMARK  status: ('A' for Active; 'I' for Inactive)
REMARK    1  A    between atoms: C_2  and  C_18
REMARK    2  A    between atoms: N_3  and  C_4
REMARK    3  A    between atoms: C_4  and  C_5
REMARK    4  A    between atoms: C_8  and  C_9
REMARK    5  A    between atoms: C_9  and  C_10
REMARK                            x       y       z     vdW  Elec       q    Type
REMARK                         _______ _______ _______ _____ _____    ______ ____
ROOT
ATOM      1  O   UNL     1      51.535   9.095  15.114  0.00  0.00    +0.000 OA
ATOM      2  C   UNL     1      50.698   8.260  15.441  0.00  0.00    +0.000 C 
ATOM      3  N   UNL     1      49.526   8.023  14.762  0.00  0.00    +0.000 N 
ATOM      4  H   UNL     1      49.007   7.192  15.004  0.00  0.00    +0.000 HD
ENDROOT
BRANCH   2   5
ATOM      5  C   UNL     1      50.934   7.240  16.455  0.00  0.00    +0.000 A 
ATOM      6  C   UNL     1      52.141   6.576  16.584  0.00  0.00    +0.000 A 
ATOM      7  S   UNL     1      51.959   5.095  17.435  0.00  0.00    +0.000 S 
ATOM      8  C   UNL     1      50.308   5.406  17.737  0.00  0.00    +0.000 A 
ATOM      9  N   UNL     1      49.474   4.482  18.281  0.00  0.00    +0.000 NA
ATOM     10  C   UNL     1      48.266   4.908  18.475  0.00  0.00    +0.000 A 
ATOM     11  N   UNL     1      47.833   6.190  18.232  0.00  0.00    +0.000 N 
ATOM     12  C   UNL     1      48.647   7.162  17.707  0.00  0.00    +0.000 A 
ATOM     13  O   UNL     1      48.277   8.322  17.570  0.00  0.00    +0.000 OA
ATOM     14  C   UNL     1      49.961   6.679  17.342  0.00  0.00    +0.000 A 
ATOM     15  H   UNL     1      46.900   6.480  18.485  0.00  0.00    +0.000 HD
ENDBRANCH   2   5
BRANCH   3  16
ATOM     16  C   UNL     1      49.261   8.575  13.463  0.00  0.00    +0.000 C 
BRANCH  16  17
ATOM     17  C   UNL     1      47.916   8.122  12.974  0.00  0.00    +0.000 A 
ATOM     18  C   UNL     1      46.762   8.867  13.213  0.00  0.00    +0.000 A 
ATOM     19  C   UNL     1      45.534   8.423  12.725  0.00  0.00    +0.000 A 
ATOM     20  C   UNL     1      45.486   7.228  12.010  0.00  0.00    +0.000 A 
ATOM     21  N   UNL     1      46.582   6.452  11.825  0.00  0.00    +0.000 NA
ATOM     22  C   UNL     1      47.762   6.912  12.305  0.00  0.00    +0.000 A 
BRANCH  20  23
ATOM     23  C   UNL     1      44.194   6.749  11.388  0.00  0.00    +0.000 C 
BRANCH  23  24
ATOM     24  C   UNL     1      43.899   5.297  11.606  0.00  0.00    +0.000 A 
ATOM     25  C   UNL     1      43.782   4.399  10.564  0.00  0.00    +0.000 A 
ATOM     26  N   UNL     1      43.538   3.085  10.726  0.00  0.00    +0.000 NA
ATOM     27  C   UNL     1      43.419   2.669  11.995  0.00  0.00    +0.000 A 
ATOM     28  N   UNL     1      43.522   3.437  13.090  0.00  0.00    +0.000 NA
ATOM     29  C   UNL     1      43.769   4.744  12.866  0.00  0.00    +0.000 A 
ENDBRANCH  23  24
ENDBRANCH  20  23
ENDBRANCH  16  17
ENDBRANCH   3  16
TORSDOF 5
ENDMDL
MODEL 9
REMARK VINA RESULT:    -5.829      5.464      7.923
REMARK INTER + INTRA:          -8.220
REMARK INTER:                  -7.653
REMARK INTRA:                  -0.567
REMARK UNBOUND:                -0.688
REMARK  Name = 
REMARK  5 active torsions:
REMARK  status: ('A' for Active; 'I' for Inactive)
REMARK    1  A    between atoms: C_2  and  C_18
REMARK    2  A    between atoms: N_3  and  C_4
REMARK    3  A    between atoms: C_4  and  C_5
REMARK    4  A    between atoms: C_8  and  C_9
REMARK    5  A    between atoms: C_9  and  C_10
REMARK                            x       y       z     vdW  Elec       q    Type
REMARK                         _______ _______ _______ _____ _____    ______ ____
ROOT
ATOM      1  O   UNL     1      53.361   8.155  12.157  0.00  0.00    +0.000 OA
ATOM      2  C   UNL     1      52.579   7.942  11.235  0.00  0.00    +0.000 C 
ATOM      3  N   UNL     1      51.218   7.822  11.380  0.00  0.00    +0.000 N 
ATOM      4  H   UNL     1      50.657   7.840  10.541  0.00  0.00    +0.000 HD
ENDROOT
BRANCH   2   5
ATOM      5  C   UNL     1      52.955   8.023   9.829  0.00  0.00    +0.000 A 
ATOM      6  C   UNL     1      52.806   9.175   9.078  0.00  0.00    +0.000 A 
ATOM      7  S   UNL     1      52.783   8.832   7.395  0.00  0.00    +0.000 S 
ATOM      8  C   UNL     1      53.098   7.178   7.669  0.00  0.00    +0.000 A 
ATOM      9  N   UNL     1      53.049   6.246   6.681  0.00  0.00    +0.000 NA
ATOM     10  C   UNL     1      53.357   5.049   7.067  0.00  0.00    +0.000 A 
ATOM     11  N   UNL     1      53.766   4.708   8.334  0.00  0.00    +0.000 N 
ATOM     12  C   UNL     1      53.853   5.620   9.357  0.00  0.00    +0.000 A 
ATOM     13  O   UNL     1      54.296   5.325  10.461  0.00  0.00    +0.000 OA
ATOM     14  C   UNL     1      53.376   6.937   8.997  0.00  0.00    +0.000 A 
ATOM     15  H   UNL     1      54.073   3.770   8.548  0.00  0.00    +0.000 HD
ENDBRANCH   2   5
BRANCH   3  16
ATOM     16  C   UNL     1      50.538   8.158  12.600  0.00  0.00    +0.000 C 
BRANCH  16  17
ATOM     17  C   UNL     1      49.061   7.938  12.445  0.00  0.00    +0.000 A 
ATOM     18  C   UNL     1      48.182   9.001  12.234  0.00  0.00    +0.000 A 
ATOM     19  C   UNL     1      46.818   8.753  12.074  0.00  0.00    +0.000 A 
ATOM     20  C   UNL     1      46.361   7.439  12.140  0.00  0.00    +0.000 A 
ATOM     21  N   UNL     1      47.186   6.398  12.413  0.00  0.00    +0.000 NA
ATOM     22  C   UNL     1      48.506   6.668  12.557  0.00  0.00    +0.000 A 
BRANCH  20  23
ATOM     23  C   UNL     1      44.907   7.112  11.888  0.00  0.00    +0.000 C 
BRANCH  23  24
ATOM     24  C   UNL     1      44.580   5.652  11.932  0.00  0.00    +0.000 A 
ATOM     25  C   UNL     1      44.071   5.040  13.061  0.00  0.00    +0.000 A 
ATOM     26  N   UNL     1      43.747   3.735  13.128  0.00  0.00    +0.000 NA
ATOM     27  C   UNL     1      43.938   3.031  12.002  0.00  0.00    +0.000 A 
ATOM     28  N   UNL     1      44.412   3.509  10.843  0.00  0.00    +0.000 NA
ATOM     29  C   UNL     1      44.718   4.823  10.835  0.00  0.00    +0.000 A 
ENDBRANCH  23  24
ENDBRANCH  20  23
ENDBRANCH  16  17
ENDBRANCH   3  16
TORSDOF 5
ENDMDL
