MODEL 1
REMARK VINA RESULT:    -9.283      0.000      0.000
REMARK INTER + INTRA:         -14.025
REMARK INTER:                 -13.082
REMARK INTRA:                  -0.943
REMARK UNBOUND:                -0.943
REMARK  Name = 
REMARK  9 active torsions:
REMARK  status: ('A' for Active; 'I' for Inactive)
REMARK    1  A    between atoms: C_1  and  C_2
REMARK    2  A    between atoms: C_2  and  C_3
REMARK    3  A    between atoms: C_6  and  O_7
REMARK    4  A    between atoms: O_7  and  C_8
REMARK    5  A    between atoms: C_10  and  C_11
REMARK    6  A    between atoms: C_11  and  C_14
REMARK    7  A    between atoms: C_14  and  N_15
REMARK    8  A    between atoms: C_19  and  C_20
REMARK    9  A    between atoms: C_27  and  C_28
REMARK                            x       y       z     vdW  Elec       q    Type
REMARK                         _______ _______ _______ _____ _____    ______ ____
ROOT
ATOM      1  C   UNL     1      46.953   5.316  13.886  0.00  0.00    +0.000 A 
ATOM      2  C   UNL     1      45.761   4.640  13.562  0.00  0.00    +0.000 A 
ATOM      3  C   UNL     1      44.713   5.278  12.867  0.00  0.00    +0.000 A 
ATOM      4  C   UNL     1      44.896   6.603  12.457  0.00  0.00    +0.000 A 
ATOM      5  C   UNL     1      46.106   7.255  12.708  0.00  0.00    +0.000 A 
ATOM      6  C   UNL     1      47.155   6.618  13.409  0.00  0.00    +0.000 A 
ENDROOT
BRANCH   6   7
ATOM      7  C   UNL     1      48.447   7.382  13.586  0.00  0.00    +0.000 C 
ATOM      8  F   UNL     1      49.577   6.752  13.168  0.00  0.00    +0.000 F 
ATOM      9  F   UNL     1      48.424   8.569  12.909  0.00  0.00    +0.000 F 
ATOM     10  F   UNL     1      48.670   7.717  14.889  0.00  0.00    +0.000 F 
ENDBRANCH   6   7
BRANCH   3  11
ATOM     11  C   UNL     1      43.390   4.563  12.608  0.00  0.00    +0.000 C 
ATOM     12  F   UNL     1      43.171   3.552  13.500  0.00  0.00    +0.000 F 
ATOM     13  F   UNL     1      42.321   5.407  12.752  0.00  0.00    +0.000 F 
BRANCH  11  14
ATOM     14  C   UNL     1      43.354   3.987  11.168  0.00  0.00    +0.000 C 
BRANCH  14  15
ATOM     15  N   UNL     1      44.065   4.802  10.145  0.00  0.00    +0.000 N 
ATOM     16  C   UNL     1      44.905   4.027   9.322  0.00  0.00    +0.000 A 
ATOM     17  C   UNL     1      45.655   4.613   8.289  0.00  0.00    +0.000 A 
ATOM     18  N   UNL     1      46.479   3.922   7.445  0.00  0.00    +0.000 NA
ATOM     19  C   UNL     1      46.507   2.580   7.667  0.00  0.00    +0.000 A 
ATOM     20  C   UNL     1      45.760   1.984   8.667  0.00  0.00    +0.000 A 
ATOM     21  N   UNL     1      44.952   2.689   9.501  0.00  0.00    +0.000 NA
ATOM     22  H   UNL     1      44.588   5.573  10.564  0.00  0.00    +0.000 HD
BRANCH  19  23
ATOM     23  C   UNL     1      47.388   1.726   6.817  0.00  0.00    +0.000 C 
ATOM     24  N   UNL     1      48.445   2.341   6.214  0.00  0.00    +0.000 N 
ATOM     25  O   UNL     1      47.172   0.528   6.661  0.00  0.00    +0.000 OA
ATOM     26  H   UNL     1      48.612   3.335   6.362  0.00  0.00    +0.000 HD
ATOM     27  H   UNL     1      49.074   1.798   5.642  0.00  0.00    +0.000 HD
ENDBRANCH  19  23
ENDBRANCH  14  15
ENDBRANCH  11  14
ENDBRANCH   3  11
BRANCH   1  28
ATOM     28  O   UNL     1      47.946   4.752  14.668  0.00  0.00    +0.000 OA
BRANCH  28  34
ATOM     29  C   UNL     1      46.978   2.831  17.695  0.00  0.00    +0.000 C 
ATOM     30  C   UNL     1      48.148   3.432  16.915  0.00  0.00    +0.000 C 
ATOM     31  C   UNL     1      49.021   2.338  16.314  0.00  0.00    +0.000 C 
ATOM     32  O   UNL     1      48.957   4.239  17.822  0.00  0.00    +0.000 OA
ATOM     33  C   UNL     1      48.792   5.405  16.989  0.00  0.00    +0.000 C 
ATOM     34  C   UNL     1      47.747   4.710  16.106  0.00  0.00    +0.000 C 
ENDBRANCH  28  34
ENDBRANCH   1  28
TORSDOF 7
ENDMDL
MODEL 2
REMARK VINA RESULT:    -7.749      2.654      3.604
REMARK INTER + INTRA:         -11.863
REMARK INTER:                 -10.890
REMARK INTRA:                  -0.973
REMARK UNBOUND:                -0.943
REMARK  Name = 
REMARK  9 active torsions:
REMARK  status: ('A' for Active; 'I' for Inactive)
REMARK    1  A    between atoms: C_1  and  C_2
REMARK    2  A    between atoms: C_2  and  C_3
REMARK    3  A    between atoms: C_6  and  O_7
REMARK    4  A    between atoms: O_7  and  C_8
REMARK    5  A    between atoms: C_10  and  C_11
REMARK    6  A    between atoms: C_11  and  C_14
REMARK    7  A    between atoms: C_14  and  N_15
REMARK    8  A    between atoms: C_19  and  C_20
REMARK    9  A    between atoms: C_27  and  C_28
REMARK                            x       y       z     vdW  Elec       q    Type
REMARK                         _______ _______ _______ _____ _____    ______ ____
ROOT
ATOM      1  C   UNL     1      46.292   8.094  12.798  0.00  0.00    +0.000 A 
ATOM      2  C   UNL     1      45.688   6.824  12.872  0.00  0.00    +0.000 A 
ATOM      3  C   UNL     1      44.484   6.535  12.197  0.00  0.00    +0.000 A 
ATOM      4  C   UNL     1      43.911   7.533  11.401  0.00  0.00    +0.000 A 
ATOM      5  C   UNL     1      44.545   8.770  11.262  0.00  0.00    +0.000 A 
ATOM      6  C   UNL     1      45.749   9.062  11.942  0.00  0.00    +0.000 A 
ENDROOT
BRANCH   6   7
ATOM      7  C   UNL     1      46.391  10.406  11.687  0.00  0.00    +0.000 C 
ATOM      8  F   UNL     1      46.450  11.253  12.749  0.00  0.00    +0.000 F 
ATOM      9  F   UNL     1      47.683  10.272  11.261  0.00  0.00    +0.000 F 
ATOM     10  F   UNL     1      45.758  11.097  10.696  0.00  0.00    +0.000 F 
ENDBRANCH   6   7
BRANCH   3  11
ATOM     11  C   UNL     1      43.791   5.185  12.366  0.00  0.00    +0.000 C 
ATOM     12  F   UNL     1      44.605   4.262  12.956  0.00  0.00    +0.000 F 
ATOM     13  F   UNL     1      42.696   5.277  13.185  0.00  0.00    +0.000 F 
BRANCH  11  14
ATOM     14  C   UNL     1      43.316   4.641  10.992  0.00  0.00    +0.000 C 
BRANCH  14  15
ATOM     15  N   UNL     1      44.099   5.121   9.820  0.00  0.00    +0.000 N 
ATOM     16  C   UNL     1      44.851   4.096   9.214  0.00  0.00    +0.000 A 
ATOM     17  C   UNL     1      45.649   4.348   8.086  0.00  0.00    +0.000 A 
ATOM     18  N   UNL     1      46.394   3.401   7.441  0.00  0.00    +0.000 NA
ATOM     19  C   UNL     1      46.290   2.152   7.970  0.00  0.00    +0.000 A 
ATOM     20  C   UNL     1      45.493   1.882   9.068  0.00  0.00    +0.000 A 
ATOM     21  N   UNL     1      44.766   2.839   9.701  0.00  0.00    +0.000 NA
ATOM     22  H   UNL     1      44.699   5.913  10.057  0.00  0.00    +0.000 HD
BRANCH  19  23
ATOM     23  C   UNL     1      47.076   1.041   7.356  0.00  0.00    +0.000 C 
ATOM     24  N   UNL     1      46.725  -0.228   7.709  0.00  0.00    +0.000 N 
ATOM     25  O   UNL     1      47.998   1.256   6.575  0.00  0.00    +0.000 OA
ATOM     26  H   UNL     1      45.951  -0.386   8.352  0.00  0.00    +0.000 HD
ATOM     27  H   UNL     1      47.221  -1.010   7.306  0.00  0.00    +0.000 HD
ENDBRANCH  19  23
ENDBRANCH  14  15
ENDBRANCH  11  14
ENDBRANCH   3  11
BRANCH   1  28
ATOM     28  O   UNL     1      47.406   8.439  13.542  0.00  0.00    +0.000 OA
BRANCH  28  34
ATOM     29  C   UNL     1      50.659   8.082  11.786  0.00  0.00    +0.000 C 
ATOM     30  C   UNL     1      49.984   8.445  13.109  0.00  0.00    +0.000 C 
ATOM     31  C   UNL     1      50.134   9.932  13.407  0.00  0.00    +0.000 C 
ATOM     32  O   UNL     1      50.607   7.682  14.184  0.00  0.00    +0.000 OA
ATOM     33  C   UNL     1      49.337   7.116  14.567  0.00  0.00    +0.000 C 
ATOM     34  C   UNL     1      48.632   7.689  13.330  0.00  0.00    +0.000 C 
ENDBRANCH  28  34
ENDBRANCH   1  28
TORSDOF 7
ENDMDL
MODEL 3
REMARK VINA RESULT:    -7.453      2.280      3.026
REMARK INTER + INTRA:         -11.446
REMARK INTER:                 -10.318
REMARK INTRA:                  -1.128
REMARK UNBOUND:                -0.943
REMARK  Name = 
REMARK  9 active torsions:
REMARK  status: ('A' for Active; 'I' for Inactive)
REMARK    1  A    between atoms: C_1  and  C_2
REMARK    2  A    between atoms: C_2  and  C_3
REMARK    3  A    between atoms: C_6  and  O_7
REMARK    4  A    between atoms: O_7  and  C_8
REMARK    5  A    between atoms: C_10  and  C_11
REMARK    6  A    between atoms: C_11  and  C_14
REMARK    7  A    between atoms: C_14  and  N_15
REMARK    8  A    between atoms: C_19  and  C_20
REMARK    9  A    between atoms: C_27  and  C_28
REMARK                            x       y       z     vdW  Elec       q    Type
REMARK                         _______ _______ _______ _____ _____    ______ ____
ROOT
ATOM      1  C   UNL     1      46.935   8.069  12.803  0.00  0.00    +0.000 A 
ATOM      2  C   UNL     1      46.229   6.852  12.862  0.00  0.00    +0.000 A 
ATOM      3  C   UNL     1      44.978   6.690  12.233  0.00  0.00    +0.000 A 
ATOM      4  C   UNL     1      44.458   7.762  11.498  0.00  0.00    +0.000 A 
ATOM      5  C   UNL     1      45.189   8.947  11.372  0.00  0.00    +0.000 A 
ATOM      6  C   UNL     1      46.441   9.111  12.006  0.00  0.00    +0.000 A 
ENDROOT
BRANCH   6   7
ATOM      7  C   UNL     1      47.184  10.405  11.768  0.00  0.00    +0.000 C 
ATOM      8  F   UNL     1      46.517  11.358  11.063  0.00  0.00    +0.000 F 
ATOM      9  F   UNL     1      47.534  11.006  12.944  0.00  0.00    +0.000 F 
ATOM     10  F   UNL     1      48.358  10.208  11.102  0.00  0.00    +0.000 F 
ENDBRANCH   6   7
BRANCH   3  11
ATOM     11  C   UNL     1      44.180   5.398  12.387  0.00  0.00    +0.000 C 
ATOM     12  F   UNL     1      44.934   4.391  12.918  0.00  0.00    +0.000 F 
ATOM     13  F   UNL     1      43.127   5.552  13.249  0.00  0.00    +0.000 F 
BRANCH  11  14
ATOM     14  C   UNL     1      43.614   4.941  11.017  0.00  0.00    +0.000 C 
BRANCH  14  15
ATOM     15  N   UNL     1      43.752   3.486  10.731  0.00  0.00    +0.000 N 
ATOM     16  C   UNL     1      44.639   3.224   9.669  0.00  0.00    +0.000 A 
ATOM     17  C   UNL     1      44.910   1.911   9.253  0.00  0.00    +0.000 A 
ATOM     18  N   UNL     1      45.768   1.582   8.241  0.00  0.00    +0.000 NA
ATOM     19  C   UNL     1      46.378   2.649   7.657  0.00  0.00    +0.000 A 
ATOM     20  C   UNL     1      46.137   3.948   8.067  0.00  0.00    +0.000 A 
ATOM     21  N   UNL     1      45.275   4.255   9.071  0.00  0.00    +0.000 NA
ATOM     22  H   UNL     1      42.848   3.041  10.560  0.00  0.00    +0.000 HD
BRANCH  19  23
ATOM     23  C   UNL     1      47.322   2.410   6.526  0.00  0.00    +0.000 C 
ATOM     24  N   UNL     1      47.061   3.064   5.359  0.00  0.00    +0.000 N 
ATOM     25  O   UNL     1      48.286   1.658   6.637  0.00  0.00    +0.000 OA
ATOM     26  H   UNL     1      46.261   3.690   5.290  0.00  0.00    +0.000 HD
ATOM     27  H   UNL     1      47.683   2.943   4.573  0.00  0.00    +0.000 HD
ENDBRANCH  19  23
ENDBRANCH  14  15
ENDBRANCH  11  14
ENDBRANCH   3  11
BRANCH   1  28
ATOM     28  O   UNL     1      48.105   8.292  13.507  0.00  0.00    +0.000 OA
BRANCH  28  34
ATOM     29  C   UNL     1      49.110   6.269  16.454  0.00  0.00    +0.000 C 
ATOM     30  C   UNL     1      49.366   7.561  15.677  0.00  0.00    +0.000 C 
ATOM     31  C   UNL     1      50.728   7.525  14.996  0.00  0.00    +0.000 C 
ATOM     32  O   UNL     1      49.328   8.687  16.602  0.00  0.00    +0.000 OA
ATOM     33  C   UNL     1      48.288   9.328  15.835  0.00  0.00    +0.000 C 
ATOM     34  C   UNL     1      48.089   8.093  14.945  0.00  0.00    +0.000 C 
ENDBRANCH  28  34
ENDBRANCH   1  28
TORSDOF 7
ENDMDL
MODEL 4
REMARK VINA RESULT:    -7.432      2.896      5.013
REMARK INTER + INTRA:         -11.416
REMARK INTER:                 -10.076
REMARK INTRA:                  -1.340
REMARK UNBOUND:                -0.943
REMARK  Name = 
REMARK  9 active torsions:
REMARK  status: ('A' for Active; 'I' for Inactive)
REMARK    1  A    between atoms: C_1  and  C_2
REMARK    2  A    between atoms: C_2  and  C_3
REMARK    3  A    between atoms: C_6  and  O_7
REMARK    4  A    between atoms: O_7  and  C_8
REMARK    5  A    between atoms: C_10  and  C_11
REMARK    6  A    between atoms: C_11  and  C_14
REMARK    7  A    between atoms: C_14  and  N_15
REMARK    8  A    between atoms: C_19  and  C_20
REMARK    9  A    between atoms: C_27  and  C_28
REMARK                            x       y       z     vdW  Elec       q    Type
REMARK                         _______ _______ _______ _____ _____    ______ ____
ROOT
ATOM      1  C   UNL     1      45.411   7.926  12.590  0.00  0.00    +0.000 A 
ATOM      2  C   UNL     1      44.489   6.862  12.586  0.00  0.00    +0.000 A 
ATOM      3  C   UNL     1      44.910   5.517  12.642  0.00  0.00    +0.000 A 
ATOM      4  C   UNL     1      46.280   5.252  12.749  0.00  0.00    +0.000 A 
ATOM      5  C   UNL     1      47.195   6.305  12.830  0.00  0.00    +0.000 A 
ATOM      6  C   UNL     1      46.774   7.653  12.769  0.00  0.00    +0.000 A 
ENDROOT
BRANCH   6   7
ATOM      7  C   UNL     1      47.828   8.725  12.920  0.00  0.00    +0.000 C 
ATOM      8  F   UNL     1      47.983   9.567  11.864  0.00  0.00    +0.000 F 
ATOM      9  F   UNL     1      47.571   9.534  13.992  0.00  0.00    +0.000 F 
ATOM     10  F   UNL     1      49.064   8.199  13.158  0.00  0.00    +0.000 F 
ENDBRANCH   6   7
BRANCH   3  11
ATOM     11  C   UNL     1      43.906   4.372  12.539  0.00  0.00    +0.000 C 
ATOM     12  F   UNL     1      44.368   3.231  13.130  0.00  0.00    +0.000 F 
ATOM     13  F   UNL     1      42.735   4.665  13.187  0.00  0.00    +0.000 F 
BRANCH  11  14
ATOM     14  C   UNL     1      43.570   4.075  11.054  0.00  0.00    +0.000 C 
BRANCH  14  15
ATOM     15  N   UNL     1      43.919   2.704  10.589  0.00  0.00    +0.000 N 
ATOM     16  C   UNL     1      44.781   2.712   9.475  0.00  0.00    +0.000 A 
ATOM     17  C   UNL     1      45.232   1.516   8.895  0.00  0.00    +0.000 A 
ATOM     18  N   UNL     1      46.078   1.449   7.823  0.00  0.00    +0.000 NA
ATOM     19  C   UNL     1      46.482   2.660   7.354  0.00  0.00    +0.000 A 
ATOM     20  C   UNL     1      46.063   3.848   7.925  0.00  0.00    +0.000 A 
ATOM     21  N   UNL     1      45.216   3.894   8.986  0.00  0.00    +0.000 NA
ATOM     22  H   UNL     1      43.089   2.142  10.396  0.00  0.00    +0.000 HD
BRANCH  19  23
ATOM     23  C   UNL     1      47.393   2.708   6.172  0.00  0.00    +0.000 C 
ATOM     24  N   UNL     1      48.726   2.566   6.417  0.00  0.00    +0.000 N 
ATOM     25  O   UNL     1      46.966   2.872   5.033  0.00  0.00    +0.000 OA
ATOM     26  H   UNL     1      49.060   2.423   7.368  0.00  0.00    +0.000 HD
ATOM     27  H   UNL     1      49.376   2.578   5.644  0.00  0.00    +0.000 HD
ENDBRANCH  19  23
ENDBRANCH  14  15
ENDBRANCH  11  14
ENDBRANCH   3  11
BRANCH   1  28
ATOM     28  O   UNL     1      45.032   9.246  12.417  0.00  0.00    +0.000 OA
BRANCH  28  34
ATOM     29  C   UNL     1      42.209   9.839  10.079  0.00  0.00    +0.000 C 
ATOM     30  C   UNL     1      43.258  10.506  10.970  0.00  0.00    +0.000 C 
ATOM     31  C   UNL     1      42.604  11.177  12.172  0.00  0.00    +0.000 C 
ATOM     32  O   UNL     1      43.967  11.515  10.192  0.00  0.00    +0.000 OA
ATOM     33  C   UNL     1      45.236  10.887  10.470  0.00  0.00    +0.000 C 
ATOM     34  C   UNL     1      44.567   9.661  11.106  0.00  0.00    +0.000 C 
ENDBRANCH  28  34
ENDBRANCH   1  28
TORSDOF 7
ENDMDL
MODEL 5
REMARK VINA RESULT:    -7.378      2.163      3.986
REMARK INTER + INTRA:         -11.340
REMARK INTER:                 -10.262
REMARK INTRA:                  -1.078
REMARK UNBOUND:                -0.943
REMARK  Name = 
REMARK  9 active torsions:
REMARK  status: ('A' for Active; 'I' for Inactive)
REMARK    1  A    between atoms: C_1  and  C_2
REMARK    2  A    between atoms: C_2  and  C_3
REMARK    3  A    between atoms: C_6  and  O_7
REMARK    4  A    between atoms: O_7  and  C_8
REMARK    5  A    between atoms: C_10  and  C_11
REMARK    6  A    between atoms: C_11  and  C_14
REMARK    7  A    between atoms: C_14  and  N_15
REMARK    8  A    between atoms: C_19  and  C_20
REMARK    9  A    between atoms: C_27  and  C_28
REMARK                            x       y       z     vdW  Elec       q    Type
REMARK                         _______ _______ _______ _____ _____    ______ ____
ROOT
ATOM      1  C   UNL     1      46.870   7.347  13.455  0.00  0.00    +0.000 A 
ATOM      2  C   UNL     1      45.630   6.961  12.913  0.00  0.00    +0.000 A 
ATOM      3  C   UNL     1      45.139   5.645  13.048  0.00  0.00    +0.000 A 
ATOM      4  C   UNL     1      45.895   4.725  13.781  0.00  0.00    +0.000 A 
ATOM      5  C   UNL     1      47.090   5.122  14.387  0.00  0.00    +0.000 A 
ATOM      6  C   UNL     1      47.585   6.438  14.248  0.00  0.00    +0.000 A 
ENDROOT
BRANCH   6   7
ATOM      7  C   UNL     1      48.856   6.792  14.984  0.00  0.00    +0.000 C 
ATOM      8  F   UNL     1      49.273   5.901  15.923  0.00  0.00    +0.000 F 
ATOM      9  F   UNL     1      49.910   6.931  14.126  0.00  0.00    +0.000 F 
ATOM     10  F   UNL     1      48.759   7.990  15.629  0.00  0.00    +0.000 F 
ENDBRANCH   6   7
BRANCH   3  11
ATOM     11  C   UNL     1      43.839   5.216  12.372  0.00  0.00    +0.000 C 
ATOM     12  F   UNL     1      43.284   4.125  12.976  0.00  0.00    +0.000 F 
ATOM     13  F   UNL     1      42.883   6.194  12.444  0.00  0.00    +0.000 F 
BRANCH  11  14
ATOM     14  C   UNL     1      44.085   4.897  10.873  0.00  0.00    +0.000 C 
BRANCH  14  15
ATOM     15  N   UNL     1      44.247   3.452  10.554  0.00  0.00    +0.000 N 
ATOM     16  C   UNL     1      45.045   3.234   9.415  0.00  0.00    +0.000 A 
ATOM     17  C   UNL     1      45.324   1.936   8.957  0.00  0.00    +0.000 A 
ATOM     18  N   UNL     1      46.099   1.651   7.868  0.00  0.00    +0.000 NA
ATOM     19  C   UNL     1      46.618   2.746   7.249  0.00  0.00    +0.000 A 
ATOM     20  C   UNL     1      46.371   4.031   7.698  0.00  0.00    +0.000 A 
ATOM     21  N   UNL     1      45.591   4.294   8.779  0.00  0.00    +0.000 NA
ATOM     22  H   UNL     1      43.348   2.977  10.457  0.00  0.00    +0.000 HD
BRANCH  19  23
ATOM     23  C   UNL     1      47.466   2.555   6.036  0.00  0.00    +0.000 C 
ATOM     24  N   UNL     1      48.802   2.382   6.241  0.00  0.00    +0.000 N 
ATOM     25  O   UNL     1      46.987   2.557   4.905  0.00  0.00    +0.000 OA
ATOM     26  H   UNL     1      49.179   2.374   7.187  0.00  0.00    +0.000 HD
ATOM     27  H   UNL     1      49.410   2.234   5.448  0.00  0.00    +0.000 HD
ENDBRANCH  19  23
ENDBRANCH  14  15
ENDBRANCH  11  14
ENDBRANCH   3  11
BRANCH   1  28
ATOM     28  O   UNL     1      47.428   8.594  13.237  0.00  0.00    +0.000 OA
BRANCH  28  34
ATOM     29  C   UNL     1      49.102  10.969  10.924  0.00  0.00    +0.000 C 
ATOM     30  C   UNL     1      49.312   9.793  11.879  0.00  0.00    +0.000 C 
ATOM     31  C   UNL     1      50.071  10.234  13.125  0.00  0.00    +0.000 C 
ATOM     32  O   UNL     1      50.081   8.760  11.196  0.00  0.00    +0.000 OA
ATOM     33  C   UNL     1      49.048   7.783  11.435  0.00  0.00    +0.000 C 
ATOM     34  C   UNL     1      48.071   8.844  11.959  0.00  0.00    +0.000 C 
ENDBRANCH  28  34
ENDBRANCH   1  28
TORSDOF 7
ENDMDL
MODEL 6
REMARK VINA RESULT:    -7.046      4.107      6.376
REMARK INTER + INTRA:         -10.872
REMARK INTER:                  -9.704
REMARK INTRA:                  -1.167
REMARK UNBOUND:                -0.943
REMARK  Name = 
REMARK  9 active torsions:
REMARK  status: ('A' for Active; 'I' for Inactive)
REMARK    1  A    between atoms: C_1  and  C_2
REMARK    2  A    between atoms: C_2  and  C_3
REMARK    3  A    between atoms: C_6  and  O_7
REMARK    4  A    between atoms: O_7  and  C_8
REMARK    5  A    between atoms: C_10  and  C_11
REMARK    6  A    between atoms: C_11  and  C_14
REMARK    7  A    between atoms: C_14  and  N_15
REMARK    8  A    between atoms: C_19  and  C_20
REMARK    9  A    between atoms: C_27  and  C_28
REMARK                            x       y       z     vdW  Elec       q    Type
REMARK                         _______ _______ _______ _____ _____    ______ ____
ROOT
ATOM      1  C   UNL     1      51.345   4.062  18.161  0.00  0.00    +0.000 A 
ATOM      2  C   UNL     1      49.985   4.354  17.943  0.00  0.00    +0.000 A 
ATOM      3  C   UNL     1      49.110   3.414  17.359  0.00  0.00    +0.000 A 
ATOM      4  C   UNL     1      49.611   2.149  17.034  0.00  0.00    +0.000 A 
ATOM      5  C   UNL     1      50.942   1.827  17.318  0.00  0.00    +0.000 A 
ATOM      6  C   UNL     1      51.820   2.769  17.899  0.00  0.00    +0.000 A 
ENDROOT
BRANCH   6   7
ATOM      7  C   UNL     1      53.225   2.313  18.220  0.00  0.00    +0.000 C 
ATOM      8  F   UNL     1      53.683   2.615  19.465  0.00  0.00    +0.000 F 
ATOM      9  F   UNL     1      53.350   0.957  18.109  0.00  0.00    +0.000 F 
ATOM     10  F   UNL     1      54.142   2.830  17.353  0.00  0.00    +0.000 F 
ENDBRANCH   6   7
BRANCH   3  11
ATOM     11  C   UNL     1      47.663   3.779  17.040  0.00  0.00    +0.000 C 
ATOM     12  F   UNL     1      46.775   2.997  17.722  0.00  0.00    +0.000 F 
ATOM     13  F   UNL     1      47.369   5.064  17.413  0.00  0.00    +0.000 F 
BRANCH  11  14
ATOM     14  C   UNL     1      47.391   3.649  15.518  0.00  0.00    +0.000 C 
BRANCH  14  15
ATOM     15  N   UNL     1      46.833   4.868  14.870  0.00  0.00    +0.000 N 
ATOM     16  C   UNL     1      46.171   4.584  13.660  0.00  0.00    +0.000 A 
ATOM     17  C   UNL     1      45.569   5.601  12.902  0.00  0.00    +0.000 A 
ATOM     18  N   UNL     1      44.900   5.397  11.728  0.00  0.00    +0.000 NA
ATOM     19  C   UNL     1      44.838   4.095  11.339  0.00  0.00    +0.000 A 
ATOM     20  C   UNL     1      45.409   3.077  12.083  0.00  0.00    +0.000 A 
ATOM     21  N   UNL     1      46.076   3.302  13.245  0.00  0.00    +0.000 NA
ATOM     22  H   UNL     1      47.544   5.587  14.729  0.00  0.00    +0.000 HD
BRANCH  19  23
ATOM     23  C   UNL     1      44.148   3.755  10.060  0.00  0.00    +0.000 C 
ATOM     24  N   UNL     1      43.783   4.799   9.263  0.00  0.00    +0.000 N 
ATOM     25  O   UNL     1      43.915   2.593   9.740  0.00  0.00    +0.000 OA
ATOM     26  H   UNL     1      43.993   5.755   9.542  0.00  0.00    +0.000 HD
ATOM     27  H   UNL     1      43.327   4.613   8.382  0.00  0.00    +0.000 HD
ENDBRANCH  19  23
ENDBRANCH  14  15
ENDBRANCH  11  14
ENDBRANCH   3  11
BRANCH   1  28
ATOM     28  O   UNL     1      52.249   5.002  18.622  0.00  0.00    +0.000 OA
BRANCH  28  34
ATOM     29  C   UNL     1      51.993   7.429  15.823  0.00  0.00    +0.000 C 
ATOM     30  C   UNL     1      52.311   7.262  17.310  0.00  0.00    +0.000 C 
ATOM     31  C   UNL     1      51.236   7.911  18.172  0.00  0.00    +0.000 C 
ATOM     32  O   UNL     1      53.593   7.895  17.594  0.00  0.00    +0.000 OA
ATOM     33  C   UNL     1      54.126   6.662  18.121  0.00  0.00    +0.000 C 
ATOM     34  C   UNL     1      52.908   5.856  17.649  0.00  0.00    +0.000 C 
ENDBRANCH  28  34
ENDBRANCH   1  28
TORSDOF 7
ENDMDL
MODEL 7
REMARK VINA RESULT:    -6.952      3.638      5.931
REMARK INTER + INTRA:         -10.739
REMARK INTER:                  -9.395
REMARK INTRA:                  -1.344
REMARK UNBOUND:                -0.943
REMARK  Name = 
REMARK  9 active torsions:
REMARK  status: ('A' for Active; 'I' for Inactive)
REMARK    1  A    between atoms: C_1  and  C_2
REMARK    2  A    between atoms: C_2  and  C_3
REMARK    3  A    between atoms: C_6  and  O_7
REMARK    4  A    between atoms: O_7  and  C_8
REMARK    5  A    between atoms: C_10  and  C_11
REMARK    6  A    between atoms: C_11  and  C_14
REMARK    7  A    between atoms: C_14  and  N_15
REMARK    8  A    between atoms: C_19  and  C_20
REMARK    9  A    between atoms: C_27  and  C_28
REMARK                            x       y       z     vdW  Elec       q    Type
REMARK                         _______ _______ _______ _____ _____    ______ ____
ROOT
ATOM      1  C   UNL     1      50.863   5.835  17.128  0.00  0.00    +0.000 A 
ATOM      2  C   UNL     1      49.499   5.487  17.141  0.00  0.00    +0.000 A 
ATOM      3  C   UNL     1      49.074   4.163  17.380  0.00  0.00    +0.000 A 
ATOM      4  C   UNL     1      50.044   3.192  17.653  0.00  0.00    +0.000 A 
ATOM      5  C   UNL     1      51.394   3.547  17.717  0.00  0.00    +0.000 A 
ATOM      6  C   UNL     1      51.821   4.872  17.474  0.00  0.00    +0.000 A 
ENDROOT
BRANCH   6   7
ATOM      7  C   UNL     1      53.294   5.173  17.620  0.00  0.00    +0.000 C 
ATOM      8  F   UNL     1      53.622   6.137  18.522  0.00  0.00    +0.000 F 
ATOM      9  F   UNL     1      53.997   4.066  18.003  0.00  0.00    +0.000 F 
ATOM     10  F   UNL     1      53.857   5.564  16.440  0.00  0.00    +0.000 F 
ENDBRANCH   6   7
BRANCH   3  11
ATOM     11  C   UNL     1      47.599   3.781  17.294  0.00  0.00    +0.000 C 
ATOM     12  F   UNL     1      47.331   2.620  17.960  0.00  0.00    +0.000 F 
ATOM     13  F   UNL     1      46.796   4.725  17.877  0.00  0.00    +0.000 F 
BRANCH  11  14
ATOM     14  C   UNL     1      47.161   3.630  15.813  0.00  0.00    +0.000 C 
BRANCH  14  15
ATOM     15  N   UNL     1      46.833   4.906  15.119  0.00  0.00    +0.000 N 
ATOM     16  C   UNL     1      46.261   4.701  13.848  0.00  0.00    +0.000 A 
ATOM     17  C   UNL     1      45.873   5.781  13.040  0.00  0.00    +0.000 A 
ATOM     18  N   UNL     1      45.302   5.656  11.805  0.00  0.00    +0.000 NA
ATOM     19  C   UNL     1      45.108   4.370  11.406  0.00  0.00    +0.000 A 
ATOM     20  C   UNL     1      45.466   3.293  12.198  0.00  0.00    +0.000 A 
ATOM     21  N   UNL     1      46.040   3.439  13.420  0.00  0.00    +0.000 NA
ATOM     22  H   UNL     1      47.642   5.525  15.051  0.00  0.00    +0.000 HD
BRANCH  19  23
ATOM     23  C   UNL     1      44.508   4.113  10.064  0.00  0.00    +0.000 C 
ATOM     24  N   UNL     1      44.926   4.910   9.041  0.00  0.00    +0.000 N 
ATOM     25  O   UNL     1      43.674   3.230   9.888  0.00  0.00    +0.000 OA
ATOM     26  H   UNL     1      45.625   5.632   9.206  0.00  0.00    +0.000 HD
ATOM     27  H   UNL     1      44.556   4.761   8.113  0.00  0.00    +0.000 HD
ENDBRANCH  19  23
ENDBRANCH  14  15
ENDBRANCH  11  14
ENDBRANCH   3  11
BRANCH   1  28
ATOM     28  O   UNL     1      51.310   7.098  16.781  0.00  0.00    +0.000 OA
BRANCH  28  34
ATOM     29  C   UNL     1      49.408   7.435  13.610  0.00  0.00    +0.000 C 
ATOM     30  C   UNL     1      50.026   8.193  14.785  0.00  0.00    +0.000 C 
ATOM     31  C   UNL     1      48.944   8.791  15.676  0.00  0.00    +0.000 C 
ATOM     32  O   UNL     1      50.863   9.269  14.268  0.00  0.00    +0.000 OA
ATOM     33  C   UNL     1      52.013   8.763  14.975  0.00  0.00    +0.000 C 
ATOM     34  C   UNL     1      51.283   7.475  15.379  0.00  0.00    +0.000 C 
ENDBRANCH  28  34
ENDBRANCH   1  28
TORSDOF 7
ENDMDL
MODEL 8
REMARK VINA RESULT:    -6.865      4.245      7.802
REMARK INTER + INTRA:         -10.617
REMARK INTER:                  -9.163
REMARK INTRA:                  -1.454
REMARK UNBOUND:                -0.943
REMARK  Name = 
REMARK  9 active torsions:
REMARK  status: ('A' for Active; 'I' for Inactive)
REMARK    1  A    between atoms: C_1  and  C_2
REMARK    2  A    between atoms: C_2  and  C_3
REMARK    3  A    between atoms: C_6  and  O_7
REMARK    4  A    between atoms: O_7  and  C_8
REMARK    5  A    between atoms: C_10  and  C_11
REMARK    6  A    between atoms: C_11  and  C_14
REMARK    7  A    between atoms: C_14  and  N_15
REMARK    8  A    between atoms: C_19  and  C_20
REMARK    9  A    between atoms: C_27  and  C_28
REMARK                            x       y       z     vdW  Elec       q    Type
REMARK                         _______ _______ _______ _____ _____    ______ ____
ROOT
ATOM      1  C   UNL     1      45.871   8.662  12.760  0.00  0.00    +0.000 A 
ATOM      2  C   UNL     1      47.068   8.596  13.499  0.00  0.00    +0.000 A 
ATOM      3  C   UNL     1      48.103   9.537  13.319  0.00  0.00    +0.000 A 
ATOM      4  C   UNL     1      47.902  10.582  12.411  0.00  0.00    +0.000 A 
ATOM      5  C   UNL     1      46.687  10.698  11.731  0.00  0.00    +0.000 A 
ATOM      6  C   UNL     1      45.651   9.753  11.907  0.00  0.00    +0.000 A 
ENDROOT
BRANCH   6   7
ATOM      7  C   UNL     1      44.352   9.990  11.172  0.00  0.00    +0.000 C 
ATOM      8  F   UNL     1      43.768   8.893  10.619  0.00  0.00    +0.000 F 
ATOM      9  F   UNL     1      43.402  10.529  11.993  0.00  0.00    +0.000 F 
ATOM     10  F   UNL     1      44.496  10.885  10.153  0.00  0.00    +0.000 F 
ENDBRANCH   6   7
BRANCH   3  11
ATOM     11  C   UNL     1      49.432   9.396  14.056  0.00  0.00    +0.000 C 
ATOM     12  F   UNL     1      50.401  10.197  13.523  0.00  0.00    +0.000 F 
ATOM     13  F   UNL     1      49.329   9.780  15.367  0.00  0.00    +0.000 F 
BRANCH  11  14
ATOM     14  C   UNL     1      49.917   7.922  14.026  0.00  0.00    +0.000 C 
BRANCH  14  15
ATOM     15  N   UNL     1      50.572   7.448  15.277  0.00  0.00    +0.000 N 
ATOM     16  C   UNL     1      49.827   6.450  15.934  0.00  0.00    +0.000 A 
ATOM     17  C   UNL     1      50.283   5.868  17.128  0.00  0.00    +0.000 A 
ATOM     18  N   UNL     1      49.620   4.887  17.811  0.00  0.00    +0.000 NA
ATOM     19  C   UNL     1      48.460   4.484  17.225  0.00  0.00    +0.000 A 
ATOM     20  C   UNL     1      48.006   5.033  16.039  0.00  0.00    +0.000 A 
ATOM     21  N   UNL     1      48.676   6.013  15.379  0.00  0.00    +0.000 NA
ATOM     22  H   UNL     1      50.781   8.217  15.916  0.00  0.00    +0.000 HD
BRANCH  19  23
ATOM     23  C   UNL     1      47.642   3.430  17.895  0.00  0.00    +0.000 C 
ATOM     24  N   UNL     1      48.119   2.936  19.072  0.00  0.00    +0.000 N 
ATOM     25  O   UNL     1      46.591   3.022  17.408  0.00  0.00    +0.000 OA
ATOM     26  H   UNL     1      48.988   3.294  19.463  0.00  0.00    +0.000 HD
ATOM     27  H   UNL     1      47.589   2.233  19.565  0.00  0.00    +0.000 HD
ENDBRANCH  19  23
ENDBRANCH  14  15
ENDBRANCH  11  14
ENDBRANCH   3  11
BRANCH   1  28
ATOM     28  O   UNL     1      44.891   7.688  12.831  0.00  0.00    +0.000 OA
BRANCH  28  34
ATOM     29  C   UNL     1      44.051   4.072  12.769  0.00  0.00    +0.000 C 
ATOM     30  C   UNL     1      44.122   5.355  11.940  0.00  0.00    +0.000 C 
ATOM     31  C   UNL     1      42.726   5.841  11.571  0.00  0.00    +0.000 C 
ATOM     32  O   UNL     1      44.869   5.088  10.717  0.00  0.00    +0.000 OA
ATOM     33  C   UNL     1      45.812   6.137  11.022  0.00  0.00    +0.000 C 
ATOM     34  C   UNL     1      45.237   6.336  12.431  0.00  0.00    +0.000 C 
ENDBRANCH  28  34
ENDBRANCH   1  28
TORSDOF 7
ENDMDL
MODEL 9
REMARK VINA RESULT:    -6.717      3.447      5.645
REMARK INTER + INTRA:         -10.408
REMARK INTER:                  -9.293
REMARK INTRA:                  -1.115
REMARK UNBOUND:                -0.943
REMARK  Name = 
REMARK  9 active torsions:
REMARK  status: ('A' for Active; 'I' for Inactive)
REMARK    1  A    between atoms: C_1  and  C_2
REMARK    2  A    between atoms: C_2  and  C_3
REMARK    3  A    between atoms: C_6  and  O_7
REMARK    4  A    between atoms: O_7  and  C_8
REMARK    5  A    between atoms: C_10  and  C_11
REMARK    6  A    between atoms: C_11  and  C_14
REMARK    7  A    between atoms: C_14  and  N_15
REMARK    8  A    between atoms: C_19  and  C_20
REMARK    9  A    between atoms: C_27  and  C_28
REMARK                            x       y       z     vdW  Elec       q    Type
REMARK                         _______ _______ _______ _____ _____    ______ ____
ROOT
ATOM      1  C   UNL     1      48.837   7.355  17.435  0.00  0.00    +0.000 A 
ATOM      2  C   UNL     1      48.728   6.038  16.952  0.00  0.00    +0.000 A 
ATOM      3  C   UNL     1      47.903   5.083  17.582  0.00  0.00    +0.000 A 
ATOM      4  C   UNL     1      47.146   5.484  18.688  0.00  0.00    +0.000 A 
ATOM      5  C   UNL     1      47.191   6.811  19.127  0.00  0.00    +0.000 A 
ATOM      6  C   UNL     1      48.021   7.767  18.498  0.00  0.00    +0.000 A 
ENDROOT
BRANCH   6   7
ATOM      7  C   UNL     1      47.962   9.189  19.005  0.00  0.00    +0.000 C 
ATOM      8  F   UNL     1      49.115   9.686  19.528  0.00  0.00    +0.000 F 
ATOM      9  F   UNL     1      47.610  10.061  18.014  0.00  0.00    +0.000 F 
ATOM     10  F   UNL     1      47.017   9.348  19.975  0.00  0.00    +0.000 F 
ENDBRANCH   6   7
BRANCH   3  11
ATOM     11  C   UNL     1      47.870   3.633  17.106  0.00  0.00    +0.000 C 
ATOM     12  F   UNL     1      49.078   3.017  17.259  0.00  0.00    +0.000 F 
ATOM     13  F   UNL     1      46.987   2.880  17.834  0.00  0.00    +0.000 F 
BRANCH  11  14
ATOM     14  C   UNL     1      47.446   3.559  15.615  0.00  0.00    +0.000 C 
BRANCH  14  15
ATOM     15  N   UNL     1      46.696   4.743  15.113  0.00  0.00    +0.000 N 
ATOM     16  C   UNL     1      46.059   4.499  13.881  0.00  0.00    +0.000 A 
ATOM     17  C   UNL     1      45.293   5.491  13.248  0.00  0.00    +0.000 A 
ATOM     18  N   UNL     1      44.637   5.320  12.060  0.00  0.00    +0.000 NA
ATOM     19  C   UNL     1      44.765   4.076  11.526  0.00  0.00    +0.000 A 
ATOM     20  C   UNL     1      45.499   3.080  12.146  0.00  0.00    +0.000 A 
ATOM     21  N   UNL     1      46.149   3.272  13.323  0.00  0.00    +0.000 NA
ATOM     22  H   UNL     1      47.287   5.574  15.052  0.00  0.00    +0.000 HD
BRANCH  19  23
ATOM     23  C   UNL     1      44.106   3.781  10.220  0.00  0.00    +0.000 C 
ATOM     24  N   UNL     1      43.728   4.851   9.466  0.00  0.00    +0.000 N 
ATOM     25  O   UNL     1      43.908   2.629   9.841  0.00  0.00    +0.000 OA
ATOM     26  H   UNL     1      43.909   5.798   9.793  0.00  0.00    +0.000 HD
ATOM     27  H   UNL     1      43.293   4.697   8.568  0.00  0.00    +0.000 HD
ENDBRANCH  19  23
ENDBRANCH  14  15
ENDBRANCH  11  14
ENDBRANCH   3  11
BRANCH   1  28
ATOM     28  O   UNL     1      49.726   8.276  16.908  0.00  0.00    +0.000 OA
BRANCH  28  34
ATOM     29  C   UNL     1      49.112   7.068  13.451  0.00  0.00    +0.000 C 
ATOM     30  C   UNL     1      49.272   8.306  14.334  0.00  0.00    +0.000 C 
ATOM     31  C   UNL     1      47.950   9.051  14.472  0.00  0.00    +0.000 C 
ATOM     32  O   UNL     1      50.256   9.195  13.729  0.00  0.00    +0.000 OA
ATOM     33  C   UNL     1      51.063   9.174  14.925  0.00  0.00    +0.000 C 
ATOM     34  C   UNL     1      50.216   8.061  15.558  0.00  0.00    +0.000 C 
ENDBRANCH  28  34
ENDBRANCH   1  28
TORSDOF 7
ENDMDL
