MODEL 1
REMARK VINA RESULT:    -8.428      0.000      0.000
REMARK INTER + INTRA:         -11.617
REMARK INTER:                 -10.892
REMARK INTRA:                  -0.725
REMARK UNBOUND:                -0.725
REMARK  Name = 
REMARK  5 active torsions:
REMARK  status: ('A' for Active; 'I' for Inactive)
REMARK    1  A    between atoms: C_2  and  C_4
REMARK    2  A    between atoms: C_7  and  O_8
REMARK    3  A    between atoms: O_8  and  C_9
REMARK    4  A    between atoms: C_9  and  C_10
REMARK    5  A    between atoms: C_14  and  C_15
REMARK                            x       y       z     vdW  Elec       q    Type
REMARK                         _______ _______ _______ _____ _____    ______ ____
ROOT
ATOM      1  C   UNL     1      43.780   5.176  10.763  0.00  0.00    +0.000 C 
ENDROOT
BRANCH   1   2
ATOM      2  C   UNL     1      44.834   5.153  11.836  0.00  0.00    +0.000 A 
ATOM      3  C   UNL     1      44.759   4.234  12.874  0.00  0.00    +0.000 A 
ATOM      4  N   UNL     1      45.683   4.120  13.850  0.00  0.00    +0.000 NA
ATOM      5  C   UNL     1      46.745   4.960  13.784  0.00  0.00    +0.000 A 
ATOM      6  C   UNL     1      46.960   5.910  12.782  0.00  0.00    +0.000 A 
ATOM      7  C   UNL     1      45.964   5.982  11.795  0.00  0.00    +0.000 A 
BRANCH   6   8
ATOM      8  C   UNL     1      48.156   6.772  12.751  0.00  0.00    +0.000 A 
ATOM      9  C   UNL     1      48.576   7.429  11.584  0.00  0.00    +0.000 A 
ATOM     10  C   UNL     1      49.722   8.225  11.586  0.00  0.00    +0.000 A 
ATOM     11  C   UNL     1      50.428   8.356  12.766  0.00  0.00    +0.000 A 
ATOM     12  N   UNL     1      50.071   7.752  13.916  0.00  0.00    +0.000 NA
ATOM     13  C   UNL     1      48.958   6.978  13.878  0.00  0.00    +0.000 A 
ENDBRANCH   6   8
ENDBRANCH   1   2
BRANCH   1  14
ATOM     14  O   UNL     1      43.560   3.858  10.248  0.00  0.00    +0.000 OA
BRANCH  14  18
ATOM     15  C   UNL     1      46.377   2.707   7.489  0.00  0.00    +0.000 A 
ATOM     16  C   UNL     1      45.951   1.734   8.385  0.00  0.00    +0.000 A 
ATOM     17  C   UNL     1      45.001   2.081   9.345  0.00  0.00    +0.000 A 
ATOM     18  C   UNL     1      44.501   3.379   9.380  0.00  0.00    +0.000 A 
ATOM     19  C   UNL     1      44.998   4.286   8.443  0.00  0.00    +0.000 A 
ATOM     20  N   UNL     1      45.926   3.991   7.498  0.00  0.00    +0.000 NA
BRANCH  15  22
ATOM     21  N   UNL     1      47.316   3.065   5.281  0.00  0.00    +0.000 N 
ATOM     22  C   UNL     1      47.381   2.343   6.440  0.00  0.00    +0.000 C 
ATOM     23  O   UNL     1      48.213   1.459   6.603  0.00  0.00    +0.000 OA
ATOM     24  H   UNL     1      47.968   2.867   4.536  0.00  0.00    +0.000 HD
ATOM     25  H   UNL     1      46.625   3.801   5.182  0.00  0.00    +0.000 HD
ENDBRANCH  15  22
ENDBRANCH  14  18
ENDBRANCH   1  14
TORSDOF 5
ENDMDL
MODEL 2
REMARK VINA RESULT:    -8.254      1.292      1.418
REMARK INTER + INTRA:         -11.392
REMARK INTER:                 -10.690
REMARK INTRA:                  -0.703
REMARK UNBOUND:                -0.725
REMARK  Name = 
REMARK  5 active torsions:
REMARK  status: ('A' for Active; 'I' for Inactive)
REMARK    1  A    between atoms: C_2  and  C_4
REMARK    2  A    between atoms: C_7  and  O_8
REMARK    3  A    between atoms: O_8  and  C_9
REMARK    4  A    between atoms: C_9  and  C_10
REMARK    5  A    between atoms: C_14  and  C_15
REMARK                            x       y       z     vdW  Elec       q    Type
REMARK                         _______ _______ _______ _____ _____    ______ ____
ROOT
ATOM      1  C   UNL     1      43.504   4.341  11.339  0.00  0.00    +0.000 C 
ENDROOT
BRANCH   1   2
ATOM      2  C   UNL     1      44.745   4.754  12.083  0.00  0.00    +0.000 A 
ATOM      3  C   UNL     1      45.314   3.906  13.023  0.00  0.00    +0.000 A 
ATOM      4  N   UNL     1      46.448   4.181  13.700  0.00  0.00    +0.000 NA
ATOM      5  C   UNL     1      47.052   5.362  13.421  0.00  0.00    +0.000 A 
ATOM      6  C   UNL     1      46.604   6.294  12.481  0.00  0.00    +0.000 A 
ATOM      7  C   UNL     1      45.421   5.951  11.808  0.00  0.00    +0.000 A 
BRANCH   6   8
ATOM      8  C   UNL     1      47.329   7.547  12.200  0.00  0.00    +0.000 A 
ATOM      9  C   UNL     1      48.691   7.565  11.857  0.00  0.00    +0.000 A 
ATOM     10  C   UNL     1      49.350   8.770  11.613  0.00  0.00    +0.000 A 
ATOM     11  C   UNL     1      48.627   9.943  11.708  0.00  0.00    +0.000 A 
ATOM     12  N   UNL     1      47.320   9.987  12.029  0.00  0.00    +0.000 NA
ATOM     13  C   UNL     1      46.711   8.800  12.270  0.00  0.00    +0.000 A 
ENDBRANCH   6   8
ENDBRANCH   1   2
BRANCH   1  14
ATOM     14  O   UNL     1      43.647   4.604   9.940  0.00  0.00    +0.000 OA
BRANCH  14  18
ATOM     15  C   UNL     1      46.413   2.516   7.734  0.00  0.00    +0.000 A 
ATOM     16  C   UNL     1      45.627   1.775   8.607  0.00  0.00    +0.000 A 
ATOM     17  C   UNL     1      44.680   2.442   9.382  0.00  0.00    +0.000 A 
ATOM     18  C   UNL     1      44.538   3.821   9.261  0.00  0.00    +0.000 A 
ATOM     19  C   UNL     1      45.380   4.477   8.362  0.00  0.00    +0.000 A 
ATOM     20  N   UNL     1      46.318   3.867   7.595  0.00  0.00    +0.000 NA
BRANCH  15  22
ATOM     21  N   UNL     1      48.481   2.568   6.466  0.00  0.00    +0.000 N 
ATOM     22  C   UNL     1      47.420   1.811   6.880  0.00  0.00    +0.000 C 
ATOM     23  O   UNL     1      47.310   0.632   6.569  0.00  0.00    +0.000 OA
ATOM     24  H   UNL     1      49.195   2.148   5.889  0.00  0.00    +0.000 HD
ATOM     25  H   UNL     1      48.551   3.538   6.752  0.00  0.00    +0.000 HD
ENDBRANCH  15  22
ENDBRANCH  14  18
ENDBRANCH   1  14
TORSDOF 5
ENDMDL
MODEL 3
REMARK VINA RESULT:    -7.875      1.319      1.762
REMARK INTER + INTRA:         -10.901
REMARK INTER:                 -10.267
REMARK INTRA:                  -0.634
REMARK UNBOUND:                -0.725
REMARK  Name = 
REMARK  5 active torsions:
REMARK  status: ('A' for Active; 'I' for Inactive)
REMARK    1  A    between atoms: C_2  and  C_4
REMARK    2  A    between atoms: C_7  and  O_8
REMARK    3  A    between atoms: O_8  and  C_9
REMARK    4  A    between atoms: C_9  and  C_10
REMARK    5  A    between atoms: C_14  and  C_15
REMARK                            x       y       z     vdW  Elec       q    Type
REMARK                         _______ _______ _______ _____ _____    ______ ____
ROOT
ATOM      1  C   UNL     1      44.187   3.654  11.738  0.00  0.00    +0.000 C 
ENDROOT
BRANCH   1   2
ATOM      2  C   UNL     1      44.670   5.079  11.719  0.00  0.00    +0.000 A 
ATOM      3  C   UNL     1      43.797   6.111  11.400  0.00  0.00    +0.000 A 
ATOM      4  N   UNL     1      44.137   7.416  11.402  0.00  0.00    +0.000 NA
ATOM      5  C   UNL     1      45.413   7.712  11.749  0.00  0.00    +0.000 A 
ATOM      6  C   UNL     1      46.385   6.778  12.119  0.00  0.00    +0.000 A 
ATOM      7  C   UNL     1      45.971   5.436  12.098  0.00  0.00    +0.000 A 
BRANCH   6   8
ATOM      8  C   UNL     1      47.748   7.170  12.520  0.00  0.00    +0.000 A 
ATOM      9  C   UNL     1      48.558   7.993  11.721  0.00  0.00    +0.000 A 
ATOM     10  C   UNL     1      49.850   8.332  12.124  0.00  0.00    +0.000 A 
ATOM     11  C   UNL     1      50.309   7.844  13.332  0.00  0.00    +0.000 A 
ATOM     12  N   UNL     1      49.578   7.054  14.141  0.00  0.00    +0.000 NA
ATOM     13  C   UNL     1      48.330   6.736  13.716  0.00  0.00    +0.000 A 
ENDBRANCH   6   8
ENDBRANCH   1   2
BRANCH   1  14
ATOM     14  O   UNL     1      43.653   3.288  10.462  0.00  0.00    +0.000 OA
BRANCH  14  18
ATOM     15  C   UNL     1      46.422   2.539   7.522  0.00  0.00    +0.000 A 
ATOM     16  C   UNL     1      45.872   3.815   7.547  0.00  0.00    +0.000 A 
ATOM     17  C   UNL     1      44.922   4.112   8.523  0.00  0.00    +0.000 A 
ATOM     18  C   UNL     1      44.553   3.138   9.445  0.00  0.00    +0.000 A 
ATOM     19  C   UNL     1      45.156   1.884   9.332  0.00  0.00    +0.000 A 
ATOM     20  N   UNL     1      46.079   1.552   8.394  0.00  0.00    +0.000 NA
BRANCH  15  22
ATOM     21  N   UNL     1      47.517   3.057   5.419  0.00  0.00    +0.000 N 
ATOM     22  C   UNL     1      47.458   2.211   6.492  0.00  0.00    +0.000 C 
ATOM     23  O   UNL     1      48.209   1.250   6.598  0.00  0.00    +0.000 OA
ATOM     24  H   UNL     1      48.197   2.888   4.692  0.00  0.00    +0.000 HD
ATOM     25  H   UNL     1      46.891   3.852   5.368  0.00  0.00    +0.000 HD
ENDBRANCH  15  22
ENDBRANCH  14  18
ENDBRANCH   1  14
TORSDOF 5
ENDMDL
MODEL 4
REMARK VINA RESULT:    -7.853      2.050      3.123
REMARK INTER + INTRA:         -10.874
REMARK INTER:                 -10.313
REMARK INTRA:                  -0.561
REMARK UNBOUND:                -0.725
REMARK  Name = 
REMARK  5 active torsions:
REMARK  status: ('A' for Active; 'I' for Inactive)
REMARK    1  A    between atoms: C_2  and  C_4
REMARK    2  A    between atoms: C_7  and  O_8
REMARK    3  A    between atoms: O_8  and  C_9
REMARK    4  A    between atoms: C_9  and  C_10
REMARK    5  A    between atoms: C_14  and  C_15
REMARK                            x       y       z     vdW  Elec       q    Type
REMARK                         _______ _______ _______ _____ _____    ______ ____
ROOT
ATOM      1  C   UNL     1      44.006   4.240  11.538  0.00  0.00    +0.000 C 
ENDROOT
BRANCH   1   2
ATOM      2  C   UNL     1      45.152   4.995  12.154  0.00  0.00    +0.000 A 
ATOM      3  C   UNL     1      45.568   6.204  11.612  0.00  0.00    +0.000 A 
ATOM      4  N   UNL     1      46.556   6.963  12.128  0.00  0.00    +0.000 NA
ATOM      5  C   UNL     1      47.157   6.498  13.251  0.00  0.00    +0.000 A 
ATOM      6  C   UNL     1      46.820   5.316  13.915  0.00  0.00    +0.000 A 
ATOM      7  C   UNL     1      45.785   4.570  13.330  0.00  0.00    +0.000 A 
BRANCH   6   8
ATOM      8  C   UNL     1      47.493   4.884  15.154  0.00  0.00    +0.000 A 
ATOM      9  C   UNL     1      47.336   3.593  15.682  0.00  0.00    +0.000 A 
ATOM     10  C   UNL     1      47.975   3.222  16.865  0.00  0.00    +0.000 A 
ATOM     11  C   UNL     1      48.773   4.155  17.499  0.00  0.00    +0.000 A 
ATOM     12  N   UNL     1      48.963   5.406  17.038  0.00  0.00    +0.000 NA
ATOM     13  C   UNL     1      48.321   5.737  15.891  0.00  0.00    +0.000 A 
ENDBRANCH   6   8
ENDBRANCH   1   2
BRANCH   1  14
ATOM     14  O   UNL     1      43.894   4.547  10.144  0.00  0.00    +0.000 OA
BRANCH  14  18
ATOM     15  C   UNL     1      46.372   2.283   7.776  0.00  0.00    +0.000 A 
ATOM     16  C   UNL     1      46.417   3.658   7.586  0.00  0.00    +0.000 A 
ATOM     17  C   UNL     1      45.588   4.467   8.362  0.00  0.00    +0.000 A 
ATOM     18  C   UNL     1      44.746   3.885   9.305  0.00  0.00    +0.000 A 
ATOM     19  C   UNL     1      44.767   2.494   9.415  0.00  0.00    +0.000 A 
ATOM     20  N   UNL     1      45.553   1.672   8.675  0.00  0.00    +0.000 NA
BRANCH  15  22
ATOM     21  N   UNL     1      48.396   2.003   6.467  0.00  0.00    +0.000 N 
ATOM     22  C   UNL     1      47.271   1.404   6.964  0.00  0.00    +0.000 C 
ATOM     23  O   UNL     1      47.024   0.224   6.754  0.00  0.00    +0.000 OA
ATOM     24  H   UNL     1      49.043   1.461   5.913  0.00  0.00    +0.000 HD
ATOM     25  H   UNL     1      48.580   2.979   6.670  0.00  0.00    +0.000 HD
ENDBRANCH  15  22
ENDBRANCH  14  18
ENDBRANCH   1  14
TORSDOF 5
ENDMDL
MODEL 5
REMARK VINA RESULT:    -7.837      2.472      3.078
REMARK INTER + INTRA:         -10.852
REMARK INTER:                 -10.062
REMARK INTRA:                  -0.791
REMARK UNBOUND:                -0.725
REMARK  Name = 
REMARK  5 active torsions:
REMARK  status: ('A' for Active; 'I' for Inactive)
REMARK    1  A    between atoms: C_2  and  C_4
REMARK    2  A    between atoms: C_7  and  O_8
REMARK    3  A    between atoms: O_8  and  C_9
REMARK    4  A    between atoms: C_9  and  C_10
REMARK    5  A    between atoms: C_14  and  C_15
REMARK                            x       y       z     vdW  Elec       q    Type
REMARK                         _______ _______ _______ _____ _____    ______ ____
ROOT
ATOM      1  C   UNL     1      43.899   3.618  11.596  0.00  0.00    +0.000 C 
ENDROOT
BRANCH   1   2
ATOM      2  C   UNL     1      44.738   4.766  12.091  0.00  0.00    +0.000 A 
ATOM      3  C   UNL     1      45.864   4.527  12.867  0.00  0.00    +0.000 A 
ATOM      4  N   UNL     1      46.691   5.494  13.313  0.00  0.00    +0.000 NA
ATOM      5  C   UNL     1      46.387   6.767  12.961  0.00  0.00    +0.000 A 
ATOM      6  C   UNL     1      45.303   7.145  12.163  0.00  0.00    +0.000 A 
ATOM      7  C   UNL     1      44.479   6.095  11.729  0.00  0.00    +0.000 A 
BRANCH   6   8
ATOM      8  C   UNL     1      45.047   8.548  11.788  0.00  0.00    +0.000 A 
ATOM      9  C   UNL     1      43.951   8.923  10.995  0.00  0.00    +0.000 A 
ATOM     10  C   UNL     1      43.747  10.259  10.646  0.00  0.00    +0.000 A 
ATOM     11  C   UNL     1      44.645  11.202  11.106  0.00  0.00    +0.000 A 
ATOM     12  N   UNL     1      45.712  10.901  11.871  0.00  0.00    +0.000 NA
ATOM     13  C   UNL     1      45.887   9.593  12.185  0.00  0.00    +0.000 A 
ENDBRANCH   6   8
ENDBRANCH   1   2
BRANCH   1  14
ATOM     14  O   UNL     1      43.577   3.792  10.212  0.00  0.00    +0.000 OA
BRANCH  14  18
ATOM     15  C   UNL     1      46.541   2.612   7.625  0.00  0.00    +0.000 A 
ATOM     16  C   UNL     1      46.240   3.968   7.647  0.00  0.00    +0.000 A 
ATOM     17  C   UNL     1      45.235   4.414   8.504  0.00  0.00    +0.000 A 
ATOM     18  C   UNL     1      44.567   3.502   9.316  0.00  0.00    +0.000 A 
ATOM     19  C   UNL     1      44.937   2.160   9.215  0.00  0.00    +0.000 A 
ATOM     20  N   UNL     1      45.903   1.684   8.390  0.00  0.00    +0.000 NA
BRANCH  15  22
ATOM     21  N   UNL     1      47.887   2.894   5.626  0.00  0.00    +0.000 N 
ATOM     22  C   UNL     1      47.632   2.121   6.724  0.00  0.00    +0.000 C 
ATOM     23  O   UNL     1      48.261   1.095   6.951  0.00  0.00    +0.000 OA
ATOM     24  H   UNL     1      48.613   2.616   4.981  0.00  0.00    +0.000 HD
ATOM     25  H   UNL     1      47.358   3.746   5.474  0.00  0.00    +0.000 HD
ENDBRANCH  15  22
ENDBRANCH  14  18
ENDBRANCH   1  14
TORSDOF 5
ENDMDL
MODEL 6
REMARK VINA RESULT:    -7.710      2.563      6.654
REMARK INTER + INTRA:         -10.689
REMARK INTER:                  -9.942
REMARK INTRA:                  -0.747
REMARK UNBOUND:                -0.725
REMARK  Name = 
REMARK  5 active torsions:
REMARK  status: ('A' for Active; 'I' for Inactive)
REMARK    1  A    between atoms: C_2  and  C_4
REMARK    2  A    between atoms: C_7  and  O_8
REMARK    3  A    between atoms: O_8  and  C_9
REMARK    4  A    between atoms: C_9  and  C_10
REMARK    5  A    between atoms: C_14  and  C_15
REMARK                            x       y       z     vdW  Elec       q    Type
REMARK                         _______ _______ _______ _____ _____    ______ ____
ROOT
ATOM      1  C   UNL     1      44.124   6.228  11.404  0.00  0.00    +0.000 C 
ENDROOT
BRANCH   1   2
ATOM      2  C   UNL     1      44.198   4.814  10.894  0.00  0.00    +0.000 A 
ATOM      3  C   UNL     1      43.388   3.828  11.442  0.00  0.00    +0.000 A 
ATOM      4  N   UNL     1      43.362   2.549  11.014  0.00  0.00    +0.000 NA
ATOM      5  C   UNL     1      44.180   2.236   9.980  0.00  0.00    +0.000 A 
ATOM      6  C   UNL     1      45.023   3.133   9.319  0.00  0.00    +0.000 A 
ATOM      7  C   UNL     1      45.006   4.449   9.809  0.00  0.00    +0.000 A 
BRANCH   6   8
ATOM      8  C   UNL     1      45.864   2.735   8.175  0.00  0.00    +0.000 A 
ATOM      9  C   UNL     1      46.160   3.613   7.120  0.00  0.00    +0.000 A 
ATOM     10  C   UNL     1      46.948   3.197   6.046  0.00  0.00    +0.000 A 
ATOM     11  C   UNL     1      47.434   1.904   6.050  0.00  0.00    +0.000 A 
ATOM     12  N   UNL     1      47.185   1.020   7.035  0.00  0.00    +0.000 NA
ATOM     13  C   UNL     1      46.410   1.452   8.060  0.00  0.00    +0.000 A 
ENDBRANCH   6   8
ENDBRANCH   1   2
BRANCH   1  14
ATOM     14  O   UNL     1      44.795   6.343  12.663  0.00  0.00    +0.000 OA
BRANCH  14  18
ATOM     15  C   UNL     1      48.779   7.345  12.706  0.00  0.00    +0.000 A 
ATOM     16  C   UNL     1      47.908   8.285  12.171  0.00  0.00    +0.000 A 
ATOM     17  C   UNL     1      46.547   7.986  12.128  0.00  0.00    +0.000 A 
ATOM     18  C   UNL     1      46.094   6.767  12.623  0.00  0.00    +0.000 A 
ATOM     19  C   UNL     1      47.049   5.886  13.134  0.00  0.00    +0.000 A 
ATOM     20  N   UNL     1      48.381   6.135  13.187  0.00  0.00    +0.000 NA
BRANCH  15  22
ATOM     21  N   UNL     1      50.963   7.386  11.650  0.00  0.00    +0.000 N 
ATOM     22  C   UNL     1      50.240   7.662  12.778  0.00  0.00    +0.000 C 
ATOM     23  O   UNL     1      50.763   8.138  13.777  0.00  0.00    +0.000 OA
ATOM     24  H   UNL     1      51.954   7.578  11.637  0.00  0.00    +0.000 HD
ATOM     25  H   UNL     1      50.499   7.004  10.834  0.00  0.00    +0.000 HD
ENDBRANCH  15  22
ENDBRANCH  14  18
ENDBRANCH   1  14
TORSDOF 5
ENDMDL
MODEL 7
REMARK VINA RESULT:    -7.610      2.669      7.198
REMARK INTER + INTRA:         -10.559
REMARK INTER:                 -10.092
REMARK INTRA:                  -0.468
REMARK UNBOUND:                -0.725
REMARK  Name = 
REMARK  5 active torsions:
REMARK  status: ('A' for Active; 'I' for Inactive)
REMARK    1  A    between atoms: C_2  and  C_4
REMARK    2  A    between atoms: C_7  and  O_8
REMARK    3  A    between atoms: O_8  and  C_9
REMARK    4  A    between atoms: C_9  and  C_10
REMARK    5  A    between atoms: C_14  and  C_15
REMARK                            x       y       z     vdW  Elec       q    Type
REMARK                         _______ _______ _______ _____ _____    ______ ____
ROOT
ATOM      1  C   UNL     1      44.593   6.389  11.372  0.00  0.00    +0.000 C 
ENDROOT
BRANCH   1   2
ATOM      2  C   UNL     1      44.492   4.980  10.853  0.00  0.00    +0.000 A 
ATOM      3  C   UNL     1      43.566   4.098  11.393  0.00  0.00    +0.000 A 
ATOM      4  N   UNL     1      43.383   2.835  10.956  0.00  0.00    +0.000 NA
ATOM      5  C   UNL     1      44.157   2.431   9.920  0.00  0.00    +0.000 A 
ATOM      6  C   UNL     1      45.105   3.222   9.266  0.00  0.00    +0.000 A 
ATOM      7  C   UNL     1      45.250   4.526   9.765  0.00  0.00    +0.000 A 
BRANCH   6   8
ATOM      8  C   UNL     1      45.892   2.731   8.120  0.00  0.00    +0.000 A 
ATOM      9  C   UNL     1      46.167   3.532   7.000  0.00  0.00    +0.000 A 
ATOM     10  C   UNL     1      46.903   3.029   5.926  0.00  0.00    +0.000 A 
ATOM     11  C   UNL     1      47.360   1.728   5.996  0.00  0.00    +0.000 A 
ATOM     12  N   UNL     1      47.130   0.915   7.044  0.00  0.00    +0.000 NA
ATOM     13  C   UNL     1      46.405   1.430   8.068  0.00  0.00    +0.000 A 
ENDBRANCH   6   8
ENDBRANCH   1   2
BRANCH   1  14
ATOM     14  O   UNL     1      45.925   6.888  11.214  0.00  0.00    +0.000 OA
BRANCH  14  18
ATOM     15  C   UNL     1      48.228   6.639  14.606  0.00  0.00    +0.000 A 
ATOM     16  C   UNL     1      47.963   7.916  14.128  0.00  0.00    +0.000 A 
ATOM     17  C   UNL     1      47.191   8.050  12.975  0.00  0.00    +0.000 A 
ATOM     18  C   UNL     1      46.703   6.913  12.337  0.00  0.00    +0.000 A 
ATOM     19  C   UNL     1      47.031   5.675  12.890  0.00  0.00    +0.000 A 
ATOM     20  N   UNL     1      47.784   5.501  14.005  0.00  0.00    +0.000 NA
BRANCH  15  22
ATOM     21  N   UNL     1      48.331   6.490  17.026  0.00  0.00    +0.000 N 
ATOM     22  C   UNL     1      49.038   6.481  15.855  0.00  0.00    +0.000 C 
ATOM     23  O   UNL     1      50.255   6.350  15.838  0.00  0.00    +0.000 OA
ATOM     24  H   UNL     1      48.822   6.386  17.902  0.00  0.00    +0.000 HD
ATOM     25  H   UNL     1      47.322   6.586  17.005  0.00  0.00    +0.000 HD
ENDBRANCH  15  22
ENDBRANCH  14  18
ENDBRANCH   1  14
TORSDOF 5
ENDMDL
MODEL 8
REMARK VINA RESULT:    -7.410      2.658      7.150
REMARK INTER + INTRA:         -10.301
REMARK INTER:                 -10.326
REMARK INTRA:                   0.025
REMARK UNBOUND:                -0.725
REMARK  Name = 
REMARK  5 active torsions:
REMARK  status: ('A' for Active; 'I' for Inactive)
REMARK    1  A    between atoms: C_2  and  C_4
REMARK    2  A    between atoms: C_7  and  O_8
REMARK    3  A    between atoms: O_8  and  C_9
REMARK    4  A    between atoms: C_9  and  C_10
REMARK    5  A    between atoms: C_14  and  C_15
REMARK                            x       y       z     vdW  Elec       q    Type
REMARK                         _______ _______ _______ _____ _____    ______ ____
ROOT
ATOM      1  C   UNL     1      44.715   6.210  11.596  0.00  0.00    +0.000 C 
ENDROOT
BRANCH   1   2
ATOM      2  C   UNL     1      44.574   4.849  10.969  0.00  0.00    +0.000 A 
ATOM      3  C   UNL     1      43.603   3.966  11.423  0.00  0.00    +0.000 A 
ATOM      4  N   UNL     1      43.382   2.747  10.888  0.00  0.00    +0.000 NA
ATOM      5  C   UNL     1      44.164   2.392   9.839  0.00  0.00    +0.000 A 
ATOM      6  C   UNL     1      45.155   3.192   9.266  0.00  0.00    +0.000 A 
ATOM      7  C   UNL     1      45.338   4.448   9.865  0.00  0.00    +0.000 A 
BRANCH   6   8
ATOM      8  C   UNL     1      45.949   2.758   8.101  0.00  0.00    +0.000 A 
ATOM      9  C   UNL     1      46.210   3.606   7.014  0.00  0.00    +0.000 A 
ATOM     10  C   UNL     1      46.952   3.157   5.920  0.00  0.00    +0.000 A 
ATOM     11  C   UNL     1      47.429   1.861   5.939  0.00  0.00    +0.000 A 
ATOM     12  N   UNL     1      47.212   1.004   6.955  0.00  0.00    +0.000 NA
ATOM     13  C   UNL     1      46.481   1.468   7.998  0.00  0.00    +0.000 A 
ENDBRANCH   6   8
ENDBRANCH   1   2
BRANCH   1  14
ATOM     14  O   UNL     1      46.093   6.506  11.846  0.00  0.00    +0.000 OA
BRANCH  14  18
ATOM     15  C   UNL     1      47.417   4.878  15.377  0.00  0.00    +0.000 A 
ATOM     16  C   UNL     1      48.095   5.999  14.918  0.00  0.00    +0.000 A 
ATOM     17  C   UNL     1      47.686   6.582  13.719  0.00  0.00    +0.000 A 
ATOM     18  C   UNL     1      46.614   6.037  13.019  0.00  0.00    +0.000 A 
ATOM     19  C   UNL     1      46.003   4.904  13.559  0.00  0.00    +0.000 A 
ATOM     20  N   UNL     1      46.374   4.303  14.717  0.00  0.00    +0.000 NA
BRANCH  15  22
ATOM     21  N   UNL     1      46.997   3.285  17.159  0.00  0.00    +0.000 N 
ATOM     22  C   UNL     1      47.831   4.254  16.673  0.00  0.00    +0.000 C 
ATOM     23  O   UNL     1      48.851   4.582  17.266  0.00  0.00    +0.000 OA
ATOM     24  H   UNL     1      47.224   2.826  18.030  0.00  0.00    +0.000 HD
ATOM     25  H   UNL     1      46.167   3.026  16.638  0.00  0.00    +0.000 HD
ENDBRANCH  15  22
ENDBRANCH  14  18
ENDBRANCH   1  14
TORSDOF 5
ENDMDL
MODEL 9
REMARK VINA RESULT:    -7.111      2.748      6.898
REMARK INTER + INTRA:          -9.914
REMARK INTER:                  -9.224
REMARK INTRA:                  -0.690
REMARK UNBOUND:                -0.725
REMARK  Name = 
REMARK  5 active torsions:
REMARK  status: ('A' for Active; 'I' for Inactive)
REMARK    1  A    between atoms: C_2  and  C_4
REMARK    2  A    between atoms: C_7  and  O_8
REMARK    3  A    between atoms: O_8  and  C_9
REMARK    4  A    between atoms: C_9  and  C_10
REMARK    5  A    between atoms: C_14  and  C_15
REMARK                            x       y       z     vdW  Elec       q    Type
REMARK                         _______ _______ _______ _____ _____    ______ ____
ROOT
ATOM      1  C   UNL     1      44.229   6.483  11.542  0.00  0.00    +0.000 C 
ENDROOT
BRANCH   1   2
ATOM      2  C   UNL     1      44.215   5.054  11.070  0.00  0.00    +0.000 A 
ATOM      3  C   UNL     1      43.356   4.132  11.651  0.00  0.00    +0.000 A 
ATOM      4  N   UNL     1      43.251   2.846  11.259  0.00  0.00    +0.000 NA
ATOM      5  C   UNL     1      44.038   2.458  10.226  0.00  0.00    +0.000 A 
ATOM      6  C   UNL     1      44.925   3.287   9.534  0.00  0.00    +0.000 A 
ATOM      7  C   UNL     1      44.990   4.614   9.988  0.00  0.00    +0.000 A 
BRANCH   6   8
ATOM      8  C   UNL     1      45.730   2.811   8.394  0.00  0.00    +0.000 A 
ATOM      9  C   UNL     1      46.173   1.482   8.292  0.00  0.00    +0.000 A 
ATOM     10  C   UNL     1      46.946   1.069   7.207  0.00  0.00    +0.000 A 
ATOM     11  C   UNL     1      47.257   1.996   6.232  0.00  0.00    +0.000 A 
ATOM     12  N   UNL     1      46.858   3.281   6.275  0.00  0.00    +0.000 NA
ATOM     13  C   UNL     1      46.116   3.654   7.346  0.00  0.00    +0.000 A 
ENDBRANCH   6   8
ENDBRANCH   1   2
BRANCH   1  14
ATOM     14  O   UNL     1      45.124   6.638  12.648  0.00  0.00    +0.000 OA
BRANCH  14  18
ATOM     15  C   UNL     1      48.394   9.053  12.056  0.00  0.00    +0.000 A 
ATOM     16  C   UNL     1      48.500   7.743  11.607  0.00  0.00    +0.000 A 
ATOM     17  C   UNL     1      47.418   6.884  11.793  0.00  0.00    +0.000 A 
ATOM     18  C   UNL     1      46.264   7.354  12.413  0.00  0.00    +0.000 A 
ATOM     19  C   UNL     1      46.258   8.684  12.836  0.00  0.00    +0.000 A 
ATOM     20  N   UNL     1      47.291   9.550  12.681  0.00  0.00    +0.000 NA
BRANCH  15  22
ATOM     21  N   UNL     1      49.368  11.258  12.335  0.00  0.00    +0.000 N 
ATOM     22  C   UNL     1      49.540   9.993  11.845  0.00  0.00    +0.000 C 
ATOM     23  O   UNL     1      50.569   9.658  11.272  0.00  0.00    +0.000 OA
ATOM     24  H   UNL     1      50.107  11.937  12.224  0.00  0.00    +0.000 HD
ATOM     25  H   UNL     1      48.510  11.500  12.817  0.00  0.00    +0.000 HD
ENDBRANCH  15  22
ENDBRANCH  14  18
ENDBRANCH   1  14
TORSDOF 5
ENDMDL
