MODEL 1
REMARK VINA RESULT:    -8.849      0.000      0.000
REMARK INTER + INTRA:         -12.427
REMARK INTER:                 -11.953
REMARK INTRA:                  -0.474
REMARK UNBOUND:                -0.474
REMARK  Name = 
REMARK  6 active torsions:
REMARK  status: ('A' for Active; 'I' for Inactive)
REMARK    1  A    between atoms: C_2  and  C_25
REMARK    2  A    between atoms: N_3  and  C_4
REMARK    3  A    between atoms: C_4  and  C_5
REMARK    4  A    between atoms: C_8  and  C_9
REMARK    5  A    between atoms: C_9  and  N_10
REMARK    6  A    between atoms: C_11  and  C_13
REMARK                            x       y       z     vdW  Elec       q    Type
REMARK                         _______ _______ _______ _____ _____    ______ ____
ROOT
ATOM      1  C   UNL     1      43.583   4.656  11.789  0.00  0.00    +0.000 C 
ATOM      2  C   UNL     1      44.200   3.339  12.292  0.00  0.00    +0.000 C 
ATOM      3  C   UNL     1      45.723   3.385  12.420  0.00  0.00    +0.000 C 
ATOM      4  C   UNL     1      46.245   4.594  13.218  0.00  0.00    +0.000 C 
ATOM      5  C   UNL     1      45.639   5.894  12.668  0.00  0.00    +0.000 C 
ATOM      6  C   UNL     1      44.111   5.850  12.601  0.00  0.00    +0.000 C 
ENDROOT
BRANCH   1   7
ATOM      7  C   UNL     1      43.811   4.884  10.282  0.00  0.00    +0.000 C 
BRANCH   7  10
ATOM      8  O   UNL     1      45.827   5.103   8.336  0.00  0.00    +0.000 OA
ATOM      9  C   UNL     1      45.490   3.978   8.695  0.00  0.00    +0.000 C 
ATOM     10  N   UNL     1      44.518   3.786   9.657  0.00  0.00    +0.000 N 
ATOM     11  H   UNL     1      44.251   2.838   9.888  0.00  0.00    +0.000 HD
BRANCH   9  12
ATOM     12  C   UNL     1      46.084   2.774   8.151  0.00  0.00    +0.000 A 
ATOM     13  C   UNL     1      45.824   1.473   8.536  0.00  0.00    +0.000 A 
ATOM     14  N   UNL     1      46.524   0.489   7.861  0.00  0.00    +0.000 NA
ATOM     15  C   UNL     1      47.309   1.056   6.973  0.00  0.00    +0.000 A 
ATOM     16  S   UNL     1      47.256   2.768   6.897  0.00  0.00    +0.000 S 
ENDBRANCH   9  12
ENDBRANCH   7  10
ENDBRANCH   1   7
BRANCH   4  17
ATOM     17  C   UNL     1      45.986   4.491  14.730  0.00  0.00    +0.000 C 
BRANCH  17  18
ATOM     18  N   UNL     1      47.181   4.661  15.518  0.00  0.00    +0.000 N 
ATOM     19  C   UNL     1      47.397   4.054  16.728  0.00  0.00    +0.000 C 
ATOM     20  O   UNL     1      46.533   3.412  17.317  0.00  0.00    +0.000 OA
ATOM     21  H   UNL     1      47.967   5.076  15.032  0.00  0.00    +0.000 HD
BRANCH  19  22
ATOM     22  C   UNL     1      48.733   4.265  17.301  0.00  0.00    +0.000 A 
ATOM     23  C   UNL     1      49.038   5.445  17.961  0.00  0.00    +0.000 A 
ATOM     24  S   UNL     1      50.650   5.515  18.521  0.00  0.00    +0.000 S 
ATOM     25  C   UNL     1      50.979   3.947  17.944  0.00  0.00    +0.000 A 
ATOM     26  N   UNL     1      52.203   3.378  18.114  0.00  0.00    +0.000 NA
ATOM     27  C   UNL     1      52.297   2.170  17.666  0.00  0.00    +0.000 A 
ATOM     28  N   UNL     1      51.280   1.479  17.062  0.00  0.00    +0.000 N 
ATOM     29  C   UNL     1      50.052   2.036  16.807  0.00  0.00    +0.000 A 
ATOM     30  O   UNL     1      49.209   1.428  16.155  0.00  0.00    +0.000 OA
ATOM     31  C   UNL     1      49.880   3.385  17.319  0.00  0.00    +0.000 A 
ATOM     32  H   UNL     1      51.424   0.544  16.709  0.00  0.00    +0.000 HD
ENDBRANCH  19  22
ENDBRANCH  17  18
ENDBRANCH   4  17
TORSDOF 6
ENDMDL
MODEL 2
REMARK VINA RESULT:    -7.889      2.239      2.716
REMARK INTER + INTRA:         -11.130
REMARK INTER:                 -10.691
REMARK INTRA:                  -0.440
REMARK UNBOUND:                -0.474
REMARK  Name = 
REMARK  6 active torsions:
REMARK  status: ('A' for Active; 'I' for Inactive)
REMARK    1  A    between atoms: C_2  and  C_25
REMARK    2  A    between atoms: N_3  and  C_4
REMARK    3  A    between atoms: C_4  and  C_5
REMARK    4  A    between atoms: C_8  and  C_9
REMARK    5  A    between atoms: C_9  and  N_10
REMARK    6  A    between atoms: C_11  and  C_13
REMARK                            x       y       z     vdW  Elec       q    Type
REMARK                         _______ _______ _______ _____ _____    ______ ____
ROOT
ATOM      1  C   UNL     1      43.450   6.148  11.998  0.00  0.00    +0.000 C 
ATOM      2  C   UNL     1      44.135   5.519  13.226  0.00  0.00    +0.000 C 
ATOM      3  C   UNL     1      45.511   4.925  12.921  0.00  0.00    +0.000 C 
ATOM      4  C   UNL     1      46.456   5.889  12.181  0.00  0.00    +0.000 C 
ATOM      5  C   UNL     1      45.755   6.470  10.943  0.00  0.00    +0.000 C 
ATOM      6  C   UNL     1      44.406   7.111  11.276  0.00  0.00    +0.000 C 
ENDROOT
BRANCH   1   7
ATOM      7  C   UNL     1      42.899   5.095  11.017  0.00  0.00    +0.000 C 
BRANCH   7  10
ATOM      8  O   UNL     1      43.814   2.503  10.433  0.00  0.00    +0.000 OA
ATOM      9  C   UNL     1      44.267   3.437   9.777  0.00  0.00    +0.000 C 
ATOM     10  N   UNL     1      43.858   4.738   9.993  0.00  0.00    +0.000 N 
ATOM     11  H   UNL     1      44.292   5.475   9.452  0.00  0.00    +0.000 HD
BRANCH   9  12
ATOM     12  C   UNL     1      45.252   3.252   8.731  0.00  0.00    +0.000 A 
ATOM     13  C   UNL     1      45.796   4.229   7.920  0.00  0.00    +0.000 A 
ATOM     14  N   UNL     1      46.723   3.798   6.989  0.00  0.00    +0.000 NA
ATOM     15  C   UNL     1      46.870   2.498   7.102  0.00  0.00    +0.000 A 
ATOM     16  S   UNL     1      45.924   1.730   8.308  0.00  0.00    +0.000 S 
ENDBRANCH   9  12
ENDBRANCH   7  10
ENDBRANCH   1   7
BRANCH   4  17
ATOM     17  C   UNL     1      46.992   7.026  13.065  0.00  0.00    +0.000 C 
BRANCH  17  18
ATOM     18  N   UNL     1      47.404   6.577  14.371  0.00  0.00    +0.000 N 
ATOM     19  C   UNL     1      48.698   6.607  14.822  0.00  0.00    +0.000 C 
ATOM     20  O   UNL     1      49.649   6.899  14.103  0.00  0.00    +0.000 OA
ATOM     21  H   UNL     1      46.656   6.441  15.040  0.00  0.00    +0.000 HD
BRANCH  19  22
ATOM     22  C   UNL     1      48.877   6.218  16.227  0.00  0.00    +0.000 A 
ATOM     23  C   UNL     1      49.445   7.099  17.135  0.00  0.00    +0.000 A 
ATOM     24  S   UNL     1      49.603   6.449  18.706  0.00  0.00    +0.000 S 
ATOM     25  C   UNL     1      48.869   4.987  18.237  0.00  0.00    +0.000 A 
ATOM     26  N   UNL     1      48.677   3.978  19.130  0.00  0.00    +0.000 NA
ATOM     27  C   UNL     1      48.070   2.945  18.647  0.00  0.00    +0.000 A 
ATOM     28  N   UNL     1      47.639   2.827  17.353  0.00  0.00    +0.000 N 
ATOM     29  C   UNL     1      47.871   3.788  16.401  0.00  0.00    +0.000 A 
ATOM     30  O   UNL     1      47.578   3.592  15.226  0.00  0.00    +0.000 OA
ATOM     31  C   UNL     1      48.523   4.987  16.898  0.00  0.00    +0.000 A 
ATOM     32  H   UNL     1      47.192   1.981  17.029  0.00  0.00    +0.000 HD
ENDBRANCH  19  22
ENDBRANCH  17  18
ENDBRANCH   4  17
TORSDOF 6
ENDMDL
MODEL 3
REMARK VINA RESULT:    -7.086      3.660      4.398
REMARK INTER + INTRA:         -10.046
REMARK INTER:                  -8.945
REMARK INTRA:                  -1.101
REMARK UNBOUND:                -0.474
REMARK  Name = 
REMARK  6 active torsions:
REMARK  status: ('A' for Active; 'I' for Inactive)
REMARK    1  A    between atoms: C_2  and  C_25
REMARK    2  A    between atoms: N_3  and  C_4
REMARK    3  A    between atoms: C_4  and  C_5
REMARK    4  A    between atoms: C_8  and  C_9
REMARK    5  A    between atoms: C_9  and  N_10
REMARK    6  A    between atoms: C_11  and  C_13
REMARK                            x       y       z     vdW  Elec       q    Type
REMARK                         _______ _______ _______ _____ _____    ______ ____
ROOT
ATOM      1  C   UNL     1      44.083   4.819  11.371  0.00  0.00    +0.000 C 
ATOM      2  C   UNL     1      45.584   4.745  11.703  0.00  0.00    +0.000 C 
ATOM      3  C   UNL     1      46.364   5.997  11.299  0.00  0.00    +0.000 C 
ATOM      4  C   UNL     1      45.739   7.311  11.806  0.00  0.00    +0.000 C 
ATOM      5  C   UNL     1      44.251   7.369  11.427  0.00  0.00    +0.000 C 
ATOM      6  C   UNL     1      43.475   6.133  11.890  0.00  0.00    +0.000 C 
ENDROOT
BRANCH   1   7
ATOM      7  C   UNL     1      43.795   4.646   9.868  0.00  0.00    +0.000 C 
BRANCH   7  10
ATOM      8  O   UNL     1      45.961   5.020   8.116  0.00  0.00    +0.000 OA
ATOM      9  C   UNL     1      45.642   3.870   8.403  0.00  0.00    +0.000 C 
ATOM     10  N   UNL     1      44.599   3.602   9.267  0.00  0.00    +0.000 N 
ATOM     11  H   UNL     1      44.352   2.636   9.439  0.00  0.00    +0.000 HD
BRANCH   9  12
ATOM     12  C   UNL     1      46.330   2.712   7.869  0.00  0.00    +0.000 A 
ATOM     13  C   UNL     1      47.408   2.713   7.004  0.00  0.00    +0.000 A 
ATOM     14  N   UNL     1      47.890   1.470   6.636  0.00  0.00    +0.000 NA
ATOM     15  C   UNL     1      47.171   0.541   7.223  0.00  0.00    +0.000 A 
ATOM     16  S   UNL     1      45.899   1.091   8.233  0.00  0.00    +0.000 S 
ENDBRANCH   9  12
ENDBRANCH   7  10
ENDBRANCH   1   7
BRANCH   4  17
ATOM     17  C   UNL     1      45.906   7.529  13.318  0.00  0.00    +0.000 C 
BRANCH  17  18
ATOM     18  N   UNL     1      47.266   7.817  13.697  0.00  0.00    +0.000 N 
ATOM     19  C   UNL     1      48.145   6.882  14.178  0.00  0.00    +0.000 C 
ATOM     20  O   UNL     1      47.813   5.734  14.455  0.00  0.00    +0.000 OA
ATOM     21  H   UNL     1      47.626   8.710  13.380  0.00  0.00    +0.000 HD
BRANCH  19  22
ATOM     22  C   UNL     1      49.517   7.365  14.384  0.00  0.00    +0.000 A 
ATOM     23  C   UNL     1      50.118   7.269  15.630  0.00  0.00    +0.000 A 
ATOM     24  S   UNL     1      51.696   7.919  15.676  0.00  0.00    +0.000 S 
ATOM     25  C   UNL     1      51.649   8.302  14.019  0.00  0.00    +0.000 A 
ATOM     26  N   UNL     1      52.714   8.882  13.400  0.00  0.00    +0.000 NA
ATOM     27  C   UNL     1      52.555   9.077  12.133  0.00  0.00    +0.000 A 
ATOM     28  N   UNL     1      51.428   8.746  11.427  0.00  0.00    +0.000 N 
ATOM     29  C   UNL     1      50.306   8.225  12.020  0.00  0.00    +0.000 A 
ATOM     30  O   UNL     1      49.275   8.057  11.376  0.00  0.00    +0.000 OA
ATOM     31  C   UNL     1      50.441   7.955  13.442  0.00  0.00    +0.000 A 
ATOM     32  H   UNL     1      51.355   8.948  10.441  0.00  0.00    +0.000 HD
ENDBRANCH  19  22
ENDBRANCH  17  18
ENDBRANCH   4  17
TORSDOF 6
ENDMDL
MODEL 4
REMARK VINA RESULT:    -6.858      3.202      8.752
REMARK INTER + INTRA:          -9.737
REMARK INTER:                  -8.924
REMARK INTRA:                  -0.812
REMARK UNBOUND:                -0.474
REMARK  Name = 
REMARK  6 active torsions:
REMARK  status: ('A' for Active; 'I' for Inactive)
REMARK    1  A    between atoms: C_2  and  C_25
REMARK    2  A    between atoms: N_3  and  C_4
REMARK    3  A    between atoms: C_4  and  C_5
REMARK    4  A    between atoms: C_8  and  C_9
REMARK    5  A    between atoms: C_9  and  N_10
REMARK    6  A    between atoms: C_11  and  C_13
REMARK                            x       y       z     vdW  Elec       q    Type
REMARK                         _______ _______ _______ _____ _____    ______ ____
ROOT
ATOM      1  C   UNL     1      49.487   8.108  12.208  0.00  0.00    +0.000 C 
ATOM      2  C   UNL     1      48.586   6.900  12.524  0.00  0.00    +0.000 C 
ATOM      3  C   UNL     1      47.455   7.220  13.503  0.00  0.00    +0.000 C 
ATOM      4  C   UNL     1      46.624   8.456  13.113  0.00  0.00    +0.000 C 
ATOM      5  C   UNL     1      47.550   9.652  12.839  0.00  0.00    +0.000 C 
ATOM      6  C   UNL     1      48.640   9.330  11.814  0.00  0.00    +0.000 C 
ENDROOT
BRANCH   1   7
ATOM      7  C   UNL     1      50.441   8.460  13.364  0.00  0.00    +0.000 C 
BRANCH   7  10
ATOM      8  O   UNL     1      49.903   8.615  16.119  0.00  0.00    +0.000 OA
ATOM      9  C   UNL     1      50.298   7.545  15.667  0.00  0.00    +0.000 C 
ATOM     10  N   UNL     1      50.571   7.383  14.323  0.00  0.00    +0.000 N 
ATOM     11  H   UNL     1      50.931   6.491  14.009  0.00  0.00    +0.000 HD
BRANCH   9  12
ATOM     12  C   UNL     1      50.502   6.374  16.496  0.00  0.00    +0.000 A 
ATOM     13  C   UNL     1      49.527   5.544  17.014  0.00  0.00    +0.000 A 
ATOM     14  N   UNL     1      49.977   4.485  17.781  0.00  0.00    +0.000 NA
ATOM     15  C   UNL     1      51.289   4.526  17.840  0.00  0.00    +0.000 A 
ATOM     16  S   UNL     1      52.045   5.811  16.993  0.00  0.00    +0.000 S 
ENDBRANCH   9  12
ENDBRANCH   7  10
ENDBRANCH   1   7
BRANCH   4  17
ATOM     17  C   UNL     1      45.698   8.221  11.909  0.00  0.00    +0.000 C 
BRANCH  17  18
ATOM     18  N   UNL     1      45.363   6.832  11.720  0.00  0.00    +0.000 N 
ATOM     19  C   UNL     1      44.115   6.381  11.376  0.00  0.00    +0.000 C 
ATOM     20  O   UNL     1      43.132   7.114  11.324  0.00  0.00    +0.000 OA
ATOM     21  H   UNL     1      46.152   6.202  11.632  0.00  0.00    +0.000 HD
BRANCH  19  22
ATOM     22  C   UNL     1      44.024   4.939  11.113  0.00  0.00    +0.000 A 
ATOM     23  C   UNL     1      43.241   4.125  11.917  0.00  0.00    +0.000 A 
ATOM     24  S   UNL     1      43.296   2.477  11.475  0.00  0.00    +0.000 S 
ATOM     25  C   UNL     1      44.328   2.804  10.161  0.00  0.00    +0.000 A 
ATOM     26  N   UNL     1      44.757   1.808   9.338  0.00  0.00    +0.000 NA
ATOM     27  C   UNL     1      45.498   2.207   8.359  0.00  0.00    +0.000 A 
ATOM     28  N   UNL     1      45.853   3.510   8.127  0.00  0.00    +0.000 N 
ATOM     29  C   UNL     1      45.502   4.536   8.968  0.00  0.00    +0.000 A 
ATOM     30  O   UNL     1      45.941   5.668   8.794  0.00  0.00    +0.000 OA
ATOM     31  C   UNL     1      44.640   4.148  10.071  0.00  0.00    +0.000 A 
ATOM     32  H   UNL     1      46.458   3.755   7.357  0.00  0.00    +0.000 HD
ENDBRANCH  19  22
ENDBRANCH  17  18
ENDBRANCH   4  17
TORSDOF 6
ENDMDL
MODEL 5
REMARK VINA RESULT:    -6.765      5.087      8.026
REMARK INTER + INTRA:          -9.612
REMARK INTER:                  -8.709
REMARK INTRA:                  -0.904
REMARK UNBOUND:                -0.474
REMARK  Name = 
REMARK  6 active torsions:
REMARK  status: ('A' for Active; 'I' for Inactive)
REMARK    1  A    between atoms: C_2  and  C_25
REMARK    2  A    between atoms: N_3  and  C_4
REMARK    3  A    between atoms: C_4  and  C_5
REMARK    4  A    between atoms: C_8  and  C_9
REMARK    5  A    between atoms: C_9  and  N_10
REMARK    6  A    between atoms: C_11  and  C_13
REMARK                            x       y       z     vdW  Elec       q    Type
REMARK                         _______ _______ _______ _____ _____    ______ ____
ROOT
ATOM      1  C   UNL     1      49.794   9.128  11.766  0.00  0.00    +0.000 C 
ATOM      2  C   UNL     1      49.129   7.785  11.413  0.00  0.00    +0.000 C 
ATOM      3  C   UNL     1      48.946   6.858  12.616  0.00  0.00    +0.000 C 
ATOM      4  C   UNL     1      48.258   7.528  13.820  0.00  0.00    +0.000 C 
ATOM      5  C   UNL     1      48.966   8.846  14.168  0.00  0.00    +0.000 C 
ATOM      6  C   UNL     1      49.090   9.784  12.966  0.00  0.00    +0.000 C 
ENDROOT
BRANCH   1   7
ATOM      7  C   UNL     1      51.305   8.994  12.032  0.00  0.00    +0.000 C 
BRANCH   7  10
ATOM      8  O   UNL     1      52.400   9.364   9.470  0.00  0.00    +0.000 OA
ATOM      9  C   UNL     1      52.428   8.236   9.952  0.00  0.00    +0.000 C 
ATOM     10  N   UNL     1      51.924   7.974  11.211  0.00  0.00    +0.000 N 
ATOM     11  H   UNL     1      51.935   7.019  11.545  0.00  0.00    +0.000 HD
BRANCH   9  12
ATOM     12  C   UNL     1      52.990   7.100   9.251  0.00  0.00    +0.000 A 
ATOM     13  C   UNL     1      53.714   6.059   9.802  0.00  0.00    +0.000 A 
ATOM     14  N   UNL     1      54.147   5.088   8.918  0.00  0.00    +0.000 NA
ATOM     15  C   UNL     1      53.750   5.403   7.707  0.00  0.00    +0.000 A 
ATOM     16  S   UNL     1      52.850   6.856   7.558  0.00  0.00    +0.000 S 
ENDBRANCH   9  12
ENDBRANCH   7  10
ENDBRANCH   1   7
BRANCH   4  17
ATOM     17  C   UNL     1      46.755   7.777  13.611  0.00  0.00    +0.000 C 
BRANCH  17  18
ATOM     18  N   UNL     1      46.045   6.600  13.178  0.00  0.00    +0.000 N 
ATOM     19  C   UNL     1      45.203   6.564  12.097  0.00  0.00    +0.000 C 
ATOM     20  O   UNL     1      44.873   7.568  11.474  0.00  0.00    +0.000 OA
ATOM     21  H   UNL     1      46.369   5.726  13.575  0.00  0.00    +0.000 HD
BRANCH  19  22
ATOM     22  C   UNL     1      44.681   5.233  11.758  0.00  0.00    +0.000 A 
ATOM     23  C   UNL     1      43.901   4.531  12.664  0.00  0.00    +0.000 A 
ATOM     24  S   UNL     1      43.424   2.992  12.101  0.00  0.00    +0.000 S 
ATOM     25  C   UNL     1      44.201   3.234  10.606  0.00  0.00    +0.000 A 
ATOM     26  N   UNL     1      44.166   2.283   9.633  0.00  0.00    +0.000 NA
ATOM     27  C   UNL     1      44.760   2.618   8.537  0.00  0.00    +0.000 A 
ATOM     28  N   UNL     1      45.388   3.817   8.323  0.00  0.00    +0.000 N 
ATOM     29  C   UNL     1      45.508   4.776   9.297  0.00  0.00    +0.000 A 
ATOM     30  O   UNL     1      46.183   5.784   9.107  0.00  0.00    +0.000 OA
ATOM     31  C   UNL     1      44.830   4.464  10.543  0.00  0.00    +0.000 A 
ATOM     32  H   UNL     1      45.858   4.010   7.451  0.00  0.00    +0.000 HD
ENDBRANCH  19  22
ENDBRANCH  17  18
ENDBRANCH   4  17
TORSDOF 6
ENDMDL
MODEL 6
REMARK VINA RESULT:    -6.685      4.715      8.366
REMARK INTER + INTRA:          -9.503
REMARK INTER:                  -8.932
REMARK INTRA:                  -0.571
REMARK UNBOUND:                -0.474
REMARK  Name = 
REMARK  6 active torsions:
REMARK  status: ('A' for Active; 'I' for Inactive)
REMARK    1  A    between atoms: C_2  and  C_25
REMARK    2  A    between atoms: N_3  and  C_4
REMARK    3  A    between atoms: C_4  and  C_5
REMARK    4  A    between atoms: C_8  and  C_9
REMARK    5  A    between atoms: C_9  and  N_10
REMARK    6  A    between atoms: C_11  and  C_13
REMARK                            x       y       z     vdW  Elec       q    Type
REMARK                         _______ _______ _______ _____ _____    ______ ____
ROOT
ATOM      1  C   UNL     1      45.242   6.385  11.735  0.00  0.00    +0.000 C 
ATOM      2  C   UNL     1      45.909   5.059  11.327  0.00  0.00    +0.000 C 
ATOM      3  C   UNL     1      45.699   3.931  12.339  0.00  0.00    +0.000 C 
ATOM      4  C   UNL     1      44.227   3.722  12.740  0.00  0.00    +0.000 C 
ATOM      5  C   UNL     1      43.601   5.056  13.176  0.00  0.00    +0.000 C 
ATOM      6  C   UNL     1      43.773   6.158  12.127  0.00  0.00    +0.000 C 
ENDROOT
BRANCH   1   7
ATOM      7  C   UNL     1      45.997   7.111  12.866  0.00  0.00    +0.000 C 
BRANCH   7  10
ATOM      8  O   UNL     1      48.680   6.278  12.945  0.00  0.00    +0.000 OA
ATOM      9  C   UNL     1      48.432   7.381  12.467  0.00  0.00    +0.000 C 
ATOM     10  N   UNL     1      47.138   7.857  12.379  0.00  0.00    +0.000 N 
ATOM     11  H   UNL     1      46.993   8.789  12.013  0.00  0.00    +0.000 HD
BRANCH   9  12
ATOM     12  C   UNL     1      49.463   8.262  11.956  0.00  0.00    +0.000 A 
ATOM     13  C   UNL     1      50.759   7.918  11.625  0.00  0.00    +0.000 A 
ATOM     14  N   UNL     1      51.558   8.945  11.156  0.00  0.00    +0.000 NA
ATOM     15  C   UNL     1      50.859  10.057  11.139  0.00  0.00    +0.000 A 
ATOM     16  S   UNL     1      49.234   9.939  11.674  0.00  0.00    +0.000 S 
ENDBRANCH   9  12
ENDBRANCH   7  10
ENDBRANCH   1   7
BRANCH   4  17
ATOM     17  C   UNL     1      43.373   3.076  11.637  0.00  0.00    +0.000 C 
BRANCH  17  18
ATOM     18  N   UNL     1      44.161   2.374  10.655  0.00  0.00    +0.000 N 
ATOM     19  C   UNL     1      44.409   2.840   9.390  0.00  0.00    +0.000 C 
ATOM     20  O   UNL     1      43.869   3.843   8.931  0.00  0.00    +0.000 OA
ATOM     21  H   UNL     1      44.723   1.611  11.013  0.00  0.00    +0.000 HD
BRANCH  19  22
ATOM     22  C   UNL     1      45.338   2.026   8.597  0.00  0.00    +0.000 A 
ATOM     23  C   UNL     1      45.265   0.642   8.628  0.00  0.00    +0.000 A 
ATOM     24  S   UNL     1      46.453  -0.124   7.670  0.00  0.00    +0.000 S 
ATOM     25  C   UNL     1      47.071   1.370   7.140  0.00  0.00    +0.000 A 
ATOM     26  N   UNL     1      48.115   1.431   6.268  0.00  0.00    +0.000 NA
ATOM     27  C   UNL     1      48.451   2.628   5.919  0.00  0.00    +0.000 A 
ATOM     28  N   UNL     1      47.841   3.771   6.363  0.00  0.00    +0.000 N 
ATOM     29  C   UNL     1      46.833   3.763   7.294  0.00  0.00    +0.000 A 
ATOM     30  O   UNL     1      46.397   4.811   7.758  0.00  0.00    +0.000 OA
ATOM     31  C   UNL     1      46.393   2.438   7.698  0.00  0.00    +0.000 A 
ATOM     32  H   UNL     1      48.168   4.681   6.072  0.00  0.00    +0.000 HD
ENDBRANCH  19  22
ENDBRANCH  17  18
ENDBRANCH   4  17
TORSDOF 6
ENDMDL
MODEL 7
REMARK VINA RESULT:    -6.600      3.255      9.256
REMARK INTER + INTRA:          -9.388
REMARK INTER:                  -8.439
REMARK INTRA:                  -0.949
REMARK UNBOUND:                -0.474
REMARK  Name = 
REMARK  6 active torsions:
REMARK  status: ('A' for Active; 'I' for Inactive)
REMARK    1  A    between atoms: C_2  and  C_25
REMARK    2  A    between atoms: N_3  and  C_4
REMARK    3  A    between atoms: C_4  and  C_5
REMARK    4  A    between atoms: C_8  and  C_9
REMARK    5  A    between atoms: C_9  and  N_10
REMARK    6  A    between atoms: C_11  and  C_13
REMARK                            x       y       z     vdW  Elec       q    Type
REMARK                         _______ _______ _______ _____ _____    ______ ____
ROOT
ATOM      1  C   UNL     1      48.561   8.495  15.107  0.00  0.00    +0.000 C 
ATOM      2  C   UNL     1      48.726   9.600  14.048  0.00  0.00    +0.000 C 
ATOM      3  C   UNL     1      49.551   9.167  12.835  0.00  0.00    +0.000 C 
ATOM      4  C   UNL     1      49.082   7.844  12.201  0.00  0.00    +0.000 C 
ATOM      5  C   UNL     1      48.962   6.755  13.278  0.00  0.00    +0.000 C 
ATOM      6  C   UNL     1      48.086   7.184  14.457  0.00  0.00    +0.000 C 
ENDROOT
BRANCH   1   7
ATOM      7  C   UNL     1      49.844   8.258  15.927  0.00  0.00    +0.000 C 
BRANCH   7  10
ATOM      8  O   UNL     1      50.596   5.619  16.536  0.00  0.00    +0.000 OA
ATOM      9  C   UNL     1      49.978   6.254  17.385  0.00  0.00    +0.000 C 
ATOM     10  N   UNL     1      49.585   7.560  17.169  0.00  0.00    +0.000 N 
ATOM     11  H   UNL     1      49.043   8.025  17.887  0.00  0.00    +0.000 HD
BRANCH   9  12
ATOM     12  C   UNL     1      49.619   5.693  18.672  0.00  0.00    +0.000 A 
ATOM     13  C   UNL     1      50.269   5.893  19.875  0.00  0.00    +0.000 A 
ATOM     14  N   UNL     1      49.731   5.243  20.970  0.00  0.00    +0.000 NA
ATOM     15  C   UNL     1      48.679   4.556  20.586  0.00  0.00    +0.000 A 
ATOM     16  S   UNL     1      48.282   4.646  18.920  0.00  0.00    +0.000 S 
ENDBRANCH   9  12
ENDBRANCH   7  10
ENDBRANCH   1   7
BRANCH   4  17
ATOM     17  C   UNL     1      47.759   7.967  11.428  0.00  0.00    +0.000 C 
BRANCH  17  18
ATOM     18  N   UNL     1      46.954   6.773  11.497  0.00  0.00    +0.000 N 
ATOM     19  C   UNL     1      45.598   6.770  11.691  0.00  0.00    +0.000 C 
ATOM     20  O   UNL     1      44.959   7.784  11.956  0.00  0.00    +0.000 OA
ATOM     21  H   UNL     1      47.403   5.927  11.168  0.00  0.00    +0.000 HD
BRANCH  19  22
ATOM     22  C   UNL     1      44.959   5.450  11.603  0.00  0.00    +0.000 A 
ATOM     23  C   UNL     1      44.244   4.941  12.676  0.00  0.00    +0.000 A 
ATOM     24  S   UNL     1      43.611   3.381  12.394  0.00  0.00    +0.000 S 
ATOM     25  C   UNL     1      44.228   3.355  10.808  0.00  0.00    +0.000 A 
ATOM     26  N   UNL     1      44.025   2.285   9.991  0.00  0.00    +0.000 NA
ATOM     27  C   UNL     1      44.512   2.421   8.802  0.00  0.00    +0.000 A 
ATOM     28  N   UNL     1      45.185   3.527   8.355  0.00  0.00    +0.000 N 
ATOM     29  C   UNL     1      45.473   4.598   9.162  0.00  0.00    +0.000 A 
ATOM     30  O   UNL     1      46.184   5.514   8.761  0.00  0.00    +0.000 OA
ATOM     31  C   UNL     1      44.921   4.513  10.503  0.00  0.00    +0.000 A 
ATOM     32  H   UNL     1      45.564   3.562   7.420  0.00  0.00    +0.000 HD
ENDBRANCH  19  22
ENDBRANCH  17  18
ENDBRANCH   4  17
TORSDOF 6
ENDMDL
MODEL 8
REMARK VINA RESULT:    -6.334      3.736      9.828
REMARK INTER + INTRA:          -9.030
REMARK INTER:                  -8.264
REMARK INTRA:                  -0.766
REMARK UNBOUND:                -0.474
REMARK  Name = 
REMARK  6 active torsions:
REMARK  status: ('A' for Active; 'I' for Inactive)
REMARK    1  A    between atoms: C_2  and  C_25
REMARK    2  A    between atoms: N_3  and  C_4
REMARK    3  A    between atoms: C_4  and  C_5
REMARK    4  A    between atoms: C_8  and  C_9
REMARK    5  A    between atoms: C_9  and  N_10
REMARK    6  A    between atoms: C_11  and  C_13
REMARK                            x       y       z     vdW  Elec       q    Type
REMARK                         _______ _______ _______ _____ _____    ______ ____
ROOT
ATOM      1  C   UNL     1      50.667   4.959  17.736  0.00  0.00    +0.000 C 
ATOM      2  C   UNL     1      50.210   3.521  18.043  0.00  0.00    +0.000 C 
ATOM      3  C   UNL     1      48.804   3.441  18.641  0.00  0.00    +0.000 C 
ATOM      4  C   UNL     1      47.740   4.211  17.839  0.00  0.00    +0.000 C 
ATOM      5  C   UNL     1      48.212   5.651  17.580  0.00  0.00    +0.000 C 
ATOM      6  C   UNL     1      49.595   5.710  16.929  0.00  0.00    +0.000 C 
ENDROOT
BRANCH   1   7
ATOM      7  C   UNL     1      51.043   5.749  19.004  0.00  0.00    +0.000 C 
BRANCH   7  10
ATOM      8  O   UNL     1      50.314   8.458  19.169  0.00  0.00    +0.000 OA
ATOM      9  C   UNL     1      51.456   8.189  18.808  0.00  0.00    +0.000 C 
ATOM     10  N   UNL     1      51.896   6.883  18.716  0.00  0.00    +0.000 N 
ATOM     11  H   UNL     1      52.834   6.715  18.376  0.00  0.00    +0.000 HD
BRANCH   9  12
ATOM     12  C   UNL     1      52.426   9.207  18.461  0.00  0.00    +0.000 A 
ATOM     13  C   UNL     1      52.340  10.117  17.426  0.00  0.00    +0.000 A 
ATOM     14  N   UNL     1      53.403  10.993  17.298  0.00  0.00    +0.000 NA
ATOM     15  C   UNL     1      54.285  10.736  18.237  0.00  0.00    +0.000 A 
ATOM     16  S   UNL     1      53.899   9.453  19.308  0.00  0.00    +0.000 S 
ENDBRANCH   9  12
ENDBRANCH   7  10
ENDBRANCH   1   7
BRANCH   4  17
ATOM     17  C   UNL     1      47.361   3.536  16.511  0.00  0.00    +0.000 C 
BRANCH  17  18
ATOM     18  N   UNL     1      46.850   4.464  15.534  0.00  0.00    +0.000 N 
ATOM     19  C   UNL     1      46.749   4.193  14.194  0.00  0.00    +0.000 C 
ATOM     20  O   UNL     1      47.210   3.177  13.682  0.00  0.00    +0.000 OA
ATOM     21  H   UNL     1      46.349   5.260  15.910  0.00  0.00    +0.000 HD
BRANCH  19  22
ATOM     22  C   UNL     1      46.085   5.232  13.396  0.00  0.00    +0.000 A 
ATOM     23  C   UNL     1      46.736   6.420  13.105  0.00  0.00    +0.000 A 
ATOM     24  S   UNL     1      45.785   7.514  12.202  0.00  0.00    +0.000 S 
ATOM     25  C   UNL     1      44.489   6.413  12.124  0.00  0.00    +0.000 A 
ATOM     26  N   UNL     1      43.340   6.724  11.465  0.00  0.00    +0.000 NA
ATOM     27  C   UNL     1      42.460   5.779  11.451  0.00  0.00    +0.000 A 
ATOM     28  N   UNL     1      42.622   4.551  12.036  0.00  0.00    +0.000 N 
ATOM     29  C   UNL     1      43.733   4.219  12.769  0.00  0.00    +0.000 A 
ATOM     30  O   UNL     1      43.787   3.156  13.381  0.00  0.00    +0.000 OA
ATOM     31  C   UNL     1      44.771   5.235  12.792  0.00  0.00    +0.000 A 
ATOM     32  H   UNL     1      41.884   3.862  12.012  0.00  0.00    +0.000 HD
ENDBRANCH  19  22
ENDBRANCH  17  18
ENDBRANCH   4  17
TORSDOF 6
ENDMDL
MODEL 9
REMARK VINA RESULT:    -6.333      2.376      9.195
REMARK INTER + INTRA:          -9.028
REMARK INTER:                  -8.605
REMARK INTRA:                  -0.423
REMARK UNBOUND:                -0.474
REMARK  Name = 
REMARK  6 active torsions:
REMARK  status: ('A' for Active; 'I' for Inactive)
REMARK    1  A    between atoms: C_2  and  C_25
REMARK    2  A    between atoms: N_3  and  C_4
REMARK    3  A    between atoms: C_4  and  C_5
REMARK    4  A    between atoms: C_8  and  C_9
REMARK    5  A    between atoms: C_9  and  N_10
REMARK    6  A    between atoms: C_11  and  C_13
REMARK                            x       y       z     vdW  Elec       q    Type
REMARK                         _______ _______ _______ _____ _____    ______ ____
ROOT
ATOM      1  C   UNL     1      47.020   4.425  13.743  0.00  0.00    +0.000 C 
ATOM      2  C   UNL     1      45.792   3.905  12.974  0.00  0.00    +0.000 C 
ATOM      3  C   UNL     1      44.632   4.901  12.929  0.00  0.00    +0.000 C 
ATOM      4  C   UNL     1      45.037   6.310  12.458  0.00  0.00    +0.000 C 
ATOM      5  C   UNL     1      46.242   6.813  13.269  0.00  0.00    +0.000 C 
ATOM      6  C   UNL     1      47.414   5.829  13.256  0.00  0.00    +0.000 C 
ENDROOT
BRANCH   1   7
ATOM      7  C   UNL     1      46.814   4.421  15.270  0.00  0.00    +0.000 C 
BRANCH   7  10
ATOM      8  O   UNL     1      47.025   4.741  18.055  0.00  0.00    +0.000 OA
ATOM      9  C   UNL     1      47.906   5.223  17.349  0.00  0.00    +0.000 C 
ATOM     10  N   UNL     1      47.883   5.097  15.975  0.00  0.00    +0.000 N 
ATOM     11  H   UNL     1      48.614   5.547  15.438  0.00  0.00    +0.000 HD
BRANCH   9  12
ATOM     12  C   UNL     1      49.034   5.950  17.896  0.00  0.00    +0.000 A 
ATOM     13  C   UNL     1      49.045   6.730  19.037  0.00  0.00    +0.000 A 
ATOM     14  N   UNL     1      50.253   7.326  19.352  0.00  0.00    +0.000 NA
ATOM     15  C   UNL     1      51.143   6.994  18.446  0.00  0.00    +0.000 A 
ATOM     16  S   UNL     1      50.597   5.967  17.186  0.00  0.00    +0.000 S 
ENDBRANCH   9  12
ENDBRANCH   7  10
ENDBRANCH   1   7
BRANCH   4  17
ATOM     17  C   UNL     1      45.345   6.392  10.954  0.00  0.00    +0.000 C 
BRANCH  17  18
ATOM     18  N   UNL     1      45.555   5.099  10.352  0.00  0.00    +0.000 N 
ATOM     19  C   UNL     1      44.601   4.416   9.644  0.00  0.00    +0.000 C 
ATOM     20  O   UNL     1      43.433   4.785   9.569  0.00  0.00    +0.000 OA
ATOM     21  H   UNL     1      46.521   4.805  10.279  0.00  0.00    +0.000 HD
BRANCH  19  22
ATOM     22  C   UNL     1      45.064   3.174   9.011  0.00  0.00    +0.000 A 
ATOM     23  C   UNL     1      44.451   1.965   9.301  0.00  0.00    +0.000 A 
ATOM     24  S   UNL     1      45.157   0.634   8.497  0.00  0.00    +0.000 S 
ATOM     25  C   UNL     1      46.273   1.638   7.694  0.00  0.00    +0.000 A 
ATOM     26  N   UNL     1      47.182   1.123   6.821  0.00  0.00    +0.000 NA
ATOM     27  C   UNL     1      47.936   2.005   6.253  0.00  0.00    +0.000 A 
ATOM     28  N   UNL     1      47.867   3.354   6.479  0.00  0.00    +0.000 N 
ATOM     29  C   UNL     1      47.016   3.911   7.400  0.00  0.00    +0.000 A 
ATOM     30  O   UNL     1      47.070   5.108   7.662  0.00  0.00    +0.000 OA
ATOM     31  C   UNL     1      46.121   2.967   8.047  0.00  0.00    +0.000 A 
ATOM     32  H   UNL     1      48.503   3.991   6.021  0.00  0.00    +0.000 HD
ENDBRANCH  19  22
ENDBRANCH  17  18
ENDBRANCH   4  17
TORSDOF 6
ENDMDL
