MODEL 1
REMARK VINA RESULT:    -7.423      0.000      0.000
REMARK INTER + INTRA:         -10.503
REMARK INTER:                 -10.027
REMARK INTRA:                  -0.476
REMARK UNBOUND:                -0.476
REMARK  Name = 
REMARK  6 active torsions:
REMARK  status: ('A' for Active; 'I' for Inactive)
REMARK    1  A    between atoms: C_5  and  O_6
REMARK    2  A    between atoms: O_6  and  C_7
REMARK    3  A    between atoms: C_7  and  C_8
REMARK    4  A    between atoms: C_8  and  C_9
REMARK    5  A    between atoms: C_13  and  O_14
REMARK    6  A    between atoms: O_14  and  C_15
REMARK                            x       y       z     vdW  Elec       q    Type
REMARK                         _______ _______ _______ _____ _____    ______ ____
ROOT
ATOM      1  C   UNL     1      45.226   3.989  12.209  0.00  0.00    +0.000 A 
ATOM      2  C   UNL     1      45.570   5.292  11.851  0.00  0.00    +0.000 A 
ATOM      3  N   UNL     1      46.531   5.998  12.496  0.00  0.00    +0.000 NA
ATOM      4  C   UNL     1      47.143   5.344  13.512  0.00  0.00    +0.000 A 
ATOM      5  C   UNL     1      46.804   4.052  13.880  0.00  0.00    +0.000 A 
ATOM      6  N   UNL     1      45.841   3.352  13.244  0.00  0.00    +0.000 NA
ENDROOT
BRANCH   1   7
ATOM      7  C   UNL     1      44.149   3.262  11.445  0.00  0.00    +0.000 C 
BRANCH   7   8
ATOM      8  C   UNL     1      44.367   3.340   9.938  0.00  0.00    +0.000 C 
BRANCH   8   9
ATOM      9  O   UNL     1      44.933   2.116   9.463  0.00  0.00    +0.000 OA
BRANCH   9  14
ATOM     10  C   UNL     1      46.747   3.344   6.472  0.00  0.00    +0.000 A 
ATOM     11  C   UNL     1      47.396   2.159   6.173  0.00  0.00    +0.000 A 
ATOM     12  N   UNL     1      47.256   1.029   6.898  0.00  0.00    +0.000 NA
ATOM     13  C   UNL     1      46.427   1.095   7.968  0.00  0.00    +0.000 A 
ATOM     14  C   UNL     1      45.727   2.233   8.355  0.00  0.00    +0.000 A 
ATOM     15  C   UNL     1      45.901   3.379   7.578  0.00  0.00    +0.000 A 
ENDBRANCH   9  14
ENDBRANCH   8   9
ENDBRANCH   7   8
ENDBRANCH   1   7
BRANCH   5  16
ATOM     16  O   UNL     1      47.498   3.455  14.911  0.00  0.00    +0.000 OA
BRANCH  16  17
ATOM     17  C   UNL     1      47.194   3.949  16.236  0.00  0.00    +0.000 C 
ATOM     18  C   UNL     1      48.368   4.628  16.980  0.00  0.00    +0.000 C 
ATOM     19  N   UNL     1      47.903   4.005  18.241  0.00  0.00    +0.000 NA
ATOM     20  C   UNL     1      47.219   2.966  17.429  0.00  0.00    +0.000 C 
ATOM     21  H   UNL     1      47.259   4.598  18.766  0.00  0.00    +0.000 HD
ENDBRANCH  16  17
ENDBRANCH   5  16
TORSDOF 6
ENDMDL
MODEL 2
REMARK VINA RESULT:    -7.087      1.979      7.773
REMARK INTER + INTRA:         -10.049
REMARK INTER:                  -9.548
REMARK INTRA:                  -0.501
REMARK UNBOUND:                -0.476
REMARK  Name = 
REMARK  6 active torsions:
REMARK  status: ('A' for Active; 'I' for Inactive)
REMARK    1  A    between atoms: C_5  and  O_6
REMARK    2  A    between atoms: O_6  and  C_7
REMARK    3  A    between atoms: C_7  and  C_8
REMARK    4  A    between atoms: C_8  and  C_9
REMARK    5  A    between atoms: C_13  and  O_14
REMARK    6  A    between atoms: O_14  and  C_15
REMARK                            x       y       z     vdW  Elec       q    Type
REMARK                         _______ _______ _______ _____ _____    ______ ____
ROOT
ATOM      1  C   UNL     1      45.233   4.963  10.129  0.00  0.00    +0.000 A 
ATOM      2  C   UNL     1      44.503   4.003  10.828  0.00  0.00    +0.000 A 
ATOM      3  N   UNL     1      44.132   2.821  10.276  0.00  0.00    +0.000 NA
ATOM      4  C   UNL     1      44.532   2.633   8.995  0.00  0.00    +0.000 A 
ATOM      5  C   UNL     1      45.252   3.583   8.291  0.00  0.00    +0.000 A 
ATOM      6  N   UNL     1      45.613   4.764   8.836  0.00  0.00    +0.000 NA
ENDROOT
BRANCH   1   7
ATOM      7  C   UNL     1      45.614   6.254  10.807  0.00  0.00    +0.000 C 
BRANCH   7   8
ATOM      8  C   UNL     1      45.766   6.085  12.315  0.00  0.00    +0.000 C 
BRANCH   8   9
ATOM      9  O   UNL     1      47.147   6.152  12.676  0.00  0.00    +0.000 OA
BRANCH   9  14
ATOM     10  C   UNL     1      48.498   5.832  16.113  0.00  0.00    +0.000 A 
ATOM     11  C   UNL     1      47.823   4.672  16.449  0.00  0.00    +0.000 A 
ATOM     12  N   UNL     1      46.979   4.031  15.614  0.00  0.00    +0.000 NA
ATOM     13  C   UNL     1      46.808   4.581  14.387  0.00  0.00    +0.000 A 
ATOM     14  C   UNL     1      47.437   5.741  13.948  0.00  0.00    +0.000 A 
ATOM     15  C   UNL     1      48.301   6.372  14.844  0.00  0.00    +0.000 A 
ENDBRANCH   9  14
ENDBRANCH   8   9
ENDBRANCH   7   8
ENDBRANCH   1   7
BRANCH   5  16
ATOM     16  O   UNL     1      45.639   3.295   6.998  0.00  0.00    +0.000 OA
BRANCH  16  17
ATOM     17  C   UNL     1      47.047   3.016   6.816  0.00  0.00    +0.000 C 
ATOM     18  C   UNL     1      47.489   2.744   5.358  0.00  0.00    +0.000 C 
ATOM     19  N   UNL     1      48.415   1.701   5.856  0.00  0.00    +0.000 NA
ATOM     20  C   UNL     1      47.568   1.583   7.069  0.00  0.00    +0.000 C 
ATOM     21  H   UNL     1      49.353   2.057   6.048  0.00  0.00    +0.000 HD
ENDBRANCH  16  17
ENDBRANCH   5  16
TORSDOF 6
ENDMDL
MODEL 3
REMARK VINA RESULT:    -6.993      2.564      7.288
REMARK INTER + INTRA:          -9.921
REMARK INTER:                  -9.371
REMARK INTRA:                  -0.550
REMARK UNBOUND:                -0.476
REMARK  Name = 
REMARK  6 active torsions:
REMARK  status: ('A' for Active; 'I' for Inactive)
REMARK    1  A    between atoms: C_5  and  O_6
REMARK    2  A    between atoms: O_6  and  C_7
REMARK    3  A    between atoms: C_7  and  C_8
REMARK    4  A    between atoms: C_8  and  C_9
REMARK    5  A    between atoms: C_13  and  O_14
REMARK    6  A    between atoms: O_14  and  C_15
REMARK                            x       y       z     vdW  Elec       q    Type
REMARK                         _______ _______ _______ _____ _____    ______ ____
ROOT
ATOM      1  C   UNL     1      44.037   4.212  10.107  0.00  0.00    +0.000 A 
ATOM      2  C   UNL     1      43.878   2.876  10.471  0.00  0.00    +0.000 A 
ATOM      3  N   UNL     1      44.461   1.858   9.790  0.00  0.00    +0.000 NA
ATOM      4  C   UNL     1      45.220   2.233   8.732  0.00  0.00    +0.000 A 
ATOM      5  C   UNL     1      45.379   3.557   8.359  0.00  0.00    +0.000 A 
ATOM      6  N   UNL     1      44.791   4.570   9.031  0.00  0.00    +0.000 NA
ENDROOT
BRANCH   1   7
ATOM      7  C   UNL     1      43.362   5.293  10.912  0.00  0.00    +0.000 C 
BRANCH   7   8
ATOM      8  C   UNL     1      43.196   4.897  12.375  0.00  0.00    +0.000 C 
BRANCH   8   9
ATOM      9  O   UNL     1      43.775   5.895  13.219  0.00  0.00    +0.000 OA
BRANCH   9  14
ATOM     10  C   UNL     1      47.223   7.114  12.610  0.00  0.00    +0.000 A 
ATOM     11  C   UNL     1      47.880   5.981  13.056  0.00  0.00    +0.000 A 
ATOM     12  N   UNL     1      47.246   4.888  13.528  0.00  0.00    +0.000 NA
ATOM     13  C   UNL     1      45.892   4.936  13.550  0.00  0.00    +0.000 A 
ATOM     14  C   UNL     1      45.133   6.022  13.125  0.00  0.00    +0.000 A 
ATOM     15  C   UNL     1      45.830   7.132  12.645  0.00  0.00    +0.000 A 
ENDBRANCH   9  14
ENDBRANCH   8   9
ENDBRANCH   7   8
ENDBRANCH   1   7
BRANCH   5  16
ATOM     16  O   UNL     1      46.191   3.848   7.283  0.00  0.00    +0.000 OA
BRANCH  16  17
ATOM     17  C   UNL     1      46.701   2.704   6.559  0.00  0.00    +0.000 C 
ATOM     18  C   UNL     1      48.193   2.374   6.797  0.00  0.00    +0.000 C 
ATOM     19  N   UNL     1      48.324   2.025   5.364  0.00  0.00    +0.000 NA
ATOM     20  C   UNL     1      47.143   2.881   5.089  0.00  0.00    +0.000 C 
ATOM     21  H   UNL     1      48.161   1.035   5.177  0.00  0.00    +0.000 HD
ENDBRANCH  16  17
ENDBRANCH   5  16
TORSDOF 6
ENDMDL
MODEL 4
REMARK VINA RESULT:    -6.838      2.550      4.102
REMARK INTER + INTRA:          -9.712
REMARK INTER:                  -8.989
REMARK INTRA:                  -0.723
REMARK UNBOUND:                -0.476
REMARK  Name = 
REMARK  6 active torsions:
REMARK  status: ('A' for Active; 'I' for Inactive)
REMARK    1  A    between atoms: C_5  and  O_6
REMARK    2  A    between atoms: O_6  and  C_7
REMARK    3  A    between atoms: C_7  and  C_8
REMARK    4  A    between atoms: C_8  and  C_9
REMARK    5  A    between atoms: C_13  and  O_14
REMARK    6  A    between atoms: O_14  and  C_15
REMARK                            x       y       z     vdW  Elec       q    Type
REMARK                         _______ _______ _______ _____ _____    ______ ____
ROOT
ATOM      1  C   UNL     1      45.618   4.242  12.572  0.00  0.00    +0.000 A 
ATOM      2  C   UNL     1      46.489   3.905  13.607  0.00  0.00    +0.000 A 
ATOM      3  N   UNL     1      47.524   4.698  13.980  0.00  0.00    +0.000 NA
ATOM      4  C   UNL     1      47.648   5.851  13.280  0.00  0.00    +0.000 A 
ATOM      5  C   UNL     1      46.792   6.192  12.246  0.00  0.00    +0.000 A 
ATOM      6  N   UNL     1      45.767   5.398  11.868  0.00  0.00    +0.000 NA
ENDROOT
BRANCH   1   7
ATOM      7  C   UNL     1      44.487   3.314  12.213  0.00  0.00    +0.000 C 
BRANCH   7   8
ATOM      8  C   UNL     1      43.811   3.717  10.906  0.00  0.00    +0.000 C 
BRANCH   8   9
ATOM      9  O   UNL     1      43.892   2.645   9.964  0.00  0.00    +0.000 OA
BRANCH   9  14
ATOM     10  C   UNL     1      46.684   1.995   7.615  0.00  0.00    +0.000 A 
ATOM     11  C   UNL     1      46.825   3.294   7.162  0.00  0.00    +0.000 A 
ATOM     12  N   UNL     1      46.060   4.321   7.589  0.00  0.00    +0.000 NA
ATOM     13  C   UNL     1      45.115   4.026   8.514  0.00  0.00    +0.000 A 
ATOM     14  C   UNL     1      44.890   2.757   9.037  0.00  0.00    +0.000 A 
ATOM     15  C   UNL     1      45.703   1.725   8.567  0.00  0.00    +0.000 A 
ENDBRANCH   9  14
ENDBRANCH   8   9
ENDBRANCH   7   8
ENDBRANCH   1   7
BRANCH   5  16
ATOM     16  O   UNL     1      46.978   7.398  11.605  0.00  0.00    +0.000 OA
BRANCH  16  17
ATOM     17  C   UNL     1      46.823   8.575  12.432  0.00  0.00    +0.000 C 
ATOM     18  C   UNL     1      45.453   9.286  12.331  0.00  0.00    +0.000 C 
ATOM     19  N   UNL     1      46.147  10.592  12.422  0.00  0.00    +0.000 NA
ATOM     20  C   UNL     1      47.379   9.927  11.928  0.00  0.00    +0.000 C 
ATOM     21  H   UNL     1      46.227  10.936  13.380  0.00  0.00    +0.000 HD
ENDBRANCH  16  17
ENDBRANCH   5  16
TORSDOF 6
ENDMDL
MODEL 5
REMARK VINA RESULT:    -6.575      2.198      3.347
REMARK INTER + INTRA:          -9.357
REMARK INTER:                  -8.861
REMARK INTRA:                  -0.496
REMARK UNBOUND:                -0.476
REMARK  Name = 
REMARK  6 active torsions:
REMARK  status: ('A' for Active; 'I' for Inactive)
REMARK    1  A    between atoms: C_5  and  O_6
REMARK    2  A    between atoms: O_6  and  C_7
REMARK    3  A    between atoms: C_7  and  C_8
REMARK    4  A    between atoms: C_8  and  C_9
REMARK    5  A    between atoms: C_13  and  O_14
REMARK    6  A    between atoms: O_14  and  C_15
REMARK                            x       y       z     vdW  Elec       q    Type
REMARK                         _______ _______ _______ _____ _____    ______ ____
ROOT
ATOM      1  C   UNL     1      45.338   5.158  11.837  0.00  0.00    +0.000 A 
ATOM      2  C   UNL     1      45.203   4.136  12.776  0.00  0.00    +0.000 A 
ATOM      3  N   UNL     1      46.018   4.021  13.853  0.00  0.00    +0.000 NA
ATOM      4  C   UNL     1      46.970   4.978  13.961  0.00  0.00    +0.000 A 
ATOM      5  C   UNL     1      47.116   5.994  13.030  0.00  0.00    +0.000 A 
ATOM      6  N   UNL     1      46.311   6.103  11.952  0.00  0.00    +0.000 NA
ENDROOT
BRANCH   1   7
ATOM      7  C   UNL     1      44.395   5.226  10.663  0.00  0.00    +0.000 C 
BRANCH   7   8
ATOM      8  C   UNL     1      44.297   3.893   9.930  0.00  0.00    +0.000 C 
BRANCH   8   9
ATOM      9  O   UNL     1      44.583   4.077   8.542  0.00  0.00    +0.000 OA
BRANCH   9  14
ATOM     10  C   UNL     1      47.274   2.494   6.544  0.00  0.00    +0.000 A 
ATOM     11  C   UNL     1      47.242   1.261   7.171  0.00  0.00    +0.000 A 
ATOM     12  N   UNL     1      46.401   0.959   8.182  0.00  0.00    +0.000 NA
ATOM     13  C   UNL     1      45.554   1.941   8.578  0.00  0.00    +0.000 A 
ATOM     14  C   UNL     1      45.502   3.213   8.016  0.00  0.00    +0.000 A 
ATOM     15  C   UNL     1      46.390   3.482   6.974  0.00  0.00    +0.000 A 
ENDBRANCH   9  14
ENDBRANCH   8   9
ENDBRANCH   7   8
ENDBRANCH   1   7
BRANCH   5  16
ATOM     16  O   UNL     1      48.098   6.940  13.234  0.00  0.00    +0.000 OA
BRANCH  16  17
ATOM     17  C   UNL     1      47.652   8.186  13.819  0.00  0.00    +0.000 C 
ATOM     18  C   UNL     1      47.739   9.426  12.898  0.00  0.00    +0.000 C 
ATOM     19  N   UNL     1      48.162  10.237  14.063  0.00  0.00    +0.000 NA
ATOM     20  C   UNL     1      48.625   8.986  14.715  0.00  0.00    +0.000 C 
ATOM     21  H   UNL     1      47.379  10.681  14.545  0.00  0.00    +0.000 HD
ENDBRANCH  16  17
ENDBRANCH   5  16
TORSDOF 6
ENDMDL
MODEL 6
REMARK VINA RESULT:    -6.373      2.248      2.581
REMARK INTER + INTRA:          -9.085
REMARK INTER:                  -8.530
REMARK INTRA:                  -0.554
REMARK UNBOUND:                -0.476
REMARK  Name = 
REMARK  6 active torsions:
REMARK  status: ('A' for Active; 'I' for Inactive)
REMARK    1  A    between atoms: C_5  and  O_6
REMARK    2  A    between atoms: O_6  and  C_7
REMARK    3  A    between atoms: C_7  and  C_8
REMARK    4  A    between atoms: C_8  and  C_9
REMARK    5  A    between atoms: C_13  and  O_14
REMARK    6  A    between atoms: O_14  and  C_15
REMARK                            x       y       z     vdW  Elec       q    Type
REMARK                         _______ _______ _______ _____ _____    ______ ____
ROOT
ATOM      1  C   UNL     1      44.894   4.694  12.273  0.00  0.00    +0.000 A 
ATOM      2  C   UNL     1      44.408   5.956  11.934  0.00  0.00    +0.000 A 
ATOM      3  N   UNL     1      45.051   7.102  12.267  0.00  0.00    +0.000 NA
ATOM      4  C   UNL     1      46.210   6.935  12.947  0.00  0.00    +0.000 A 
ATOM      5  C   UNL     1      46.699   5.686  13.295  0.00  0.00    +0.000 A 
ATOM      6  N   UNL     1      46.054   4.545  12.972  0.00  0.00    +0.000 NA
ENDROOT
BRANCH   1   7
ATOM      7  C   UNL     1      44.128   3.461  11.868  0.00  0.00    +0.000 C 
BRANCH   7   8
ATOM      8  C   UNL     1      43.802   3.456  10.378  0.00  0.00    +0.000 C 
BRANCH   8   9
ATOM      9  O   UNL     1      44.344   2.284   9.765  0.00  0.00    +0.000 OA
BRANCH   9  14
ATOM     10  C   UNL     1      47.048   1.952   7.251  0.00  0.00    +0.000 A 
ATOM     11  C   UNL     1      47.076   3.280   6.862  0.00  0.00    +0.000 A 
ATOM     12  N   UNL     1      46.267   4.227   7.381  0.00  0.00    +0.000 NA
ATOM     13  C   UNL     1      45.393   3.820   8.334  0.00  0.00    +0.000 A 
ATOM     14  C   UNL     1      45.283   2.513   8.798  0.00  0.00    +0.000 A 
ATOM     15  C   UNL     1      46.138   1.566   8.233  0.00  0.00    +0.000 A 
ENDBRANCH   9  14
ENDBRANCH   8   9
ENDBRANCH   7   8
ENDBRANCH   1   7
BRANCH   5  16
ATOM     16  O   UNL     1      47.901   5.610  13.966  0.00  0.00    +0.000 OA
BRANCH  16  17
ATOM     17  C   UNL     1      48.403   6.862  14.491  0.00  0.00    +0.000 C 
ATOM     18  C   UNL     1      49.706   7.383  13.840  0.00  0.00    +0.000 C 
ATOM     19  N   UNL     1      50.163   7.844  15.172  0.00  0.00    +0.000 NA
ATOM     20  C   UNL     1      49.247   6.849  15.786  0.00  0.00    +0.000 C 
ATOM     21  H   UNL     1      49.904   8.811  15.371  0.00  0.00    +0.000 HD
ENDBRANCH  16  17
ENDBRANCH   5  16
TORSDOF 6
ENDMDL
MODEL 7
REMARK VINA RESULT:    -6.238      1.915      2.642
REMARK INTER + INTRA:          -8.902
REMARK INTER:                  -8.420
REMARK INTRA:                  -0.482
REMARK UNBOUND:                -0.476
REMARK  Name = 
REMARK  6 active torsions:
REMARK  status: ('A' for Active; 'I' for Inactive)
REMARK    1  A    between atoms: C_5  and  O_6
REMARK    2  A    between atoms: O_6  and  C_7
REMARK    3  A    between atoms: C_7  and  C_8
REMARK    4  A    between atoms: C_8  and  C_9
REMARK    5  A    between atoms: C_13  and  O_14
REMARK    6  A    between atoms: O_14  and  C_15
REMARK                            x       y       z     vdW  Elec       q    Type
REMARK                         _______ _______ _______ _____ _____    ______ ____
ROOT
ATOM      1  C   UNL     1      46.065   5.488  12.042  0.00  0.00    +0.000 A 
ATOM      2  C   UNL     1      45.495   4.485  12.825  0.00  0.00    +0.000 A 
ATOM      3  N   UNL     1      45.990   4.134  14.038  0.00  0.00    +0.000 NA
ATOM      4  C   UNL     1      47.074   4.836  14.443  0.00  0.00    +0.000 A 
ATOM      5  C   UNL     1      47.652   5.830  13.670  0.00  0.00    +0.000 A 
ATOM      6  N   UNL     1      47.166   6.174  12.458  0.00  0.00    +0.000 NA
ENDROOT
BRANCH   1   7
ATOM      7  C   UNL     1      45.461   5.829  10.704  0.00  0.00    +0.000 C 
BRANCH   7   8
ATOM      8  C   UNL     1      44.908   4.597   9.997  0.00  0.00    +0.000 C 
BRANCH   8   9
ATOM      9  O   UNL     1      45.274   4.622   8.615  0.00  0.00    +0.000 OA
BRANCH   9  14
ATOM     10  C   UNL     1      46.347   1.127   8.002  0.00  0.00    +0.000 A 
ATOM     11  C   UNL     1      47.300   1.412   7.041  0.00  0.00    +0.000 A 
ATOM     12  N   UNL     1      47.578   2.661   6.613  0.00  0.00    +0.000 NA
ATOM     13  C   UNL     1      46.868   3.667   7.180  0.00  0.00    +0.000 A 
ATOM     14  C   UNL     1      45.890   3.491   8.154  0.00  0.00    +0.000 A 
ATOM     15  C   UNL     1      45.634   2.183   8.567  0.00  0.00    +0.000 A 
ENDBRANCH   9  14
ENDBRANCH   8   9
ENDBRANCH   7   8
ENDBRANCH   1   7
BRANCH   5  16
ATOM     16  O   UNL     1      48.740   6.511  14.175  0.00  0.00    +0.000 OA
BRANCH  16  17
ATOM     17  C   UNL     1      48.855   6.524  15.617  0.00  0.00    +0.000 C 
ATOM     18  C   UNL     1      48.777   7.919  16.280  0.00  0.00    +0.000 C 
ATOM     19  N   UNL     1      49.819   7.497  17.244  0.00  0.00    +0.000 NA
ATOM     20  C   UNL     1      50.259   6.476  16.259  0.00  0.00    +0.000 C 
ATOM     21  H   UNL     1      49.433   7.097  18.100  0.00  0.00    +0.000 HD
ENDBRANCH  16  17
ENDBRANCH   5  16
TORSDOF 6
ENDMDL
MODEL 8
REMARK VINA RESULT:    -5.909      3.412      4.511
REMARK INTER + INTRA:          -8.458
REMARK INTER:                  -7.761
REMARK INTRA:                  -0.697
REMARK UNBOUND:                -0.476
REMARK  Name = 
REMARK  6 active torsions:
REMARK  status: ('A' for Active; 'I' for Inactive)
REMARK    1  A    between atoms: C_5  and  O_6
REMARK    2  A    between atoms: O_6  and  C_7
REMARK    3  A    between atoms: C_7  and  C_8
REMARK    4  A    between atoms: C_8  and  C_9
REMARK    5  A    between atoms: C_13  and  O_14
REMARK    6  A    between atoms: O_14  and  C_15
REMARK                            x       y       z     vdW  Elec       q    Type
REMARK                         _______ _______ _______ _____ _____    ______ ____
ROOT
ATOM      1  C   UNL     1      48.156   7.139  13.341  0.00  0.00    +0.000 A 
ATOM      2  C   UNL     1      48.755   8.355  13.664  0.00  0.00    +0.000 A 
ATOM      3  N   UNL     1      49.409   8.562  14.834  0.00  0.00    +0.000 NA
ATOM      4  C   UNL     1      49.448   7.495  15.667  0.00  0.00    +0.000 A 
ATOM      5  C   UNL     1      48.852   6.284  15.359  0.00  0.00    +0.000 A 
ATOM      6  N   UNL     1      48.192   6.081  14.199  0.00  0.00    +0.000 NA
ENDROOT
BRANCH   1   7
ATOM      7  C   UNL     1      47.448   6.978  12.020  0.00  0.00    +0.000 C 
BRANCH   7   8
ATOM      8  C   UNL     1      46.027   7.528  12.064  0.00  0.00    +0.000 C 
BRANCH   8   9
ATOM      9  O   UNL     1      45.216   6.718  12.920  0.00  0.00    +0.000 OA
BRANCH   9  14
ATOM     10  C   UNL     1      43.753   4.266  10.556  0.00  0.00    +0.000 A 
ATOM     11  C   UNL     1      43.661   3.212  11.446  0.00  0.00    +0.000 A 
ATOM     12  N   UNL     1      44.051   3.288  12.736  0.00  0.00    +0.000 NA
ATOM     13  C   UNL     1      44.554   4.478  13.147  0.00  0.00    +0.000 A 
ATOM     14  C   UNL     1      44.689   5.600  12.335  0.00  0.00    +0.000 A 
ATOM     15  C   UNL     1      44.274   5.477  11.009  0.00  0.00    +0.000 A 
ENDBRANCH   9  14
ENDBRANCH   8   9
ENDBRANCH   7   8
ENDBRANCH   1   7
BRANCH   5  16
ATOM     16  O   UNL     1      48.964   5.244  16.258  0.00  0.00    +0.000 OA
BRANCH  16  17
ATOM     17  C   UNL     1      47.790   4.410  16.397  0.00  0.00    +0.000 C 
ATOM     18  C   UNL     1      47.078   4.484  17.768  0.00  0.00    +0.000 C 
ATOM     19  N   UNL     1      46.823   3.027  17.691  0.00  0.00    +0.000 NA
ATOM     20  C   UNL     1      47.967   2.916  16.752  0.00  0.00    +0.000 C 
ATOM     21  H   UNL     1      45.924   2.801  17.265  0.00  0.00    +0.000 HD
ENDBRANCH  16  17
ENDBRANCH   5  16
TORSDOF 6
ENDMDL
MODEL 9
REMARK VINA RESULT:    -5.864      2.662      6.923
REMARK INTER + INTRA:          -8.397
REMARK INTER:                  -7.892
REMARK INTRA:                  -0.505
REMARK UNBOUND:                -0.476
REMARK  Name = 
REMARK  6 active torsions:
REMARK  status: ('A' for Active; 'I' for Inactive)
REMARK    1  A    between atoms: C_5  and  O_6
REMARK    2  A    between atoms: O_6  and  C_7
REMARK    3  A    between atoms: C_7  and  C_8
REMARK    4  A    between atoms: C_8  and  C_9
REMARK    5  A    between atoms: C_13  and  O_14
REMARK    6  A    between atoms: O_14  and  C_15
REMARK                            x       y       z     vdW  Elec       q    Type
REMARK                         _______ _______ _______ _____ _____    ______ ____
ROOT
ATOM      1  C   UNL     1      45.308   3.998  12.765  0.00  0.00    +0.000 A 
ATOM      2  C   UNL     1      44.190   4.669  13.259  0.00  0.00    +0.000 A 
ATOM      3  N   UNL     1      43.033   4.776  12.560  0.00  0.00    +0.000 NA
ATOM      4  C   UNL     1      43.035   4.175  11.347  0.00  0.00    +0.000 A 
ATOM      5  C   UNL     1      44.142   3.511  10.844  0.00  0.00    +0.000 A 
ATOM      6  N   UNL     1      45.298   3.412  11.535  0.00  0.00    +0.000 NA
ENDROOT
BRANCH   1   7
ATOM      7  C   UNL     1      46.561   3.915  13.598  0.00  0.00    +0.000 C 
BRANCH   7   8
ATOM      8  C   UNL     1      47.095   5.295  13.966  0.00  0.00    +0.000 C 
BRANCH   8   9
ATOM      9  O   UNL     1      47.645   5.930  12.810  0.00  0.00    +0.000 OA
BRANCH   9  14
ATOM     10  C   UNL     1      45.739   9.104  12.634  0.00  0.00    +0.000 A 
ATOM     11  C   UNL     1      46.754   9.878  12.101  0.00  0.00    +0.000 A 
ATOM     12  N   UNL     1      47.984   9.402  11.817  0.00  0.00    +0.000 NA
ATOM     13  C   UNL     1      48.200   8.090  12.079  0.00  0.00    +0.000 A 
ATOM     14  C   UNL     1      47.251   7.224  12.612  0.00  0.00    +0.000 A 
ATOM     15  C   UNL     1      45.992   7.758  12.892  0.00  0.00    +0.000 A 
ENDBRANCH   9  14
ENDBRANCH   8   9
ENDBRANCH   7   8
ENDBRANCH   1   7
BRANCH   5  16
ATOM     16  O   UNL     1      44.046   2.906   9.609  0.00  0.00    +0.000 OA
BRANCH  16  17
ATOM     17  C   UNL     1      44.546   3.681   8.494  0.00  0.00    +0.000 C 
ATOM     18  C   UNL     1      45.680   3.019   7.676  0.00  0.00    +0.000 C 
ATOM     19  N   UNL     1      46.327   4.344   7.538  0.00  0.00    +0.000 NA
ATOM     20  C   UNL     1      45.598   4.782   8.756  0.00  0.00    +0.000 C 
ATOM     21  H   UNL     1      46.042   4.841   6.694  0.00  0.00    +0.000 HD
ENDBRANCH  16  17
ENDBRANCH   5  16
TORSDOF 6
ENDMDL
