MODEL 1
REMARK VINA RESULT:    -7.624      0.000      0.000
REMARK INTER + INTRA:         -11.354
REMARK INTER:                 -10.522
REMARK INTRA:                  -0.832
REMARK UNBOUND:                -0.832
REMARK  Name = 
REMARK  7 active torsions:
REMARK  status: ('A' for Active; 'I' for Inactive)
REMARK    1  A    between atoms: N_1  and  C_2
REMARK    2  A    between atoms: C_2  and  C_3
REMARK    3  A    between atoms: C_3  and  C_4
REMARK    4  A    between atoms: C_7  and  C_8
REMARK    5  A    between atoms: C_8  and  O_9
REMARK    6  A    between atoms: O_9  and  C_10
REMARK    7  A    between atoms: C_13  and  C_14
REMARK                            x       y       z     vdW  Elec       q    Type
REMARK                         _______ _______ _______ _____ _____    ______ ____
ROOT
ATOM      1  C   UNL     1      43.633   3.202  11.914  0.00  0.00    +0.000 C 
ENDROOT
BRANCH   1   5
ATOM      2  C   UNL     1      46.725   5.497  13.606  0.00  0.00    +0.000 A 
ATOM      3  C   UNL     1      46.803   4.108  13.554  0.00  0.00    +0.000 A 
ATOM      4  N   UNL     1      45.826   3.335  13.018  0.00  0.00    +0.000 NA
ATOM      5  C   UNL     1      44.748   4.000  12.533  0.00  0.00    +0.000 A 
ATOM      6  C   UNL     1      44.669   5.387  12.593  0.00  0.00    +0.000 A 
ATOM      7  N   UNL     1      45.645   6.160  13.126  0.00  0.00    +0.000 NA
BRANCH   2   8
ATOM      8  C   UNL     1      47.843   6.306  14.202  0.00  0.00    +0.000 C 
BRANCH   8   9
ATOM      9  C   UNL     1      47.910   7.714  13.606  0.00  0.00    +0.000 C 
BRANCH   9  10
ATOM     10  N   UNL     1      47.101   8.650  14.390  0.00  0.00    +0.000 NA
ATOM     11  H   UNL     1      46.242   8.184  14.684  0.00  0.00    +0.000 HD
ATOM     12  H   UNL     1      46.805   9.423  13.793  0.00  0.00    +0.000 HD
ENDBRANCH   9  10
ENDBRANCH   8   9
ENDBRANCH   2   8
ENDBRANCH   1   5
BRANCH   1  13
ATOM     13  O   UNL     1      43.388   3.664  10.583  0.00  0.00    +0.000 OA
BRANCH  13  14
ATOM     14  C   UNL     1      44.305   3.285   9.643  0.00  0.00    +0.000 A 
ATOM     15  C   UNL     1      44.787   1.996   9.445  0.00  0.00    +0.000 A 
ATOM     16  C   UNL     1      45.719   1.751   8.437  0.00  0.00    +0.000 A 
ATOM     17  C   UNL     1      46.160   2.806   7.635  0.00  0.00    +0.000 A 
ATOM     18  N   UNL     1      45.706   4.078   7.826  0.00  0.00    +0.000 NA
ATOM     19  C   UNL     1      44.797   4.282   8.814  0.00  0.00    +0.000 A 
BRANCH  17  20
ATOM     20  C   UNL     1      47.151   2.533   6.510  0.00  0.00    +0.000 C 
ATOM     21  F   UNL     1      48.430   2.903   6.822  0.00  0.00    +0.000 F 
ATOM     22  F   UNL     1      47.230   1.213   6.176  0.00  0.00    +0.000 F 
ATOM     23  F   UNL     1      46.854   3.202   5.359  0.00  0.00    +0.000 F 
ENDBRANCH  17  20
ENDBRANCH  13  14
ENDBRANCH   1  13
TORSDOF 7
ENDMDL
MODEL 2
REMARK VINA RESULT:    -7.528      1.274      2.128
REMARK INTER + INTRA:         -11.221
REMARK INTER:                 -10.473
REMARK INTRA:                  -0.749
REMARK UNBOUND:                -0.832
REMARK  Name = 
REMARK  7 active torsions:
REMARK  status: ('A' for Active; 'I' for Inactive)
REMARK    1  A    between atoms: N_1  and  C_2
REMARK    2  A    between atoms: C_2  and  C_3
REMARK    3  A    between atoms: C_3  and  C_4
REMARK    4  A    between atoms: C_7  and  C_8
REMARK    5  A    between atoms: C_8  and  O_9
REMARK    6  A    between atoms: O_9  and  C_10
REMARK    7  A    between atoms: C_13  and  C_14
REMARK                            x       y       z     vdW  Elec       q    Type
REMARK                         _______ _______ _______ _____ _____    ______ ____
ROOT
ATOM      1  C   UNL     1      43.601   5.146  10.756  0.00  0.00    +0.000 C 
ENDROOT
BRANCH   1   5
ATOM      2  C   UNL     1      46.546   5.261  13.758  0.00  0.00    +0.000 A 
ATOM      3  C   UNL     1      46.642   6.060  12.622  0.00  0.00    +0.000 A 
ATOM      4  N   UNL     1      45.714   6.049  11.633  0.00  0.00    +0.000 NA
ATOM      5  C   UNL     1      44.672   5.198  11.811  0.00  0.00    +0.000 A 
ATOM      6  C   UNL     1      44.583   4.395  12.942  0.00  0.00    +0.000 A 
ATOM      7  N   UNL     1      45.508   4.408  13.932  0.00  0.00    +0.000 NA
BRANCH   2   8
ATOM      8  C   UNL     1      47.599   5.322  14.829  0.00  0.00    +0.000 C 
BRANCH   8   9
ATOM      9  C   UNL     1      47.456   4.177  15.835  0.00  0.00    +0.000 C 
BRANCH   9  10
ATOM     10  N   UNL     1      47.821   2.898  15.222  0.00  0.00    +0.000 NA
ATOM     11  H   UNL     1      47.049   2.240  15.335  0.00  0.00    +0.000 HD
ATOM     12  H   UNL     1      48.607   2.491  15.730  0.00  0.00    +0.000 HD
ENDBRANCH   9  10
ENDBRANCH   8   9
ENDBRANCH   2   8
ENDBRANCH   1   5
BRANCH   1  13
ATOM     13  O   UNL     1      43.432   3.800  10.304  0.00  0.00    +0.000 OA
BRANCH  13  14
ATOM     14  C   UNL     1      44.376   3.344   9.428  0.00  0.00    +0.000 A 
ATOM     15  C   UNL     1      44.880   2.049   9.370  0.00  0.00    +0.000 A 
ATOM     16  C   UNL     1      45.838   1.719   8.412  0.00  0.00    +0.000 A 
ATOM     17  C   UNL     1      46.283   2.695   7.519  0.00  0.00    +0.000 A 
ATOM     18  N   UNL     1      45.809   3.973   7.571  0.00  0.00    +0.000 NA
ATOM     19  C   UNL     1      44.874   4.260   8.513  0.00  0.00    +0.000 A 
BRANCH  17  20
ATOM     20  C   UNL     1      47.303   2.326   6.449  0.00  0.00    +0.000 C 
ATOM     21  F   UNL     1      47.003   2.848   5.220  0.00  0.00    +0.000 F 
ATOM     22  F   UNL     1      48.561   2.772   6.731  0.00  0.00    +0.000 F 
ATOM     23  F   UNL     1      47.412   0.980   6.250  0.00  0.00    +0.000 F 
ENDBRANCH  17  20
ENDBRANCH  13  14
ENDBRANCH   1  13
TORSDOF 7
ENDMDL
MODEL 3
REMARK VINA RESULT:    -7.241      1.108      1.692
REMARK INTER + INTRA:         -10.825
REMARK INTER:                  -9.967
REMARK INTRA:                  -0.858
REMARK UNBOUND:                -0.832
REMARK  Name = 
REMARK  7 active torsions:
REMARK  status: ('A' for Active; 'I' for Inactive)
REMARK    1  A    between atoms: N_1  and  C_2
REMARK    2  A    between atoms: C_2  and  C_3
REMARK    3  A    between atoms: C_3  and  C_4
REMARK    4  A    between atoms: C_7  and  C_8
REMARK    5  A    between atoms: C_8  and  O_9
REMARK    6  A    between atoms: O_9  and  C_10
REMARK    7  A    between atoms: C_13  and  C_14
REMARK                            x       y       z     vdW  Elec       q    Type
REMARK                         _______ _______ _______ _____ _____    ______ ____
ROOT
ATOM      1  C   UNL     1      43.769   3.726  11.893  0.00  0.00    +0.000 C 
ENDROOT
BRANCH   1   5
ATOM      2  C   UNL     1      46.494   6.694  13.101  0.00  0.00    +0.000 A 
ATOM      3  C   UNL     1      45.309   7.025  12.449  0.00  0.00    +0.000 A 
ATOM      4  N   UNL     1      44.408   6.096  12.043  0.00  0.00    +0.000 NA
ATOM      5  C   UNL     1      44.732   4.805  12.307  0.00  0.00    +0.000 A 
ATOM      6  C   UNL     1      45.920   4.478  12.950  0.00  0.00    +0.000 A 
ATOM      7  N   UNL     1      46.819   5.405  13.359  0.00  0.00    +0.000 NA
BRANCH   2   8
ATOM      8  C   UNL     1      47.453   7.766  13.538  0.00  0.00    +0.000 C 
BRANCH   8   9
ATOM      9  C   UNL     1      48.818   7.189  13.920  0.00  0.00    +0.000 C 
BRANCH   9  10
ATOM     10  N   UNL     1      49.477   6.598  12.754  0.00  0.00    +0.000 NA
ATOM     11  H   UNL     1      50.416   6.989  12.666  0.00  0.00    +0.000 HD
ATOM     12  H   UNL     1      48.981   6.878  11.907  0.00  0.00    +0.000 HD
ENDBRANCH   9  10
ENDBRANCH   8   9
ENDBRANCH   2   8
ENDBRANCH   1   5
BRANCH   1  13
ATOM     13  O   UNL     1      43.413   3.895  10.519  0.00  0.00    +0.000 OA
BRANCH  13  14
ATOM     14  C   UNL     1      44.323   3.437   9.609  0.00  0.00    +0.000 A 
ATOM     15  C   UNL     1      44.785   2.130   9.500  0.00  0.00    +0.000 A 
ATOM     16  C   UNL     1      45.712   1.800   8.512  0.00  0.00    +0.000 A 
ATOM     17  C   UNL     1      46.169   2.789   7.639  0.00  0.00    +0.000 A 
ATOM     18  N   UNL     1      45.736   4.079   7.741  0.00  0.00    +0.000 NA
ATOM     19  C   UNL     1      44.831   4.366   8.712  0.00  0.00    +0.000 A 
BRANCH  17  20
ATOM     20  C   UNL     1      47.154   2.423   6.536  0.00  0.00    +0.000 C 
ATOM     21  F   UNL     1      47.229   1.075   6.312  0.00  0.00    +0.000 F 
ATOM     22  F   UNL     1      46.835   2.971   5.329  0.00  0.00    +0.000 F 
ATOM     23  F   UNL     1      48.433   2.813   6.807  0.00  0.00    +0.000 F 
ENDBRANCH  17  20
ENDBRANCH  13  14
ENDBRANCH   1  13
TORSDOF 7
ENDMDL
MODEL 4
REMARK VINA RESULT:    -6.810      3.613      6.903
REMARK INTER + INTRA:         -10.231
REMARK INTER:                  -9.629
REMARK INTRA:                  -0.602
REMARK UNBOUND:                -0.832
REMARK  Name = 
REMARK  7 active torsions:
REMARK  status: ('A' for Active; 'I' for Inactive)
REMARK    1  A    between atoms: N_1  and  C_2
REMARK    2  A    between atoms: C_2  and  C_3
REMARK    3  A    between atoms: C_3  and  C_4
REMARK    4  A    between atoms: C_7  and  C_8
REMARK    5  A    between atoms: C_8  and  O_9
REMARK    6  A    between atoms: O_9  and  C_10
REMARK    7  A    between atoms: C_13  and  C_14
REMARK                            x       y       z     vdW  Elec       q    Type
REMARK                         _______ _______ _______ _____ _____    ______ ____
ROOT
ATOM      1  C   UNL     1      43.624   4.619  10.245  0.00  0.00    +0.000 C 
ENDROOT
BRANCH   1   5
ATOM      2  C   UNL     1      46.213   2.228   7.949  0.00  0.00    +0.000 A 
ATOM      3  C   UNL     1      46.137   3.603   7.751  0.00  0.00    +0.000 A 
ATOM      4  N   UNL     1      45.313   4.406   8.471  0.00  0.00    +0.000 NA
ATOM      5  C   UNL     1      44.550   3.784   9.404  0.00  0.00    +0.000 A 
ATOM      6  C   UNL     1      44.622   2.408   9.593  0.00  0.00    +0.000 A 
ATOM      7  N   UNL     1      45.447   1.606   8.877  0.00  0.00    +0.000 NA
BRANCH   2   8
ATOM      8  C   UNL     1      47.152   1.386   7.129  0.00  0.00    +0.000 C 
BRANCH   8   9
ATOM      9  C   UNL     1      48.332   2.202   6.596  0.00  0.00    +0.000 C 
BRANCH   9  10
ATOM     10  N   UNL     1      48.354   2.189   5.132  0.00  0.00    +0.000 NA
ATOM     11  H   UNL     1      49.193   2.669   4.805  0.00  0.00    +0.000 HD
ATOM     12  H   UNL     1      47.568   2.735   4.777  0.00  0.00    +0.000 HD
ENDBRANCH   9  10
ENDBRANCH   8   9
ENDBRANCH   2   8
ENDBRANCH   1   5
BRANCH   1  13
ATOM     13  O   UNL     1      43.890   4.391  11.631  0.00  0.00    +0.000 OA
BRANCH  13  14
ATOM     14  C   UNL     1      44.956   5.068  12.151  0.00  0.00    +0.000 A 
ATOM     15  C   UNL     1      45.367   6.347  11.790  0.00  0.00    +0.000 A 
ATOM     16  C   UNL     1      46.473   6.924  12.414  0.00  0.00    +0.000 A 
ATOM     17  C   UNL     1      47.160   6.207  13.396  0.00  0.00    +0.000 A 
ATOM     18  N   UNL     1      46.778   4.947  13.751  0.00  0.00    +0.000 NA
ATOM     19  C   UNL     1      45.695   4.416  13.127  0.00  0.00    +0.000 A 
BRANCH  17  20
ATOM     20  C   UNL     1      48.347   6.850  14.104  0.00  0.00    +0.000 C 
ATOM     21  F   UNL     1      49.475   6.886  13.331  0.00  0.00    +0.000 F 
ATOM     22  F   UNL     1      48.117   8.144  14.467  0.00  0.00    +0.000 F 
ATOM     23  F   UNL     1      48.713   6.193  15.243  0.00  0.00    +0.000 F 
ENDBRANCH  17  20
ENDBRANCH  13  14
ENDBRANCH   1  13
TORSDOF 7
ENDMDL
MODEL 5
REMARK VINA RESULT:    -6.234      2.944      4.250
REMARK INTER + INTRA:          -9.436
REMARK INTER:                  -8.987
REMARK INTRA:                  -0.449
REMARK UNBOUND:                -0.832
REMARK  Name = 
REMARK  7 active torsions:
REMARK  status: ('A' for Active; 'I' for Inactive)
REMARK    1  A    between atoms: N_1  and  C_2
REMARK    2  A    between atoms: C_2  and  C_3
REMARK    3  A    between atoms: C_3  and  C_4
REMARK    4  A    between atoms: C_7  and  C_8
REMARK    5  A    between atoms: C_8  and  O_9
REMARK    6  A    between atoms: O_9  and  C_10
REMARK    7  A    between atoms: C_13  and  C_14
REMARK                            x       y       z     vdW  Elec       q    Type
REMARK                         _______ _______ _______ _____ _____    ______ ____
ROOT
ATOM      1  C   UNL     1      47.001   6.466  13.352  0.00  0.00    +0.000 C 
ENDROOT
BRANCH   1   5
ATOM      2  C   UNL     1      48.363   4.124  16.570  0.00  0.00    +0.000 A 
ATOM      3  C   UNL     1      48.843   5.413  16.362  0.00  0.00    +0.000 A 
ATOM      4  N   UNL     1      48.429   6.197  15.335  0.00  0.00    +0.000 NA
ATOM      5  C   UNL     1      47.511   5.645  14.504  0.00  0.00    +0.000 A 
ATOM      6  C   UNL     1      47.039   4.353  14.709  0.00  0.00    +0.000 A 
ATOM      7  N   UNL     1      47.450   3.570  15.736  0.00  0.00    +0.000 NA
BRANCH   2   8
ATOM      8  C   UNL     1      48.849   3.302  17.731  0.00  0.00    +0.000 C 
BRANCH   8   9
ATOM      9  C   UNL     1      50.039   2.419  17.347  0.00  0.00    +0.000 C 
BRANCH   9  10
ATOM     10  N   UNL     1      49.731   1.620  16.160  0.00  0.00    +0.000 NA
ATOM     11  H   UNL     1      50.267   1.976  15.368  0.00  0.00    +0.000 HD
ATOM     12  H   UNL     1      48.750   1.750  15.909  0.00  0.00    +0.000 HD
ENDBRANCH   9  10
ENDBRANCH   8   9
ENDBRANCH   2   8
ENDBRANCH   1   5
BRANCH   1  13
ATOM     13  O   UNL     1      45.669   6.064  13.022  0.00  0.00    +0.000 OA
BRANCH  13  14
ATOM     14  C   UNL     1      45.530   5.365  11.857  0.00  0.00    +0.000 A 
ATOM     15  C   UNL     1      45.801   5.843  10.580  0.00  0.00    +0.000 A 
ATOM     16  C   UNL     1      45.624   5.011   9.474  0.00  0.00    +0.000 A 
ATOM     17  C   UNL     1      45.173   3.704   9.662  0.00  0.00    +0.000 A 
ATOM     18  N   UNL     1      44.889   3.224  10.907  0.00  0.00    +0.000 NA
ATOM     19  C   UNL     1      45.077   4.058  11.962  0.00  0.00    +0.000 A 
BRANCH  17  20
ATOM     20  C   UNL     1      45.012   2.783   8.458  0.00  0.00    +0.000 C 
ATOM     21  F   UNL     1      44.195   1.714   8.707  0.00  0.00    +0.000 F 
ATOM     22  F   UNL     1      44.467   3.408   7.376  0.00  0.00    +0.000 F 
ATOM     23  F   UNL     1      46.191   2.243   8.034  0.00  0.00    +0.000 F 
ENDBRANCH  17  20
ENDBRANCH  13  14
ENDBRANCH   1  13
TORSDOF 7
ENDMDL
MODEL 6
REMARK VINA RESULT:    -6.101      4.783      7.639
REMARK INTER + INTRA:          -9.252
REMARK INTER:                  -8.664
REMARK INTRA:                  -0.588
REMARK UNBOUND:                -0.832
REMARK  Name = 
REMARK  7 active torsions:
REMARK  status: ('A' for Active; 'I' for Inactive)
REMARK    1  A    between atoms: N_1  and  C_2
REMARK    2  A    between atoms: C_2  and  C_3
REMARK    3  A    between atoms: C_3  and  C_4
REMARK    4  A    between atoms: C_7  and  C_8
REMARK    5  A    between atoms: C_8  and  O_9
REMARK    6  A    between atoms: O_9  and  C_10
REMARK    7  A    between atoms: C_13  and  C_14
REMARK                            x       y       z     vdW  Elec       q    Type
REMARK                         _______ _______ _______ _____ _____    ______ ____
ROOT
ATOM      1  C   UNL     1      45.515   6.088  12.704  0.00  0.00    +0.000 C 
ENDROOT
BRANCH   1   5
ATOM      2  C   UNL     1      45.149   4.065   9.035  0.00  0.00    +0.000 A 
ATOM      3  C   UNL     1      44.626   3.530  10.208  0.00  0.00    +0.000 A 
ATOM      4  N   UNL     1      44.726   4.152  11.410  0.00  0.00    +0.000 NA
ATOM      5  C   UNL     1      45.379   5.340  11.406  0.00  0.00    +0.000 A 
ATOM      6  C   UNL     1      45.908   5.868  10.234  0.00  0.00    +0.000 A 
ATOM      7  N   UNL     1      45.806   5.249   9.033  0.00  0.00    +0.000 NA
BRANCH   2   8
ATOM      8  C   UNL     1      45.000   3.337   7.727  0.00  0.00    +0.000 C 
BRANCH   8   9
ATOM      9  C   UNL     1      46.357   2.963   7.125  0.00  0.00    +0.000 C 
BRANCH   9  10
ATOM     10  N   UNL     1      46.916   4.084   6.368  0.00  0.00    +0.000 NA
ATOM     11  H   UNL     1      46.207   4.814   6.277  0.00  0.00    +0.000 HD
ATOM     12  H   UNL     1      47.121   3.780   5.415  0.00  0.00    +0.000 HD
ENDBRANCH   9  10
ENDBRANCH   8   9
ENDBRANCH   2   8
ENDBRANCH   1   5
BRANCH   1  13
ATOM     13  O   UNL     1      46.896   6.206  13.054  0.00  0.00    +0.000 OA
BRANCH  13  14
ATOM     14  C   UNL     1      47.288   5.522  14.169  0.00  0.00    +0.000 A 
ATOM     15  C   UNL     1      47.974   6.055  15.255  0.00  0.00    +0.000 A 
ATOM     16  C   UNL     1      48.304   5.239  16.337  0.00  0.00    +0.000 A 
ATOM     17  C   UNL     1      47.942   3.890  16.317  0.00  0.00    +0.000 A 
ATOM     18  N   UNL     1      47.281   3.350  15.253  0.00  0.00    +0.000 NA
ATOM     19  C   UNL     1      46.972   4.173  14.218  0.00  0.00    +0.000 A 
BRANCH  17  20
ATOM     20  C   UNL     1      48.270   3.006  17.514  0.00  0.00    +0.000 C 
ATOM     21  F   UNL     1      49.271   2.109  17.258  0.00  0.00    +0.000 F 
ATOM     22  F   UNL     1      48.689   3.712  18.602  0.00  0.00    +0.000 F 
ATOM     23  F   UNL     1      47.212   2.253  17.932  0.00  0.00    +0.000 F 
ENDBRANCH  17  20
ENDBRANCH  13  14
ENDBRANCH   1  13
TORSDOF 7
ENDMDL
MODEL 7
REMARK VINA RESULT:    -5.931      4.955      6.515
REMARK INTER + INTRA:          -9.017
REMARK INTER:                  -8.349
REMARK INTRA:                  -0.669
REMARK UNBOUND:                -0.832
REMARK  Name = 
REMARK  7 active torsions:
REMARK  status: ('A' for Active; 'I' for Inactive)
REMARK    1  A    between atoms: N_1  and  C_2
REMARK    2  A    between atoms: C_2  and  C_3
REMARK    3  A    between atoms: C_3  and  C_4
REMARK    4  A    between atoms: C_7  and  C_8
REMARK    5  A    between atoms: C_8  and  O_9
REMARK    6  A    between atoms: O_9  and  C_10
REMARK    7  A    between atoms: C_13  and  C_14
REMARK                            x       y       z     vdW  Elec       q    Type
REMARK                         _______ _______ _______ _____ _____    ______ ____
ROOT
ATOM      1  C   UNL     1      47.538   4.555  16.149  0.00  0.00    +0.000 C 
ENDROOT
BRANCH   1   5
ATOM      2  C   UNL     1      51.149   2.916  17.552  0.00  0.00    +0.000 A 
ATOM      3  C   UNL     1      50.960   4.293  17.485  0.00  0.00    +0.000 A 
ATOM      4  N   UNL     1      49.811   4.858  17.036  0.00  0.00    +0.000 NA
ATOM      5  C   UNL     1      48.842   3.993  16.646  0.00  0.00    +0.000 A 
ATOM      6  C   UNL     1      49.037   2.618  16.706  0.00  0.00    +0.000 A 
ATOM      7  N   UNL     1      50.183   2.053  17.156  0.00  0.00    +0.000 NA
BRANCH   2   8
ATOM      8  C   UNL     1      52.440   2.343  18.067  0.00  0.00    +0.000 C 
BRANCH   8   9
ATOM      9  C   UNL     1      52.699   0.937  17.520  0.00  0.00    +0.000 C 
BRANCH   9  10
ATOM     10  N   UNL     1      52.054  -0.074  18.359  0.00  0.00    +0.000 NA
ATOM     11  H   UNL     1      52.521  -0.105  19.266  0.00  0.00    +0.000 HD
ATOM     12  H   UNL     1      52.195  -0.996  17.945  0.00  0.00    +0.000 HD
ENDBRANCH   9  10
ENDBRANCH   8   9
ENDBRANCH   2   8
ENDBRANCH   1   5
BRANCH   1  13
ATOM     13  O   UNL     1      47.719   5.124  14.850  0.00  0.00    +0.000 OA
BRANCH  13  14
ATOM     14  C   UNL     1      46.732   4.860  13.943  0.00  0.00    +0.000 A 
ATOM     15  C   UNL     1      45.918   5.802  13.323  0.00  0.00    +0.000 A 
ATOM     16  C   UNL     1      44.953   5.390  12.404  0.00  0.00    +0.000 A 
ATOM     17  C   UNL     1      44.812   4.031  12.118  0.00  0.00    +0.000 A 
ATOM     18  N   UNL     1      45.593   3.093  12.728  0.00  0.00    +0.000 NA
ATOM     19  C   UNL     1      46.525   3.528  13.614  0.00  0.00    +0.000 A 
BRANCH  17  20
ATOM     20  C   UNL     1      43.782   3.583  11.088  0.00  0.00    +0.000 C 
ATOM     21  F   UNL     1      42.742   4.462  10.953  0.00  0.00    +0.000 F 
ATOM     22  F   UNL     1      44.302   3.446   9.835  0.00  0.00    +0.000 F 
ATOM     23  F   UNL     1      43.202   2.386  11.394  0.00  0.00    +0.000 F 
ENDBRANCH  17  20
ENDBRANCH  13  14
ENDBRANCH   1  13
TORSDOF 7
ENDMDL
MODEL 8
REMARK VINA RESULT:    -5.515      4.879      6.603
REMARK INTER + INTRA:          -8.443
REMARK INTER:                  -7.762
REMARK INTRA:                  -0.681
REMARK UNBOUND:                -0.832
REMARK  Name = 
REMARK  7 active torsions:
REMARK  status: ('A' for Active; 'I' for Inactive)
REMARK    1  A    between atoms: N_1  and  C_2
REMARK    2  A    between atoms: C_2  and  C_3
REMARK    3  A    between atoms: C_3  and  C_4
REMARK    4  A    between atoms: C_7  and  C_8
REMARK    5  A    between atoms: C_8  and  O_9
REMARK    6  A    between atoms: O_9  and  C_10
REMARK    7  A    between atoms: C_13  and  C_14
REMARK                            x       y       z     vdW  Elec       q    Type
REMARK                         _______ _______ _______ _____ _____    ______ ____
ROOT
ATOM      1  C   UNL     1      48.650   7.044  15.019  0.00  0.00    +0.000 C 
ENDROOT
BRANCH   1   5
ATOM      2  C   UNL     1      49.878   5.547  18.753  0.00  0.00    +0.000 A 
ATOM      3  C   UNL     1      50.392   5.033  17.566  0.00  0.00    +0.000 A 
ATOM      4  N   UNL     1      50.019   5.489  16.344  0.00  0.00    +0.000 NA
ATOM      5  C   UNL     1      49.098   6.485  16.342  0.00  0.00    +0.000 A 
ATOM      6  C   UNL     1      48.580   6.990  17.529  0.00  0.00    +0.000 A 
ATOM      7  N   UNL     1      48.954   6.538  18.750  0.00  0.00    +0.000 NA
BRANCH   2   8
ATOM      8  C   UNL     1      50.335   5.011  20.082  0.00  0.00    +0.000 C 
BRANCH   8   9
ATOM      9  C   UNL     1      49.157   4.705  21.010  0.00  0.00    +0.000 C 
BRANCH   9  10
ATOM     10  N   UNL     1      48.316   3.645  20.450  0.00  0.00    +0.000 NA
ATOM     11  H   UNL     1      47.413   4.040  20.182  0.00  0.00    +0.000 HD
ATOM     12  H   UNL     1      48.111   2.957  21.175  0.00  0.00    +0.000 HD
ENDBRANCH   9  10
ENDBRANCH   8   9
ENDBRANCH   2   8
ENDBRANCH   1   5
BRANCH   1  13
ATOM     13  O   UNL     1      48.616   6.002  14.040  0.00  0.00    +0.000 OA
BRANCH  13  14
ATOM     14  C   UNL     1      47.382   5.694  13.542  0.00  0.00    +0.000 A 
ATOM     15  C   UNL     1      46.725   6.363  12.515  0.00  0.00    +0.000 A 
ATOM     16  C   UNL     1      45.465   5.931  12.098  0.00  0.00    +0.000 A 
ATOM     17  C   UNL     1      44.876   4.828  12.721  0.00  0.00    +0.000 A 
ATOM     18  N   UNL     1      45.502   4.171  13.739  0.00  0.00    +0.000 NA
ATOM     19  C   UNL     1      46.728   4.615  14.117  0.00  0.00    +0.000 A 
BRANCH  17  20
ATOM     20  C   UNL     1      43.516   4.334  12.243  0.00  0.00    +0.000 C 
ATOM     21  F   UNL     1      43.301   3.011  12.519  0.00  0.00    +0.000 F 
ATOM     22  F   UNL     1      42.473   4.995  12.820  0.00  0.00    +0.000 F 
ATOM     23  F   UNL     1      43.344   4.452  10.895  0.00  0.00    +0.000 F 
ENDBRANCH  17  20
ENDBRANCH  13  14
ENDBRANCH   1  13
TORSDOF 7
ENDMDL
MODEL 9
REMARK VINA RESULT:    -5.496      3.883      4.828
REMARK INTER + INTRA:          -8.417
REMARK INTER:                  -7.829
REMARK INTRA:                  -0.587
REMARK UNBOUND:                -0.832
REMARK  Name = 
REMARK  7 active torsions:
REMARK  status: ('A' for Active; 'I' for Inactive)
REMARK    1  A    between atoms: N_1  and  C_2
REMARK    2  A    between atoms: C_2  and  C_3
REMARK    3  A    between atoms: C_3  and  C_4
REMARK    4  A    between atoms: C_7  and  C_8
REMARK    5  A    between atoms: C_8  and  O_9
REMARK    6  A    between atoms: O_9  and  C_10
REMARK    7  A    between atoms: C_13  and  C_14
REMARK                            x       y       z     vdW  Elec       q    Type
REMARK                         _______ _______ _______ _____ _____    ______ ____
ROOT
ATOM      1  C   UNL     1      46.836   4.094  14.686  0.00  0.00    +0.000 C 
ENDROOT
BRANCH   1   5
ATOM      2  C   UNL     1      48.673   5.436  18.224  0.00  0.00    +0.000 A 
ATOM      3  C   UNL     1      48.947   6.034  16.997  0.00  0.00    +0.000 A 
ATOM      4  N   UNL     1      48.375   5.628  15.836  0.00  0.00    +0.000 NA
ATOM      5  C   UNL     1      47.513   4.586  15.936  0.00  0.00    +0.000 A 
ATOM      6  C   UNL     1      47.248   3.985  17.161  0.00  0.00    +0.000 A 
ATOM      7  N   UNL     1      47.816   4.392  18.322  0.00  0.00    +0.000 NA
BRANCH   2   8
ATOM      8  C   UNL     1      49.327   5.934  19.483  0.00  0.00    +0.000 C 
BRANCH   8   9
ATOM      9  C   UNL     1      49.777   4.783  20.386  0.00  0.00    +0.000 C 
BRANCH   9  10
ATOM     10  N   UNL     1      48.644   4.241  21.138  0.00  0.00    +0.000 NA
ATOM     11  H   UNL     1      48.405   4.884  21.894  0.00  0.00    +0.000 HD
ATOM     12  H   UNL     1      48.926   3.372  21.595  0.00  0.00    +0.000 HD
ENDBRANCH   9  10
ENDBRANCH   8   9
ENDBRANCH   2   8
ENDBRANCH   1   5
BRANCH   1  13
ATOM     13  O   UNL     1      46.308   5.202  13.953  0.00  0.00    +0.000 OA
BRANCH  13  14
ATOM     14  C   UNL     1      45.940   4.941  12.663  0.00  0.00    +0.000 A 
ATOM     15  C   UNL     1      46.008   5.832  11.598  0.00  0.00    +0.000 A 
ATOM     16  C   UNL     1      45.607   5.426  10.325  0.00  0.00    +0.000 A 
ATOM     17  C   UNL     1      45.138   4.125  10.134  0.00  0.00    +0.000 A 
ATOM     18  N   UNL     1      45.052   3.243  11.172  0.00  0.00    +0.000 NA
ATOM     19  C   UNL     1      45.454   3.669  12.397  0.00  0.00    +0.000 A 
BRANCH  17  20
ATOM     20  C   UNL     1      44.733   3.668   8.738  0.00  0.00    +0.000 C 
ATOM     21  F   UNL     1      45.784   3.623   7.864  0.00  0.00    +0.000 F 
ATOM     22  F   UNL     1      44.195   2.415   8.719  0.00  0.00    +0.000 F 
ATOM     23  F   UNL     1      43.813   4.487   8.151  0.00  0.00    +0.000 F 
ENDBRANCH  17  20
ENDBRANCH  13  14
ENDBRANCH   1  13
TORSDOF 7
ENDMDL
