MODEL 1
REMARK VINA RESULT:    -8.767      0.000      0.000
REMARK INTER + INTRA:         -12.118
REMARK INTER:                 -11.330
REMARK INTRA:                  -0.789
REMARK UNBOUND:                -0.789
REMARK  Name = 
REMARK  5 active torsions:
REMARK  status: ('A' for Active; 'I' for Inactive)
REMARK    1  A    between atoms: C_2  and  C_4
REMARK    2  A    between atoms: C_7  and  O_8
REMARK    3  A    between atoms: O_8  and  C_9
REMARK    4  A    between atoms: C_9  and  C_10
REMARK    5  A    between atoms: C_15  and  C_16
REMARK                            x       y       z     vdW  Elec       q    Type
REMARK                         _______ _______ _______ _____ _____    ______ ____
ROOT
ATOM      1  C   UNL     1      43.654   4.289  11.210  0.00  0.00    +0.000 C 
ENDROOT
BRANCH   1   2
ATOM      2  C   UNL     1      44.888   4.726  11.973  0.00  0.00    +0.000 A 
ATOM      3  C   UNL     1      45.477   3.909  12.942  0.00  0.00    +0.000 A 
ATOM      4  C   UNL     1      46.580   4.365  13.659  0.00  0.00    +0.000 A 
ATOM      5  C   UNL     1      47.088   5.642  13.423  0.00  0.00    +0.000 A 
ATOM      6  F   UNL     1      48.137   6.031  14.163  0.00  0.00    +0.000 F 
ATOM      7  C   UNL     1      46.526   6.509  12.469  0.00  0.00    +0.000 A 
ATOM      8  C   UNL     1      45.413   6.017  11.755  0.00  0.00    +0.000 A 
BRANCH   7   9
ATOM      9  C   UNL     1      47.069   7.864  12.213  0.00  0.00    +0.000 A 
ATOM     10  C   UNL     1      48.392   8.080  11.794  0.00  0.00    +0.000 A 
ATOM     11  C   UNL     1      48.872   9.372  11.571  0.00  0.00    +0.000 A 
ATOM     12  C   UNL     1      48.011  10.436  11.765  0.00  0.00    +0.000 A 
ATOM     13  N   UNL     1      46.734  10.292  12.166  0.00  0.00    +0.000 NA
ATOM     14  C   UNL     1      46.302   9.021  12.379  0.00  0.00    +0.000 A 
ENDBRANCH   7   9
ENDBRANCH   1   2
BRANCH   1  15
ATOM     15  O   UNL     1      43.721   4.712   9.846  0.00  0.00    +0.000 OA
BRANCH  15  19
ATOM     16  C   UNL     1      46.421   2.455   7.710  0.00  0.00    +0.000 A 
ATOM     17  C   UNL     1      45.553   1.829   8.606  0.00  0.00    +0.000 A 
ATOM     18  C   UNL     1      44.642   2.606   9.325  0.00  0.00    +0.000 A 
ATOM     19  C   UNL     1      44.634   3.977   9.117  0.00  0.00    +0.000 A 
ATOM     20  N   UNL     1      45.466   4.609   8.261  0.00  0.00    +0.000 NA
ATOM     21  C   UNL     1      46.349   3.835   7.585  0.00  0.00    +0.000 A 
BRANCH  16  23
ATOM     22  N   UNL     1      48.500   2.443   6.452  0.00  0.00    +0.000 N 
ATOM     23  C   UNL     1      47.429   1.731   6.911  0.00  0.00    +0.000 C 
ATOM     24  O   UNL     1      47.330   0.529   6.700  0.00  0.00    +0.000 OA
ATOM     25  H   UNL     1      49.234   1.906   6.004  0.00  0.00    +0.000 HD
ATOM     26  H   UNL     1      48.744   3.356   6.808  0.00  0.00    +0.000 HD
ENDBRANCH  16  23
ENDBRANCH  15  19
ENDBRANCH   1  15
TORSDOF 5
ENDMDL
MODEL 2
REMARK VINA RESULT:    -8.515      1.936      2.484
REMARK INTER + INTRA:         -11.793
REMARK INTER:                 -10.931
REMARK INTRA:                  -0.862
REMARK UNBOUND:                -0.789
REMARK  Name = 
REMARK  5 active torsions:
REMARK  status: ('A' for Active; 'I' for Inactive)
REMARK    1  A    between atoms: C_2  and  C_4
REMARK    2  A    between atoms: C_7  and  O_8
REMARK    3  A    between atoms: O_8  and  C_9
REMARK    4  A    between atoms: C_9  and  C_10
REMARK    5  A    between atoms: C_15  and  C_16
REMARK                            x       y       z     vdW  Elec       q    Type
REMARK                         _______ _______ _______ _____ _____    ______ ____
ROOT
ATOM      1  C   UNL     1      44.125   3.218  11.539  0.00  0.00    +0.000 C 
ENDROOT
BRANCH   1   2
ATOM      2  C   UNL     1      44.423   4.696  11.688  0.00  0.00    +0.000 A 
ATOM      3  C   UNL     1      43.467   5.670  11.387  0.00  0.00    +0.000 A 
ATOM      4  C   UNL     1      43.793   7.019  11.487  0.00  0.00    +0.000 A 
ATOM      5  C   UNL     1      45.078   7.401  11.871  0.00  0.00    +0.000 A 
ATOM      6  F   UNL     1      45.336   8.717  11.925  0.00  0.00    +0.000 F 
ATOM      7  C   UNL     1      46.081   6.463  12.174  0.00  0.00    +0.000 A 
ATOM      8  C   UNL     1      45.719   5.104  12.068  0.00  0.00    +0.000 A 
BRANCH   7   9
ATOM      9  C   UNL     1      47.445   6.868  12.588  0.00  0.00    +0.000 A 
ATOM     10  C   UNL     1      48.307   7.587  11.744  0.00  0.00    +0.000 A 
ATOM     11  C   UNL     1      49.590   7.944  12.165  0.00  0.00    +0.000 A 
ATOM     12  C   UNL     1      49.990   7.580  13.436  0.00  0.00    +0.000 A 
ATOM     13  N   UNL     1      49.209   6.891  14.290  0.00  0.00    +0.000 NA
ATOM     14  C   UNL     1      47.970   6.555  13.846  0.00  0.00    +0.000 A 
ENDBRANCH   7   9
ENDBRANCH   1   2
BRANCH   1  15
ATOM     15  O   UNL     1      43.583   2.933  10.247  0.00  0.00    +0.000 OA
BRANCH  15  19
ATOM     16  C   UNL     1      46.505   2.550   7.373  0.00  0.00    +0.000 A 
ATOM     17  C   UNL     1      45.822   3.760   7.506  0.00  0.00    +0.000 A 
ATOM     18  C   UNL     1      44.832   3.876   8.485  0.00  0.00    +0.000 A 
ATOM     19  C   UNL     1      44.568   2.780   9.292  0.00  0.00    +0.000 A 
ATOM     20  N   UNL     1      45.210   1.597   9.181  0.00  0.00    +0.000 NA
ATOM     21  C   UNL     1      46.157   1.504   8.216  0.00  0.00    +0.000 A 
BRANCH  16  23
ATOM     22  N   UNL     1      47.547   3.099   5.247  0.00  0.00    +0.000 N 
ATOM     23  C   UNL     1      47.559   2.315   6.366  0.00  0.00    +0.000 C 
ATOM     24  O   UNL     1      48.435   1.479   6.544  0.00  0.00    +0.000 OA
ATOM     25  H   UNL     1      48.340   2.999   4.625  0.00  0.00    +0.000 HD
ATOM     26  H   UNL     1      47.008   3.950   5.180  0.00  0.00    +0.000 HD
ENDBRANCH  16  23
ENDBRANCH  15  19
ENDBRANCH   1  15
TORSDOF 5
ENDMDL
MODEL 3
REMARK VINA RESULT:    -8.313      2.312      3.847
REMARK INTER + INTRA:         -11.531
REMARK INTER:                 -10.815
REMARK INTRA:                  -0.716
REMARK UNBOUND:                -0.789
REMARK  Name = 
REMARK  5 active torsions:
REMARK  status: ('A' for Active; 'I' for Inactive)
REMARK    1  A    between atoms: C_2  and  C_4
REMARK    2  A    between atoms: C_7  and  O_8
REMARK    3  A    between atoms: O_8  and  C_9
REMARK    4  A    between atoms: C_9  and  C_10
REMARK    5  A    between atoms: C_15  and  C_16
REMARK                            x       y       z     vdW  Elec       q    Type
REMARK                         _______ _______ _______ _____ _____    ______ ____
ROOT
ATOM      1  C   UNL     1      44.084   4.229  11.542  0.00  0.00    +0.000 C 
ENDROOT
BRANCH   1   2
ATOM      2  C   UNL     1      45.223   4.910  12.274  0.00  0.00    +0.000 A 
ATOM      3  C   UNL     1      45.841   6.054  11.763  0.00  0.00    +0.000 A 
ATOM      4  C   UNL     1      46.918   6.624  12.438  0.00  0.00    +0.000 A 
ATOM      5  C   UNL     1      47.390   6.044  13.615  0.00  0.00    +0.000 A 
ATOM      6  F   UNL     1      48.445   6.627  14.204  0.00  0.00    +0.000 F 
ATOM      7  C   UNL     1      46.813   4.887  14.166  0.00  0.00    +0.000 A 
ATOM      8  C   UNL     1      45.721   4.336  13.462  0.00  0.00    +0.000 A 
BRANCH   7   9
ATOM      9  C   UNL     1      47.310   4.274  15.420  0.00  0.00    +0.000 A 
ATOM     10  C   UNL     1      47.938   3.018  15.448  0.00  0.00    +0.000 A 
ATOM     11  C   UNL     1      48.387   2.466  16.650  0.00  0.00    +0.000 A 
ATOM     12  C   UNL     1      48.207   3.190  17.813  0.00  0.00    +0.000 A 
ATOM     13  N   UNL     1      47.612   4.398  17.850  0.00  0.00    +0.000 NA
ATOM     14  C   UNL     1      47.182   4.902  16.664  0.00  0.00    +0.000 A 
ENDBRANCH   7   9
ENDBRANCH   1   2
BRANCH   1  15
ATOM     15  O   UNL     1      44.004   4.681  10.188  0.00  0.00    +0.000 OA
BRANCH  15  19
ATOM     16  C   UNL     1      46.431   2.456   7.719  0.00  0.00    +0.000 A 
ATOM     17  C   UNL     1      45.631   1.811   8.664  0.00  0.00    +0.000 A 
ATOM     18  C   UNL     1      44.813   2.578   9.496  0.00  0.00    +0.000 A 
ATOM     19  C   UNL     1      44.825   3.957   9.348  0.00  0.00    +0.000 A 
ATOM     20  N   UNL     1      45.593   4.606   8.445  0.00  0.00    +0.000 NA
ATOM     21  C   UNL     1      46.388   3.841   7.658  0.00  0.00    +0.000 A 
BRANCH  16  23
ATOM     22  N   UNL     1      48.391   2.445   6.280  0.00  0.00    +0.000 N 
ATOM     23  C   UNL     1      47.341   1.743   6.799  0.00  0.00    +0.000 C 
ATOM     24  O   UNL     1      47.185   0.555   6.544  0.00  0.00    +0.000 OA
ATOM     25  H   UNL     1      49.063   1.910   5.744  0.00  0.00    +0.000 HD
ATOM     26  H   UNL     1      48.695   3.333   6.655  0.00  0.00    +0.000 HD
ENDBRANCH  16  23
ENDBRANCH  15  19
ENDBRANCH   1  15
TORSDOF 5
ENDMDL
MODEL 4
REMARK VINA RESULT:    -7.531      3.235      7.328
REMARK INTER + INTRA:         -10.522
REMARK INTER:                  -9.946
REMARK INTRA:                  -0.576
REMARK UNBOUND:                -0.789
REMARK  Name = 
REMARK  5 active torsions:
REMARK  status: ('A' for Active; 'I' for Inactive)
REMARK    1  A    between atoms: C_2  and  C_4
REMARK    2  A    between atoms: C_7  and  O_8
REMARK    3  A    between atoms: O_8  and  C_9
REMARK    4  A    between atoms: C_9  and  C_10
REMARK    5  A    between atoms: C_15  and  C_16
REMARK                            x       y       z     vdW  Elec       q    Type
REMARK                         _______ _______ _______ _____ _____    ______ ____
ROOT
ATOM      1  C   UNL     1      45.070   6.200  11.159  0.00  0.00    +0.000 C 
ENDROOT
BRANCH   1   2
ATOM      2  C   UNL     1      44.845   4.831  10.551  0.00  0.00    +0.000 A 
ATOM      3  C   UNL     1      43.962   3.911  11.123  0.00  0.00    +0.000 A 
ATOM      4  C   UNL     1      43.819   2.644  10.565  0.00  0.00    +0.000 A 
ATOM      5  C   UNL     1      44.569   2.285   9.446  0.00  0.00    +0.000 A 
ATOM      6  F   UNL     1      44.403   1.041   8.971  0.00  0.00    +0.000 F 
ATOM      7  C   UNL     1      45.480   3.166   8.838  0.00  0.00    +0.000 A 
ATOM      8  C   UNL     1      45.599   4.445   9.423  0.00  0.00    +0.000 A 
BRANCH   7   9
ATOM      9  C   UNL     1      46.272   2.787   7.644  0.00  0.00    +0.000 A 
ATOM     10  C   UNL     1      46.244   3.531   6.453  0.00  0.00    +0.000 A 
ATOM     11  C   UNL     1      46.998   3.139   5.345  0.00  0.00    +0.000 A 
ATOM     12  C   UNL     1      47.780   2.004   5.449  0.00  0.00    +0.000 A 
ATOM     13  N   UNL     1      47.848   1.251   6.564  0.00  0.00    +0.000 NA
ATOM     14  C   UNL     1      47.098   1.658   7.621  0.00  0.00    +0.000 A 
ENDBRANCH   7   9
ENDBRANCH   1   2
BRANCH   1  15
ATOM     15  O   UNL     1      46.446   6.579  11.069  0.00  0.00    +0.000 OA
BRANCH  15  19
ATOM     16  C   UNL     1      48.295   6.367  14.741  0.00  0.00    +0.000 A 
ATOM     17  C   UNL     1      47.347   5.405  14.388  0.00  0.00    +0.000 A 
ATOM     18  C   UNL     1      46.727   5.489  13.140  0.00  0.00    +0.000 A 
ATOM     19  C   UNL     1      47.081   6.529  12.294  0.00  0.00    +0.000 A 
ATOM     20  N   UNL     1      47.990   7.476  12.612  0.00  0.00    +0.000 NA
ATOM     21  C   UNL     1      48.569   7.380  13.834  0.00  0.00    +0.000 A 
BRANCH  16  23
ATOM     22  N   UNL     1      48.263   6.660  17.154  0.00  0.00    +0.000 N 
ATOM     23  C   UNL     1      49.000   6.379  16.038  0.00  0.00    +0.000 C 
ATOM     24  O   UNL     1      50.191   6.108  16.117  0.00  0.00    +0.000 OA
ATOM     25  H   UNL     1      48.740   6.553  18.041  0.00  0.00    +0.000 HD
ATOM     26  H   UNL     1      47.254   6.639  17.163  0.00  0.00    +0.000 HD
ENDBRANCH  16  23
ENDBRANCH  15  19
ENDBRANCH   1  15
TORSDOF 5
ENDMDL
MODEL 5
REMARK VINA RESULT:    -6.961      5.576      8.041
REMARK INTER + INTRA:          -9.784
REMARK INTER:                  -8.931
REMARK INTRA:                  -0.854
REMARK UNBOUND:                -0.789
REMARK  Name = 
REMARK  5 active torsions:
REMARK  status: ('A' for Active; 'I' for Inactive)
REMARK    1  A    between atoms: C_2  and  C_4
REMARK    2  A    between atoms: C_7  and  O_8
REMARK    3  A    between atoms: O_8  and  C_9
REMARK    4  A    between atoms: C_9  and  C_10
REMARK    5  A    between atoms: C_15  and  C_16
REMARK                            x       y       z     vdW  Elec       q    Type
REMARK                         _______ _______ _______ _____ _____    ______ ____
ROOT
ATOM      1  C   UNL     1      49.299   6.599  16.181  0.00  0.00    +0.000 C 
ENDROOT
BRANCH   1   2
ATOM      2  C   UNL     1      48.730   6.583  14.777  0.00  0.00    +0.000 A 
ATOM      3  C   UNL     1      49.322   7.306  13.738  0.00  0.00    +0.000 A 
ATOM      4  C   UNL     1      48.741   7.308  12.473  0.00  0.00    +0.000 A 
ATOM      5  C   UNL     1      47.561   6.602  12.245  0.00  0.00    +0.000 A 
ATOM      6  F   UNL     1      47.040   6.663  11.010  0.00  0.00    +0.000 F 
ATOM      7  C   UNL     1      46.918   5.867  13.256  0.00  0.00    +0.000 A 
ATOM      8  C   UNL     1      47.532   5.881  14.526  0.00  0.00    +0.000 A 
BRANCH   7   9
ATOM      9  C   UNL     1      45.666   5.112  13.013  0.00  0.00    +0.000 A 
ATOM     10  C   UNL     1      44.402   5.724  13.019  0.00  0.00    +0.000 A 
ATOM     11  C   UNL     1      43.243   4.979  12.795  0.00  0.00    +0.000 A 
ATOM     12  C   UNL     1      43.368   3.624  12.558  0.00  0.00    +0.000 A 
ATOM     13  N   UNL     1      44.551   2.981  12.540  0.00  0.00    +0.000 NA
ATOM     14  C   UNL     1      45.658   3.735  12.767  0.00  0.00    +0.000 A 
ENDBRANCH   7   9
ENDBRANCH   1   2
BRANCH   1  15
ATOM     15  O   UNL     1      48.708   5.574  16.984  0.00  0.00    +0.000 OA
BRANCH  15  19
ATOM     16  C   UNL     1      51.274   2.398  17.502  0.00  0.00    +0.000 A 
ATOM     17  C   UNL     1      51.696   3.687  17.830  0.00  0.00    +0.000 A 
ATOM     18  C   UNL     1      50.816   4.756  17.649  0.00  0.00    +0.000 A 
ATOM     19  C   UNL     1      49.549   4.493  17.150  0.00  0.00    +0.000 A 
ATOM     20  N   UNL     1      49.117   3.256  16.820  0.00  0.00    +0.000 NA
ATOM     21  C   UNL     1      49.993   2.237  16.993  0.00  0.00    +0.000 A 
BRANCH  16  23
ATOM     22  N   UNL     1      51.574   0.098  18.231  0.00  0.00    +0.000 N 
ATOM     23  C   UNL     1      52.127   1.201  17.643  0.00  0.00    +0.000 C 
ATOM     24  O   UNL     1      53.273   1.182  17.213  0.00  0.00    +0.000 OA
ATOM     25  H   UNL     1      52.137  -0.744  18.216  0.00  0.00    +0.000 HD
ATOM     26  H   UNL     1      50.579  -0.010  18.366  0.00  0.00    +0.000 HD
ENDBRANCH  16  23
ENDBRANCH  15  19
ENDBRANCH   1  15
TORSDOF 5
ENDMDL
MODEL 6
REMARK VINA RESULT:    -6.791      4.105      7.501
REMARK INTER + INTRA:          -9.564
REMARK INTER:                  -9.264
REMARK INTRA:                  -0.300
REMARK UNBOUND:                -0.789
REMARK  Name = 
REMARK  5 active torsions:
REMARK  status: ('A' for Active; 'I' for Inactive)
REMARK    1  A    between atoms: C_2  and  C_4
REMARK    2  A    between atoms: C_7  and  O_8
REMARK    3  A    between atoms: O_8  and  C_9
REMARK    4  A    between atoms: C_9  and  C_10
REMARK    5  A    between atoms: C_15  and  C_16
REMARK                            x       y       z     vdW  Elec       q    Type
REMARK                         _______ _______ _______ _____ _____    ______ ____
ROOT
ATOM      1  C   UNL     1      48.895   7.309  13.263  0.00  0.00    +0.000 C 
ENDROOT
BRANCH   1   2
ATOM      2  C   UNL     1      47.507   7.360  12.656  0.00  0.00    +0.000 A 
ATOM      3  C   UNL     1      46.633   8.420  12.914  0.00  0.00    +0.000 A 
ATOM      4  C   UNL     1      45.348   8.407  12.379  0.00  0.00    +0.000 A 
ATOM      5  C   UNL     1      44.925   7.331  11.601  0.00  0.00    +0.000 A 
ATOM      6  F   UNL     1      43.667   7.368  11.135  0.00  0.00    +0.000 F 
ATOM      7  C   UNL     1      45.759   6.234  11.320  0.00  0.00    +0.000 A 
ATOM      8  C   UNL     1      47.057   6.278  11.871  0.00  0.00    +0.000 A 
BRANCH   7   9
ATOM      9  C   UNL     1      45.313   5.093  10.487  0.00  0.00    +0.000 A 
ATOM     10  C   UNL     1      45.589   5.007   9.113  0.00  0.00    +0.000 A 
ATOM     11  C   UNL     1      45.145   3.921   8.357  0.00  0.00    +0.000 A 
ATOM     12  C   UNL     1      44.431   2.924   8.996  0.00  0.00    +0.000 A 
ATOM     13  N   UNL     1      44.135   2.950  10.309  0.00  0.00    +0.000 NA
ATOM     14  C   UNL     1      44.578   4.025  11.012  0.00  0.00    +0.000 A 
ENDBRANCH   7   9
ENDBRANCH   1   2
BRANCH   1  15
ATOM     15  O   UNL     1      48.862   7.680  14.644  0.00  0.00    +0.000 OA
BRANCH  15  19
ATOM     16  C   UNL     1      47.965   4.537  17.144  0.00  0.00    +0.000 A 
ATOM     17  C   UNL     1      48.599   5.669  17.659  0.00  0.00    +0.000 A 
ATOM     18  C   UNL     1      48.899   6.728  16.799  0.00  0.00    +0.000 A 
ATOM     19  C   UNL     1      48.550   6.614  15.462  0.00  0.00    +0.000 A 
ATOM     20  N   UNL     1      47.941   5.529  14.938  0.00  0.00    +0.000 NA
ATOM     21  C   UNL     1      47.672   4.509  15.789  0.00  0.00    +0.000 A 
BRANCH  16  23
ATOM     22  N   UNL     1      48.315   3.160  19.117  0.00  0.00    +0.000 N 
ATOM     23  C   UNL     1      47.615   3.357  17.961  0.00  0.00    +0.000 C 
ATOM     24  O   UNL     1      46.704   2.606  17.636  0.00  0.00    +0.000 OA
ATOM     25  H   UNL     1      47.985   2.413  19.717  0.00  0.00    +0.000 HD
ATOM     26  H   UNL     1      48.887   3.878  19.540  0.00  0.00    +0.000 HD
ENDBRANCH  16  23
ENDBRANCH  15  19
ENDBRANCH   1  15
TORSDOF 5
ENDMDL
MODEL 7
REMARK VINA RESULT:    -6.444      6.132      8.439
REMARK INTER + INTRA:          -9.116
REMARK INTER:                  -8.347
REMARK INTRA:                  -0.768
REMARK UNBOUND:                -0.789
REMARK  Name = 
REMARK  5 active torsions:
REMARK  status: ('A' for Active; 'I' for Inactive)
REMARK    1  A    between atoms: C_2  and  C_4
REMARK    2  A    between atoms: C_7  and  O_8
REMARK    3  A    between atoms: O_8  and  C_9
REMARK    4  A    between atoms: C_9  and  C_10
REMARK    5  A    between atoms: C_15  and  C_16
REMARK                            x       y       z     vdW  Elec       q    Type
REMARK                         _______ _______ _______ _____ _____    ______ ____
ROOT
ATOM      1  C   UNL     1      48.262   4.393  16.916  0.00  0.00    +0.000 C 
ENDROOT
BRANCH   1   2
ATOM      2  C   UNL     1      47.912   5.095  15.620  0.00  0.00    +0.000 A 
ATOM      3  C   UNL     1      48.606   6.229  15.189  0.00  0.00    +0.000 A 
ATOM      4  C   UNL     1      48.222   6.876  14.018  0.00  0.00    +0.000 A 
ATOM      5  C   UNL     1      47.136   6.405  13.282  0.00  0.00    +0.000 A 
ATOM      6  F   UNL     1      46.803   7.087  12.176  0.00  0.00    +0.000 F 
ATOM      7  C   UNL     1      46.396   5.276  13.676  0.00  0.00    +0.000 A 
ATOM      8  C   UNL     1      46.811   4.639  14.864  0.00  0.00    +0.000 A 
BRANCH   7   9
ATOM      9  C   UNL     1      45.245   4.771  12.892  0.00  0.00    +0.000 A 
ATOM     10  C   UNL     1      44.003   5.428  12.865  0.00  0.00    +0.000 A 
ATOM     11  C   UNL     1      42.937   4.919  12.121  0.00  0.00    +0.000 A 
ATOM     12  C   UNL     1      43.134   3.754  11.404  0.00  0.00    +0.000 A 
ATOM     13  N   UNL     1      44.299   3.079  11.391  0.00  0.00    +0.000 NA
ATOM     14  C   UNL     1      45.313   3.600  12.130  0.00  0.00    +0.000 A 
ENDBRANCH   7   9
ENDBRANCH   1   2
BRANCH   1  15
ATOM     15  O   UNL     1      48.611   3.027  16.679  0.00  0.00    +0.000 OA
BRANCH  15  19
ATOM     16  C   UNL     1      52.457   2.245  17.921  0.00  0.00    +0.000 A 
ATOM     17  C   UNL     1      51.925   3.525  18.087  0.00  0.00    +0.000 A 
ATOM     18  C   UNL     1      50.619   3.777  17.660  0.00  0.00    +0.000 A 
ATOM     19  C   UNL     1      49.898   2.740  17.089  0.00  0.00    +0.000 A 
ATOM     20  N   UNL     1      50.390   1.494  16.912  0.00  0.00    +0.000 NA
ATOM     21  C   UNL     1      51.663   1.277  17.322  0.00  0.00    +0.000 A 
BRANCH  16  23
ATOM     22  N   UNL     1      54.809   1.958  17.377  0.00  0.00    +0.000 N 
ATOM     23  C   UNL     1      53.828   1.874  18.325  0.00  0.00    +0.000 C 
ATOM     24  O   UNL     1      54.086   1.544  19.475  0.00  0.00    +0.000 OA
ATOM     25  H   UNL     1      55.757   1.809  17.703  0.00  0.00    +0.000 HD
ATOM     26  H   UNL     1      54.689   2.457  16.508  0.00  0.00    +0.000 HD
ENDBRANCH  16  23
ENDBRANCH  15  19
ENDBRANCH   1  15
TORSDOF 5
ENDMDL
MODEL 8
REMARK VINA RESULT:    -6.409      5.451      7.445
REMARK INTER + INTRA:          -9.071
REMARK INTER:                  -8.590
REMARK INTRA:                  -0.482
REMARK UNBOUND:                -0.789
REMARK  Name = 
REMARK  5 active torsions:
REMARK  status: ('A' for Active; 'I' for Inactive)
REMARK    1  A    between atoms: C_2  and  C_4
REMARK    2  A    between atoms: C_7  and  O_8
REMARK    3  A    between atoms: O_8  and  C_9
REMARK    4  A    between atoms: C_9  and  C_10
REMARK    5  A    between atoms: C_15  and  C_16
REMARK                            x       y       z     vdW  Elec       q    Type
REMARK                         _______ _______ _______ _____ _____    ______ ____
ROOT
ATOM      1  C   UNL     1      46.921   4.154  16.061  0.00  0.00    +0.000 C 
ENDROOT
BRANCH   1   2
ATOM      2  C   UNL     1      47.992   4.294  17.124  0.00  0.00    +0.000 A 
ATOM      3  C   UNL     1      47.857   5.191  18.186  0.00  0.00    +0.000 A 
ATOM      4  C   UNL     1      48.885   5.329  19.116  0.00  0.00    +0.000 A 
ATOM      5  C   UNL     1      50.056   4.584  18.978  0.00  0.00    +0.000 A 
ATOM      6  F   UNL     1      51.017   4.780  19.894  0.00  0.00    +0.000 F 
ATOM      7  C   UNL     1      50.248   3.676  17.923  0.00  0.00    +0.000 A 
ATOM      8  C   UNL     1      49.188   3.555  17.000  0.00  0.00    +0.000 A 
BRANCH   7   9
ATOM      9  C   UNL     1      51.490   2.880  17.779  0.00  0.00    +0.000 A 
ATOM     10  C   UNL     1      51.476   1.494  17.548  0.00  0.00    +0.000 A 
ATOM     11  C   UNL     1      52.665   0.775  17.428  0.00  0.00    +0.000 A 
ATOM     12  C   UNL     1      53.862   1.459  17.532  0.00  0.00    +0.000 A 
ATOM     13  N   UNL     1      53.939   2.785  17.753  0.00  0.00    +0.000 NA
ATOM     14  C   UNL     1      52.762   3.453  17.872  0.00  0.00    +0.000 A 
ENDBRANCH   7   9
ENDBRANCH   1   2
BRANCH   1  15
ATOM     15  O   UNL     1      47.505   4.007  14.764  0.00  0.00    +0.000 OA
BRANCH  15  19
ATOM     16  C   UNL     1      44.811   4.839  11.766  0.00  0.00    +0.000 A 
ATOM     17  C   UNL     1      45.422   5.887  12.455  0.00  0.00    +0.000 A 
ATOM     18  C   UNL     1      46.334   5.591  13.470  0.00  0.00    +0.000 A 
ATOM     19  C   UNL     1      46.599   4.260  13.754  0.00  0.00    +0.000 A 
ATOM     20  N   UNL     1      46.018   3.227  13.106  0.00  0.00    +0.000 NA
ATOM     21  C   UNL     1      45.128   3.539  12.134  0.00  0.00    +0.000 A 
BRANCH  16  23
ATOM     22  N   UNL     1      44.205   4.713   9.415  0.00  0.00    +0.000 N 
ATOM     23  C   UNL     1      43.824   5.040  10.685  0.00  0.00    +0.000 C 
ATOM     24  O   UNL     1      42.694   5.445  10.923  0.00  0.00    +0.000 OA
ATOM     25  H   UNL     1      43.480   4.751   8.708  0.00  0.00    +0.000 HD
ATOM     26  H   UNL     1      45.020   4.150   9.215  0.00  0.00    +0.000 HD
ENDBRANCH  16  23
ENDBRANCH  15  19
ENDBRANCH   1  15
TORSDOF 5
ENDMDL
MODEL 9
REMARK VINA RESULT:    -6.319      5.297      7.590
REMARK INTER + INTRA:          -8.954
REMARK INTER:                  -8.081
REMARK INTRA:                  -0.873
REMARK UNBOUND:                -0.789
REMARK  Name = 
REMARK  5 active torsions:
REMARK  status: ('A' for Active; 'I' for Inactive)
REMARK    1  A    between atoms: C_2  and  C_4
REMARK    2  A    between atoms: C_7  and  O_8
REMARK    3  A    between atoms: O_8  and  C_9
REMARK    4  A    between atoms: C_9  and  C_10
REMARK    5  A    between atoms: C_15  and  C_16
REMARK                            x       y       z     vdW  Elec       q    Type
REMARK                         _______ _______ _______ _____ _____    ______ ____
ROOT
ATOM      1  C   UNL     1      48.717   7.217  15.278  0.00  0.00    +0.000 C 
ENDROOT
BRANCH   1   2
ATOM      2  C   UNL     1      48.949   6.478  16.581  0.00  0.00    +0.000 A 
ATOM      3  C   UNL     1      48.435   6.949  17.792  0.00  0.00    +0.000 A 
ATOM      4  C   UNL     1      48.711   6.271  18.976  0.00  0.00    +0.000 A 
ATOM      5  C   UNL     1      49.513   5.131  18.957  0.00  0.00    +0.000 A 
ATOM      6  F   UNL     1      49.760   4.536  20.134  0.00  0.00    +0.000 F 
ATOM      7  C   UNL     1      50.064   4.620  17.769  0.00  0.00    +0.000 A 
ATOM      8  C   UNL     1      49.764   5.327  16.585  0.00  0.00    +0.000 A 
BRANCH   7   9
ATOM      9  C   UNL     1      50.912   3.405  17.747  0.00  0.00    +0.000 A 
ATOM     10  C   UNL     1      52.236   3.401  18.216  0.00  0.00    +0.000 A 
ATOM     11  C   UNL     1      53.009   2.239  18.172  0.00  0.00    +0.000 A 
ATOM     12  C   UNL     1      52.438   1.088  17.663  0.00  0.00    +0.000 A 
ATOM     13  N   UNL     1      51.176   1.031  17.199  0.00  0.00    +0.000 NA
ATOM     14  C   UNL     1      50.454   2.180  17.251  0.00  0.00    +0.000 A 
ENDBRANCH   7   9
ENDBRANCH   1   2
BRANCH   1  15
ATOM     15  O   UNL     1      48.750   6.317  14.168  0.00  0.00    +0.000 OA
BRANCH  15  19
ATOM     16  C   UNL     1      44.998   5.437  12.722  0.00  0.00    +0.000 A 
ATOM     17  C   UNL     1      45.804   4.412  13.221  0.00  0.00    +0.000 A 
ATOM     18  C   UNL     1      47.075   4.724  13.708  0.00  0.00    +0.000 A 
ATOM     19  C   UNL     1      47.488   6.047  13.679  0.00  0.00    +0.000 A 
ATOM     20  N   UNL     1      46.731   7.057  13.197  0.00  0.00    +0.000 NA
ATOM     21  C   UNL     1      45.507   6.728  12.718  0.00  0.00    +0.000 A 
BRANCH  16  23
ATOM     22  N   UNL     1      42.583   5.595  12.943  0.00  0.00    +0.000 N 
ATOM     23  C   UNL     1      43.645   5.216  12.173  0.00  0.00    +0.000 C 
ATOM     24  O   UNL     1      43.482   4.749  11.053  0.00  0.00    +0.000 OA
ATOM     25  H   UNL     1      41.671   5.540  12.503  0.00  0.00    +0.000 HD
ATOM     26  H   UNL     1      42.676   6.203  13.744  0.00  0.00    +0.000 HD
ENDBRANCH  16  23
ENDBRANCH  15  19
ENDBRANCH   1  15
TORSDOF 5
ENDMDL
