MODEL 1
REMARK VINA RESULT:    -8.393      0.000      0.000
REMARK INTER + INTRA:         -13.686
REMARK INTER:                 -12.318
REMARK INTRA:                  -1.368
REMARK UNBOUND:                -1.368
REMARK  Name = 
REMARK  9 active torsions:
REMARK  status: ('A' for Active; 'I' for Inactive)
REMARK    1  A    between atoms: C_2  and  C_22
REMARK    2  A    between atoms: N_3  and  C_4
REMARK    3  A    between atoms: C_4  and  C_5
REMARK    4  A    between atoms: C_8  and  C_9
REMARK    5  A    between atoms: C_9  and  O_10
REMARK    6  A    between atoms: C_9  and  C_11
REMARK    7  A    between atoms: C_9  and  C_13
REMARK    8  A    between atoms: C_11  and  O_12
REMARK    9  A    between atoms: C_13  and  C_14
REMARK                            x       y       z     vdW  Elec       q    Type
REMARK                         _______ _______ _______ _____ _____    ______ ____
ROOT
ATOM      1  C   UNL     1      47.323   6.219  13.173  0.00  0.00    +0.000 A 
ATOM      2  C   UNL     1      46.873   6.676  11.936  0.00  0.00    +0.000 A 
ATOM      3  C   UNL     1      45.776   6.074  11.329  0.00  0.00    +0.000 A 
ATOM      4  C   UNL     1      45.162   4.996  11.960  0.00  0.00    +0.000 A 
ATOM      5  N   UNL     1      45.618   4.496  13.146  0.00  0.00    +0.000 NA
ATOM      6  C   UNL     1      46.670   5.123  13.723  0.00  0.00    +0.000 A 
ENDROOT
BRANCH   1   7
ATOM      7  C   UNL     1      48.485   6.873  13.855  0.00  0.00    +0.000 C 
BRANCH   7  10
ATOM      8  O   UNL     1      50.312   6.194  15.904  0.00  0.00    +0.000 OA
ATOM      9  C   UNL     1      49.222   6.672  16.203  0.00  0.00    +0.000 C 
ATOM     10  N   UNL     1      48.270   6.992  15.271  0.00  0.00    +0.000 N 
ATOM     11  H   UNL     1      47.431   7.480  15.561  0.00  0.00    +0.000 HD
BRANCH   9  12
ATOM     12  C   UNL     1      48.844   6.905  17.600  0.00  0.00    +0.000 A 
ATOM     13  C   UNL     1      48.466   8.174  18.018  0.00  0.00    +0.000 A 
ATOM     14  S   UNL     1      48.056   8.251  19.672  0.00  0.00    +0.000 S 
ATOM     15  C   UNL     1      48.328   6.583  19.875  0.00  0.00    +0.000 A 
ATOM     16  N   UNL     1      48.125   5.981  21.077  0.00  0.00    +0.000 NA
ATOM     17  C   UNL     1      48.330   4.706  21.078  0.00  0.00    +0.000 A 
ATOM     18  N   UNL     1      48.731   3.978  19.986  0.00  0.00    +0.000 N 
ATOM     19  C   UNL     1      49.015   4.553  18.770  0.00  0.00    +0.000 A 
ATOM     20  O   UNL     1      49.490   3.892  17.855  0.00  0.00    +0.000 OA
ATOM     21  C   UNL     1      48.755   5.980  18.705  0.00  0.00    +0.000 A 
ATOM     22  H   UNL     1      48.905   2.988  20.061  0.00  0.00    +0.000 HD
ENDBRANCH   9  12
ENDBRANCH   7  10
ENDBRANCH   1   7
BRANCH   4  23
ATOM     23  C   UNL     1      43.931   4.297  11.384  0.00  0.00    +0.000 C 
BRANCH  23  24
ATOM     24  O   UNL     1      43.956   2.904  11.800  0.00  0.00    +0.000 OA
ATOM     25  H   UNL     1      44.902   2.744  12.016  0.00  0.00    +0.000 HD
ENDBRANCH  23  24
BRANCH  23  26
ATOM     26  C   UNL     1      42.643   4.881  12.024  0.00  0.00    +0.000 C 
BRANCH  26  27
ATOM     27  O   UNL     1      42.889   5.518  13.283  0.00  0.00    +0.000 OA
ATOM     28  H   UNL     1      43.442   6.297  13.082  0.00  0.00    +0.000 HD
ENDBRANCH  26  27
ENDBRANCH  23  26
BRANCH  23  29
ATOM     29  C   UNL     1      43.788   4.377   9.843  0.00  0.00    +0.000 C 
BRANCH  29  30
ATOM     30  C   UNL     1      44.793   3.572   9.050  0.00  0.00    +0.000 A 
ATOM     31  C   UNL     1      45.690   4.197   8.187  0.00  0.00    +0.000 A 
ATOM     32  C   UNL     1      46.598   3.420   7.477  0.00  0.00    +0.000 A 
ATOM     33  C   UNL     1      46.599   2.043   7.654  0.00  0.00    +0.000 A 
ATOM     34  C   UNL     1      45.690   1.501   8.542  0.00  0.00    +0.000 A 
ATOM     35  N   UNL     1      44.792   2.228   9.243  0.00  0.00    +0.000 NA
ENDBRANCH  29  30
ENDBRANCH  23  29
ENDBRANCH   4  23
TORSDOF 9
ENDMDL
MODEL 2
REMARK VINA RESULT:    -8.119      1.391      2.091
REMARK INTER + INTRA:         -13.285
REMARK INTER:                 -11.833
REMARK INTRA:                  -1.452
REMARK UNBOUND:                -1.368
REMARK  Name = 
REMARK  9 active torsions:
REMARK  status: ('A' for Active; 'I' for Inactive)
REMARK    1  A    between atoms: C_2  and  C_22
REMARK    2  A    between atoms: N_3  and  C_4
REMARK    3  A    between atoms: C_4  and  C_5
REMARK    4  A    between atoms: C_8  and  C_9
REMARK    5  A    between atoms: C_9  and  O_10
REMARK    6  A    between atoms: C_9  and  C_11
REMARK    7  A    between atoms: C_9  and  C_13
REMARK    8  A    between atoms: C_11  and  O_12
REMARK    9  A    between atoms: C_13  and  C_14
REMARK                            x       y       z     vdW  Elec       q    Type
REMARK                         _______ _______ _______ _____ _____    ______ ____
ROOT
ATOM      1  C   UNL     1      47.341   6.059  13.372  0.00  0.00    +0.000 A 
ATOM      2  C   UNL     1      46.955   6.569  12.134  0.00  0.00    +0.000 A 
ATOM      3  C   UNL     1      45.912   5.976  11.432  0.00  0.00    +0.000 A 
ATOM      4  C   UNL     1      45.288   4.854  11.969  0.00  0.00    +0.000 A 
ATOM      5  N   UNL     1      45.684   4.303  13.154  0.00  0.00    +0.000 NA
ATOM      6  C   UNL     1      46.684   4.922  13.825  0.00  0.00    +0.000 A 
ENDROOT
BRANCH   1   7
ATOM      7  C   UNL     1      48.444   6.701  14.155  0.00  0.00    +0.000 C 
BRANCH   7  10
ATOM      8  O   UNL     1      50.191   5.808  16.192  0.00  0.00    +0.000 OA
ATOM      9  C   UNL     1      49.091   6.258  16.497  0.00  0.00    +0.000 C 
ATOM     10  N   UNL     1      48.176   6.677  15.567  0.00  0.00    +0.000 N 
ATOM     11  H   UNL     1      47.327   7.136  15.873  0.00  0.00    +0.000 HD
BRANCH   9  12
ATOM     12  C   UNL     1      48.660   6.351  17.895  0.00  0.00    +0.000 A 
ATOM     13  C   UNL     1      48.736   5.239  18.724  0.00  0.00    +0.000 A 
ATOM     14  S   UNL     1      48.198   5.539  20.314  0.00  0.00    +0.000 S 
ATOM     15  C   UNL     1      47.886   7.175  19.961  0.00  0.00    +0.000 A 
ATOM     16  N   UNL     1      47.425   8.023  20.918  0.00  0.00    +0.000 NA
ATOM     17  C   UNL     1      47.272   9.243  20.522  0.00  0.00    +0.000 A 
ATOM     18  N   UNL     1      47.528   9.690  19.251  0.00  0.00    +0.000 N 
ATOM     19  C   UNL     1      47.929   8.857  18.234  0.00  0.00    +0.000 A 
ATOM     20  O   UNL     1      48.027   9.267  17.084  0.00  0.00    +0.000 OA
ATOM     21  C   UNL     1      48.160   7.482  18.640  0.00  0.00    +0.000 A 
ATOM     22  H   UNL     1      47.357  10.651  18.997  0.00  0.00    +0.000 HD
ENDBRANCH   9  12
ENDBRANCH   7  10
ENDBRANCH   1   7
BRANCH   4  23
ATOM     23  C   UNL     1      44.111   4.159  11.284  0.00  0.00    +0.000 C 
BRANCH  23  24
ATOM     24  O   UNL     1      44.186   2.736  11.572  0.00  0.00    +0.000 OA
ATOM     25  H   UNL     1      43.244   2.466  11.652  0.00  0.00    +0.000 HD
ENDBRANCH  23  24
BRANCH  23  26
ATOM     26  C   UNL     1      42.776   4.625  11.926  0.00  0.00    +0.000 C 
BRANCH  26  27
ATOM     27  O   UNL     1      42.969   5.573  12.983  0.00  0.00    +0.000 OA
ATOM     28  H   UNL     1      43.822   6.009  12.794  0.00  0.00    +0.000 HD
ENDBRANCH  26  27
ENDBRANCH  23  26
BRANCH  23  29
ATOM     29  C   UNL     1      44.017   4.377   9.754  0.00  0.00    +0.000 C 
BRANCH  29  30
ATOM     30  C   UNL     1      45.018   3.609   8.921  0.00  0.00    +0.000 A 
ATOM     31  C   UNL     1      45.869   4.268   8.037  0.00  0.00    +0.000 A 
ATOM     32  C   UNL     1      46.776   3.524   7.290  0.00  0.00    +0.000 A 
ATOM     33  C   UNL     1      46.820   2.146   7.452  0.00  0.00    +0.000 A 
ATOM     34  C   UNL     1      45.956   1.569   8.361  0.00  0.00    +0.000 A 
ATOM     35  N   UNL     1      45.061   2.263   9.098  0.00  0.00    +0.000 NA
ENDBRANCH  29  30
ENDBRANCH  23  29
ENDBRANCH   4  23
TORSDOF 9
ENDMDL
MODEL 3
REMARK VINA RESULT:    -7.583      2.102      2.469
REMARK INTER + INTRA:         -12.498
REMARK INTER:                 -10.998
REMARK INTRA:                  -1.500
REMARK UNBOUND:                -1.368
REMARK  Name = 
REMARK  9 active torsions:
REMARK  status: ('A' for Active; 'I' for Inactive)
REMARK    1  A    between atoms: C_2  and  C_22
REMARK    2  A    between atoms: N_3  and  C_4
REMARK    3  A    between atoms: C_4  and  C_5
REMARK    4  A    between atoms: C_8  and  C_9
REMARK    5  A    between atoms: C_9  and  O_10
REMARK    6  A    between atoms: C_9  and  C_11
REMARK    7  A    between atoms: C_9  and  C_13
REMARK    8  A    between atoms: C_11  and  O_12
REMARK    9  A    between atoms: C_13  and  C_14
REMARK                            x       y       z     vdW  Elec       q    Type
REMARK                         _______ _______ _______ _____ _____    ______ ____
ROOT
ATOM      1  C   UNL     1      46.899   6.921  12.591  0.00  0.00    +0.000 A 
ATOM      2  C   UNL     1      46.831   5.710  13.279  0.00  0.00    +0.000 A 
ATOM      3  C   UNL     1      46.021   4.685  12.805  0.00  0.00    +0.000 A 
ATOM      4  C   UNL     1      45.261   4.899  11.659  0.00  0.00    +0.000 A 
ATOM      5  N   UNL     1      45.269   6.094  10.998  0.00  0.00    +0.000 NA
ATOM      6  C   UNL     1      46.090   7.062  11.471  0.00  0.00    +0.000 A 
ENDROOT
BRANCH   1   7
ATOM      7  C   UNL     1      47.788   8.026  13.071  0.00  0.00    +0.000 C 
BRANCH   7  10
ATOM      8  O   UNL     1      48.363   8.515  15.796  0.00  0.00    +0.000 OA
ATOM      9  C   UNL     1      49.098   7.777  15.149  0.00  0.00    +0.000 C 
ATOM     10  N   UNL     1      48.908   7.520  13.816  0.00  0.00    +0.000 N 
ATOM     11  H   UNL     1      49.480   6.824  13.355  0.00  0.00    +0.000 HD
BRANCH   9  12
ATOM     12  C   UNL     1      50.269   7.136  15.756  0.00  0.00    +0.000 A 
ATOM     13  C   UNL     1      51.538   7.659  15.547  0.00  0.00    +0.000 A 
ATOM     14  S   UNL     1      52.772   6.785  16.335  0.00  0.00    +0.000 S 
ATOM     15  C   UNL     1      51.648   5.703  17.018  0.00  0.00    +0.000 A 
ATOM     16  N   UNL     1      52.051   4.704  17.846  0.00  0.00    +0.000 NA
ATOM     17  C   UNL     1      51.090   3.985  18.324  0.00  0.00    +0.000 A 
ATOM     18  N   UNL     1      49.760   4.170  18.040  0.00  0.00    +0.000 N 
ATOM     19  C   UNL     1      49.312   5.122  17.156  0.00  0.00    +0.000 A 
ATOM     20  O   UNL     1      48.132   5.176  16.830  0.00  0.00    +0.000 OA
ATOM     21  C   UNL     1      50.351   5.987  16.626  0.00  0.00    +0.000 A 
ATOM     22  H   UNL     1      49.060   3.553  18.422  0.00  0.00    +0.000 HD
ENDBRANCH   9  12
ENDBRANCH   7  10
ENDBRANCH   1   7
BRANCH   4  23
ATOM     23  C   UNL     1      44.370   3.818  11.047  0.00  0.00    +0.000 C 
BRANCH  23  24
ATOM     24  O   UNL     1      44.926   2.518  11.384  0.00  0.00    +0.000 OA
ATOM     25  H   UNL     1      45.411   2.255  10.570  0.00  0.00    +0.000 HD
ENDBRANCH  23  24
BRANCH  23  26
ATOM     26  C   UNL     1      42.973   3.841  11.722  0.00  0.00    +0.000 C 
BRANCH  26  27
ATOM     27  O   UNL     1      42.522   5.168  12.021  0.00  0.00    +0.000 OA
ATOM     28  H   UNL     1      41.802   5.062  12.671  0.00  0.00    +0.000 HD
ENDBRANCH  26  27
ENDBRANCH  23  26
BRANCH  23  29
ATOM     29  C   UNL     1      44.172   3.918   9.514  0.00  0.00    +0.000 C 
BRANCH  29  30
ATOM     30  C   UNL     1      45.239   3.257   8.672  0.00  0.00    +0.000 A 
ATOM     31  C   UNL     1      46.085   4.013   7.864  0.00  0.00    +0.000 A 
ATOM     32  C   UNL     1      47.054   3.366   7.105  0.00  0.00    +0.000 A 
ATOM     33  C   UNL     1      47.164   1.984   7.181  0.00  0.00    +0.000 A 
ATOM     34  C   UNL     1      46.300   1.307   8.019  0.00  0.00    +0.000 A 
ATOM     35  N   UNL     1      45.346   1.906   8.764  0.00  0.00    +0.000 NA
ENDBRANCH  29  30
ENDBRANCH  23  29
ENDBRANCH   4  23
TORSDOF 9
ENDMDL
MODEL 4
REMARK VINA RESULT:    -7.497      4.513      5.362
REMARK INTER + INTRA:         -12.372
REMARK INTER:                 -10.700
REMARK INTRA:                  -1.673
REMARK UNBOUND:                -1.368
REMARK  Name = 
REMARK  9 active torsions:
REMARK  status: ('A' for Active; 'I' for Inactive)
REMARK    1  A    between atoms: C_2  and  C_22
REMARK    2  A    between atoms: N_3  and  C_4
REMARK    3  A    between atoms: C_4  and  C_5
REMARK    4  A    between atoms: C_8  and  C_9
REMARK    5  A    between atoms: C_9  and  O_10
REMARK    6  A    between atoms: C_9  and  C_11
REMARK    7  A    between atoms: C_9  and  C_13
REMARK    8  A    between atoms: C_11  and  O_12
REMARK    9  A    between atoms: C_13  and  C_14
REMARK                            x       y       z     vdW  Elec       q    Type
REMARK                         _______ _______ _______ _____ _____    ______ ____
ROOT
ATOM      1  C   UNL     1      45.524   7.518  12.538  0.00  0.00    +0.000 A 
ATOM      2  C   UNL     1      45.962   6.426  13.286  0.00  0.00    +0.000 A 
ATOM      3  C   UNL     1      45.662   5.133  12.872  0.00  0.00    +0.000 A 
ATOM      4  C   UNL     1      44.895   4.952  11.725  0.00  0.00    +0.000 A 
ATOM      5  N   UNL     1      44.408   6.006  11.005  0.00  0.00    +0.000 NA
ATOM      6  C   UNL     1      44.743   7.251  11.420  0.00  0.00    +0.000 A 
ENDROOT
BRANCH   1   7
ATOM      7  C   UNL     1      45.862   8.916  12.953  0.00  0.00    +0.000 C 
BRANCH   7  10
ATOM      8  O   UNL     1      48.059   9.357  14.677  0.00  0.00    +0.000 OA
ATOM      9  C   UNL     1      48.220   9.439  13.464  0.00  0.00    +0.000 C 
ATOM     10  N   UNL     1      47.198   9.276  12.565  0.00  0.00    +0.000 N 
ATOM     11  H   UNL     1      47.404   9.250  11.574  0.00  0.00    +0.000 HD
BRANCH   9  12
ATOM     12  C   UNL     1      49.528   9.756  12.883  0.00  0.00    +0.000 A 
ATOM     13  C   UNL     1      50.147  10.964  13.175  0.00  0.00    +0.000 A 
ATOM     14  S   UNL     1      51.662  11.153  12.414  0.00  0.00    +0.000 S 
ATOM     15  C   UNL     1      51.563   9.608  11.705  0.00  0.00    +0.000 A 
ATOM     16  N   UNL     1      52.572   9.125  10.933  0.00  0.00    +0.000 NA
ATOM     17  C   UNL     1      52.381   7.926  10.494  0.00  0.00    +0.000 A 
ATOM     18  N   UNL     1      51.265   7.168  10.747  0.00  0.00    +0.000 N 
ATOM     19  C   UNL     1      50.191   7.640  11.463  0.00  0.00    +0.000 A 
ATOM     20  O   UNL     1      49.161   6.984  11.563  0.00  0.00    +0.000 OA
ATOM     21  C   UNL     1      50.376   8.969  12.019  0.00  0.00    +0.000 A 
ATOM     22  H   UNL     1      51.163   6.248  10.347  0.00  0.00    +0.000 HD
ENDBRANCH   9  12
ENDBRANCH   7  10
ENDBRANCH   1   7
BRANCH   4  23
ATOM     23  C   UNL     1      44.546   3.568  11.177  0.00  0.00    +0.000 C 
BRANCH  23  24
ATOM     24  O   UNL     1      45.675   2.683  11.411  0.00  0.00    +0.000 OA
ATOM     25  H   UNL     1      45.421   1.855  10.944  0.00  0.00    +0.000 HD
ENDBRANCH  23  24
BRANCH  23  26
ATOM     26  C   UNL     1      43.380   2.954  11.998  0.00  0.00    +0.000 C 
BRANCH  26  27
ATOM     27  O   UNL     1      43.041   1.628  11.573  0.00  0.00    +0.000 OA
ATOM     28  H   UNL     1      43.492   1.501  10.717  0.00  0.00    +0.000 HD
ENDBRANCH  26  27
ENDBRANCH  23  26
BRANCH  23  29
ATOM     29  C   UNL     1      44.158   3.532   9.677  0.00  0.00    +0.000 C 
BRANCH  29  30
ATOM     30  C   UNL     1      45.218   3.002   8.739  0.00  0.00    +0.000 A 
ATOM     31  C   UNL     1      45.910   3.858   7.885  0.00  0.00    +0.000 A 
ATOM     32  C   UNL     1      46.878   3.329   7.038  0.00  0.00    +0.000 A 
ATOM     33  C   UNL     1      47.142   1.967   7.074  0.00  0.00    +0.000 A 
ATOM     34  C   UNL     1      46.426   1.189   7.962  0.00  0.00    +0.000 A 
ATOM     35  N   UNL     1      45.476   1.671   8.794  0.00  0.00    +0.000 NA
ENDBRANCH  29  30
ENDBRANCH  23  29
ENDBRANCH   4  23
TORSDOF 9
ENDMDL
MODEL 5
REMARK VINA RESULT:    -6.790      4.118      4.815
REMARK INTER + INTRA:         -11.335
REMARK INTER:                 -10.047
REMARK INTRA:                  -1.288
REMARK UNBOUND:                -1.368
REMARK  Name = 
REMARK  9 active torsions:
REMARK  status: ('A' for Active; 'I' for Inactive)
REMARK    1  A    between atoms: C_2  and  C_22
REMARK    2  A    between atoms: N_3  and  C_4
REMARK    3  A    between atoms: C_4  and  C_5
REMARK    4  A    between atoms: C_8  and  C_9
REMARK    5  A    between atoms: C_9  and  O_10
REMARK    6  A    between atoms: C_9  and  C_11
REMARK    7  A    between atoms: C_9  and  C_13
REMARK    8  A    between atoms: C_11  and  O_12
REMARK    9  A    between atoms: C_13  and  C_14
REMARK                            x       y       z     vdW  Elec       q    Type
REMARK                         _______ _______ _______ _____ _____    ______ ____
ROOT
ATOM      1  C   UNL     1      45.965   7.270  12.421  0.00  0.00    +0.000 A 
ATOM      2  C   UNL     1      45.009   6.588  13.172  0.00  0.00    +0.000 A 
ATOM      3  C   UNL     1      44.518   5.366  12.728  0.00  0.00    +0.000 A 
ATOM      4  C   UNL     1      44.970   4.857  11.514  0.00  0.00    +0.000 A 
ATOM      5  N   UNL     1      45.865   5.532  10.735  0.00  0.00    +0.000 NA
ATOM      6  C   UNL     1      46.345   6.706  11.210  0.00  0.00    +0.000 A 
ENDROOT
BRANCH   1   7
ATOM      7  C   UNL     1      46.527   8.574  12.898  0.00  0.00    +0.000 C 
BRANCH   7  10
ATOM      8  O   UNL     1      48.257  10.169  11.329  0.00  0.00    +0.000 OA
ATOM      9  C   UNL     1      48.734   9.389  12.146  0.00  0.00    +0.000 C 
ATOM     10  N   UNL     1      47.964   8.557  12.917  0.00  0.00    +0.000 N 
ATOM     11  H   UNL     1      48.400   8.008  13.648  0.00  0.00    +0.000 HD
BRANCH   9  12
ATOM     12  C   UNL     1      50.182   9.266  12.335  0.00  0.00    +0.000 A 
ATOM     13  C   UNL     1      51.020   9.127  11.237  0.00  0.00    +0.000 A 
ATOM     14  S   UNL     1      52.670   9.004  11.651  0.00  0.00    +0.000 S 
ATOM     15  C   UNL     1      52.325   9.176  13.310  0.00  0.00    +0.000 A 
ATOM     16  N   UNL     1      53.320   9.188  14.235  0.00  0.00    +0.000 NA
ATOM     17  C   UNL     1      52.918   9.367  15.449  0.00  0.00    +0.000 A 
ATOM     18  N   UNL     1      51.608   9.523  15.824  0.00  0.00    +0.000 N 
ATOM     19  C   UNL     1      50.564   9.449  14.934  0.00  0.00    +0.000 A 
ATOM     20  O   UNL     1      49.402   9.467  15.320  0.00  0.00    +0.000 OA
ATOM     21  C   UNL     1      50.967   9.295  13.547  0.00  0.00    +0.000 A 
ATOM     22  H   UNL     1      51.357   9.627  16.795  0.00  0.00    +0.000 HD
ENDBRANCH   9  12
ENDBRANCH   7  10
ENDBRANCH   1   7
BRANCH   4  23
ATOM     23  C   UNL     1      44.511   3.506  10.965  0.00  0.00    +0.000 C 
BRANCH  23  24
ATOM     24  O   UNL     1      45.514   2.509  11.299  0.00  0.00    +0.000 OA
ATOM     25  H   UNL     1      46.095   2.971  11.944  0.00  0.00    +0.000 HD
ENDBRANCH  23  24
BRANCH  23  26
ATOM     26  C   UNL     1      43.227   3.044  11.705  0.00  0.00    +0.000 C 
BRANCH  26  27
ATOM     27  O   UNL     1      42.993   1.636  11.584  0.00  0.00    +0.000 OA
ATOM     28  H   UNL     1      43.861   1.211  11.719  0.00  0.00    +0.000 HD
ENDBRANCH  26  27
ENDBRANCH  23  26
BRANCH  23  29
ATOM     29  C   UNL     1      44.233   3.475   9.441  0.00  0.00    +0.000 C 
BRANCH  29  30
ATOM     30  C   UNL     1      45.317   2.855   8.591  0.00  0.00    +0.000 A 
ATOM     31  C   UNL     1      46.113   3.641   7.760  0.00  0.00    +0.000 A 
ATOM     32  C   UNL     1      47.100   3.031   6.994  0.00  0.00    +0.000 A 
ATOM     33  C   UNL     1      47.279   1.658   7.085  0.00  0.00    +0.000 A 
ATOM     34  C   UNL     1      46.462   0.951   7.946  0.00  0.00    +0.000 A 
ATOM     35  N   UNL     1      45.491   1.513   8.699  0.00  0.00    +0.000 NA
ENDBRANCH  29  30
ENDBRANCH  23  29
ENDBRANCH   4  23
TORSDOF 9
ENDMDL
MODEL 6
REMARK VINA RESULT:    -6.698      2.985      3.334
REMARK INTER + INTRA:         -11.199
REMARK INTER:                  -9.994
REMARK INTRA:                  -1.205
REMARK UNBOUND:                -1.368
REMARK  Name = 
REMARK  9 active torsions:
REMARK  status: ('A' for Active; 'I' for Inactive)
REMARK    1  A    between atoms: C_2  and  C_22
REMARK    2  A    between atoms: N_3  and  C_4
REMARK    3  A    between atoms: C_4  and  C_5
REMARK    4  A    between atoms: C_8  and  C_9
REMARK    5  A    between atoms: C_9  and  O_10
REMARK    6  A    between atoms: C_9  and  C_11
REMARK    7  A    between atoms: C_9  and  C_13
REMARK    8  A    between atoms: C_11  and  O_12
REMARK    9  A    between atoms: C_13  and  C_14
REMARK                            x       y       z     vdW  Elec       q    Type
REMARK                         _______ _______ _______ _____ _____    ______ ____
ROOT
ATOM      1  C   UNL     1      45.995   7.255  12.605  0.00  0.00    +0.000 A 
ATOM      2  C   UNL     1      45.146   6.463  13.376  0.00  0.00    +0.000 A 
ATOM      3  C   UNL     1      44.663   5.262  12.870  0.00  0.00    +0.000 A 
ATOM      4  C   UNL     1      45.013   4.885  11.576  0.00  0.00    +0.000 A 
ATOM      5  N   UNL     1      45.799   5.670  10.782  0.00  0.00    +0.000 NA
ATOM      6  C   UNL     1      46.275   6.820  11.316  0.00  0.00    +0.000 A 
ENDROOT
BRANCH   1   7
ATOM      7  C   UNL     1      46.547   8.538  13.145  0.00  0.00    +0.000 C 
BRANCH   7  10
ATOM      8  O   UNL     1      49.273   9.126  12.676  0.00  0.00    +0.000 OA
ATOM      9  C   UNL     1      48.937   8.652  13.756  0.00  0.00    +0.000 C 
ATOM     10  N   UNL     1      47.643   8.306  14.045  0.00  0.00    +0.000 N 
ATOM     11  H   UNL     1      47.401   8.016  14.986  0.00  0.00    +0.000 HD
BRANCH   9  12
ATOM     12  C   UNL     1      49.915   8.385  14.816  0.00  0.00    +0.000 A 
ATOM     13  C   UNL     1      51.138   7.807  14.507  0.00  0.00    +0.000 A 
ATOM     14  S   UNL     1      52.145   7.580  15.864  0.00  0.00    +0.000 S 
ATOM     15  C   UNL     1      50.997   8.287  16.905  0.00  0.00    +0.000 A 
ATOM     16  N   UNL     1      51.251   8.433  18.232  0.00  0.00    +0.000 NA
ATOM     17  C   UNL     1      50.311   9.022  18.894  0.00  0.00    +0.000 A 
ATOM     18  N   UNL     1      49.134   9.469  18.350  0.00  0.00    +0.000 N 
ATOM     19  C   UNL     1      48.804   9.281  17.029  0.00  0.00    +0.000 A 
ATOM     20  O   UNL     1      47.694   9.580  16.606  0.00  0.00    +0.000 OA
ATOM     21  C   UNL     1      49.849   8.664  16.231  0.00  0.00    +0.000 A 
ATOM     22  H   UNL     1      48.425   9.894  18.928  0.00  0.00    +0.000 HD
ENDBRANCH   9  12
ENDBRANCH   7  10
ENDBRANCH   1   7
BRANCH   4  23
ATOM     23  C   UNL     1      44.558   3.567  10.951  0.00  0.00    +0.000 C 
BRANCH  23  24
ATOM     24  O   UNL     1      45.546   2.546  11.258  0.00  0.00    +0.000 OA
ATOM     25  H   UNL     1      46.114   2.971  11.939  0.00  0.00    +0.000 HD
ENDBRANCH  23  24
BRANCH  23  26
ATOM     26  C   UNL     1      43.253   3.079  11.637  0.00  0.00    +0.000 C 
BRANCH  26  27
ATOM     27  O   UNL     1      42.970   1.700  11.375  0.00  0.00    +0.000 OA
ATOM     28  H   UNL     1      43.822   1.233  11.468  0.00  0.00    +0.000 HD
ENDBRANCH  26  27
ENDBRANCH  23  26
BRANCH  23  29
ATOM     29  C   UNL     1      44.315   3.613   9.421  0.00  0.00    +0.000 C 
BRANCH  29  30
ATOM     30  C   UNL     1      45.396   2.990   8.568  0.00  0.00    +0.000 A 
ATOM     31  C   UNL     1      46.193   3.774   7.738  0.00  0.00    +0.000 A 
ATOM     32  C   UNL     1      47.177   3.162   6.969  0.00  0.00    +0.000 A 
ATOM     33  C   UNL     1      47.351   1.787   7.058  0.00  0.00    +0.000 A 
ATOM     34  C   UNL     1      46.532   1.082   7.918  0.00  0.00    +0.000 A 
ATOM     35  N   UNL     1      45.565   1.647   8.674  0.00  0.00    +0.000 NA
ENDBRANCH  29  30
ENDBRANCH  23  29
ENDBRANCH   4  23
TORSDOF 9
ENDMDL
MODEL 7
REMARK VINA RESULT:    -6.687      3.561      9.332
REMARK INTER + INTRA:         -11.183
REMARK INTER:                  -9.676
REMARK INTRA:                  -1.508
REMARK UNBOUND:                -1.368
REMARK  Name = 
REMARK  9 active torsions:
REMARK  status: ('A' for Active; 'I' for Inactive)
REMARK    1  A    between atoms: C_2  and  C_22
REMARK    2  A    between atoms: N_3  and  C_4
REMARK    3  A    between atoms: C_4  and  C_5
REMARK    4  A    between atoms: C_8  and  C_9
REMARK    5  A    between atoms: C_9  and  O_10
REMARK    6  A    between atoms: C_9  and  C_11
REMARK    7  A    between atoms: C_9  and  C_13
REMARK    8  A    between atoms: C_11  and  O_12
REMARK    9  A    between atoms: C_13  and  C_14
REMARK                            x       y       z     vdW  Elec       q    Type
REMARK                         _______ _______ _______ _____ _____    ______ ____
ROOT
ATOM      1  C   UNL     1      48.527   3.315  17.321  0.00  0.00    +0.000 A 
ATOM      2  C   UNL     1      49.016   4.167  18.310  0.00  0.00    +0.000 A 
ATOM      3  C   UNL     1      50.369   4.158  18.629  0.00  0.00    +0.000 A 
ATOM      4  C   UNL     1      51.213   3.268  17.971  0.00  0.00    +0.000 A 
ATOM      5  N   UNL     1      50.748   2.387  17.037  0.00  0.00    +0.000 NA
ATOM      6  C   UNL     1      49.430   2.441  16.730  0.00  0.00    +0.000 A 
ENDROOT
BRANCH   1   7
ATOM      7  C   UNL     1      47.078   3.331  16.944  0.00  0.00    +0.000 C 
BRANCH   7  10
ATOM      8  O   UNL     1      47.303   3.058  14.138  0.00  0.00    +0.000 OA
ATOM      9  C   UNL     1      46.899   4.116  14.609  0.00  0.00    +0.000 C 
ATOM     10  N   UNL     1      46.797   4.339  15.958  0.00  0.00    +0.000 N 
ATOM     11  H   UNL     1      46.361   5.189  16.292  0.00  0.00    +0.000 HD
BRANCH   9  12
ATOM     12  C   UNL     1      46.524   5.244  13.752  0.00  0.00    +0.000 A 
ATOM     13  C   UNL     1      47.413   6.291  13.548  0.00  0.00    +0.000 A 
ATOM     14  S   UNL     1      46.806   7.508  12.518  0.00  0.00    +0.000 S 
ATOM     15  C   UNL     1      45.352   6.656  12.275  0.00  0.00    +0.000 A 
ATOM     16  N   UNL     1      44.384   7.141  11.453  0.00  0.00    +0.000 NA
ATOM     17  C   UNL     1      43.353   6.372  11.329  0.00  0.00    +0.000 A 
ATOM     18  N   UNL     1      43.198   5.165  11.962  0.00  0.00    +0.000 N 
ATOM     19  C   UNL     1      44.117   4.667  12.854  0.00  0.00    +0.000 A 
ATOM     20  O   UNL     1      43.888   3.648  13.495  0.00  0.00    +0.000 OA
ATOM     21  C   UNL     1      45.317   5.473  12.993  0.00  0.00    +0.000 A 
ATOM     22  H   UNL     1      42.353   4.627  11.847  0.00  0.00    +0.000 HD
ENDBRANCH   9  12
ENDBRANCH   7  10
ENDBRANCH   1   7
BRANCH   4  23
ATOM     23  C   UNL     1      52.718   3.212  18.232  0.00  0.00    +0.000 C 
BRANCH  23  24
ATOM     24  O   UNL     1      52.942   3.349  19.662  0.00  0.00    +0.000 OA
ATOM     25  H   UNL     1      52.476   2.572  20.045  0.00  0.00    +0.000 HD
ENDBRANCH  23  24
BRANCH  23  26
ATOM     26  C   UNL     1      53.264   1.803  17.877  0.00  0.00    +0.000 C 
BRANCH  26  27
ATOM     27  O   UNL     1      52.502   0.746  18.471  0.00  0.00    +0.000 OA
ATOM     28  H   UNL     1      51.765   0.572  17.855  0.00  0.00    +0.000 HD
ENDBRANCH  26  27
ENDBRANCH  23  26
BRANCH  23  29
ATOM     29  C   UNL     1      53.558   4.267  17.470  0.00  0.00    +0.000 C 
BRANCH  29  30
ATOM     30  C   UNL     1      53.102   5.701  17.621  0.00  0.00    +0.000 A 
ATOM     31  C   UNL     1      52.531   6.386  16.552  0.00  0.00    +0.000 A 
ATOM     32  C   UNL     1      52.124   7.704  16.733  0.00  0.00    +0.000 A 
ATOM     33  C   UNL     1      52.284   8.299  17.977  0.00  0.00    +0.000 A 
ATOM     34  C   UNL     1      52.842   7.546  18.992  0.00  0.00    +0.000 A 
ATOM     35  N   UNL     1      53.252   6.267  18.846  0.00  0.00    +0.000 NA
ENDBRANCH  29  30
ENDBRANCH  23  29
ENDBRANCH   4  23
TORSDOF 9
ENDMDL
MODEL 8
REMARK VINA RESULT:    -6.550      3.894      9.183
REMARK INTER + INTRA:         -10.981
REMARK INTER:                  -9.113
REMARK INTRA:                  -1.868
REMARK UNBOUND:                -1.368
REMARK  Name = 
REMARK  9 active torsions:
REMARK  status: ('A' for Active; 'I' for Inactive)
REMARK    1  A    between atoms: C_2  and  C_22
REMARK    2  A    between atoms: N_3  and  C_4
REMARK    3  A    between atoms: C_4  and  C_5
REMARK    4  A    between atoms: C_8  and  C_9
REMARK    5  A    between atoms: C_9  and  O_10
REMARK    6  A    between atoms: C_9  and  C_11
REMARK    7  A    between atoms: C_9  and  C_13
REMARK    8  A    between atoms: C_11  and  O_12
REMARK    9  A    between atoms: C_13  and  C_14
REMARK                            x       y       z     vdW  Elec       q    Type
REMARK                         _______ _______ _______ _____ _____    ______ ____
ROOT
ATOM      1  C   UNL     1      48.583   3.407  17.183  0.00  0.00    +0.000 A 
ATOM      2  C   UNL     1      49.245   4.213  18.108  0.00  0.00    +0.000 A 
ATOM      3  C   UNL     1      50.580   3.972  18.412  0.00  0.00    +0.000 A 
ATOM      4  C   UNL     1      51.228   2.901  17.805  0.00  0.00    +0.000 A 
ATOM      5  N   UNL     1      50.587   2.064  16.938  0.00  0.00    +0.000 NA
ATOM      6  C   UNL     1      49.295   2.343  16.642  0.00  0.00    +0.000 A 
ENDROOT
BRANCH   1   7
ATOM      7  C   UNL     1      47.154   3.669  16.823  0.00  0.00    +0.000 C 
BRANCH   7  10
ATOM      8  O   UNL     1      47.195   3.157  14.041  0.00  0.00    +0.000 OA
ATOM      9  C   UNL     1      47.037   4.306  14.440  0.00  0.00    +0.000 C 
ATOM     10  N   UNL     1      47.042   4.640  15.769  0.00  0.00    +0.000 N 
ATOM     11  H   UNL     1      46.804   5.584  16.049  0.00  0.00    +0.000 HD
BRANCH   9  12
ATOM     12  C   UNL     1      46.864   5.425  13.508  0.00  0.00    +0.000 A 
ATOM     13  C   UNL     1      45.802   5.429  12.614  0.00  0.00    +0.000 A 
ATOM     14  S   UNL     1      45.760   6.812  11.615  0.00  0.00    +0.000 S 
ATOM     15  C   UNL     1      47.134   7.472  12.374  0.00  0.00    +0.000 A 
ATOM     16  N   UNL     1      47.622   8.686  12.008  0.00  0.00    +0.000 NA
ATOM     17  C   UNL     1      48.642   9.081  12.695  0.00  0.00    +0.000 A 
ATOM     18  N   UNL     1      49.226   8.366  13.709  0.00  0.00    +0.000 N 
ATOM     19  C   UNL     1      48.811   7.106  14.068  0.00  0.00    +0.000 A 
ATOM     20  O   UNL     1      49.433   6.447  14.892  0.00  0.00    +0.000 OA
ATOM     21  C   UNL     1      47.636   6.635  13.356  0.00  0.00    +0.000 A 
ATOM     22  H   UNL     1      50.042   8.718  14.186  0.00  0.00    +0.000 HD
ENDBRANCH   9  12
ENDBRANCH   7  10
ENDBRANCH   1   7
BRANCH   4  23
ATOM     23  C   UNL     1      52.703   2.582  18.053  0.00  0.00    +0.000 C 
BRANCH  23  24
ATOM     24  O   UNL     1      52.957   2.663  19.482  0.00  0.00    +0.000 OA
ATOM     25  H   UNL     1      52.702   1.772  19.813  0.00  0.00    +0.000 HD
ENDBRANCH  23  24
BRANCH  23  26
ATOM     26  C   UNL     1      52.994   1.104  17.679  0.00  0.00    +0.000 C 
BRANCH  26  27
ATOM     27  O   UNL     1      52.119   0.181  18.338  0.00  0.00    +0.000 OA
ATOM     28  H   UNL     1      52.681  -0.316  18.961  0.00  0.00    +0.000 HD
ENDBRANCH  26  27
ENDBRANCH  23  26
BRANCH  23  29
ATOM     29  C   UNL     1      53.708   3.484  17.294  0.00  0.00    +0.000 C 
BRANCH  29  30
ATOM     30  C   UNL     1      53.669   4.953  17.651  0.00  0.00    +0.000 A 
ATOM     31  C   UNL     1      53.212   5.899  16.737  0.00  0.00    +0.000 A 
ATOM     32  C   UNL     1      53.192   7.240  17.106  0.00  0.00    +0.000 A 
ATOM     33  C   UNL     1      53.613   7.601  18.378  0.00  0.00    +0.000 A 
ATOM     34  C   UNL     1      54.034   6.601  19.233  0.00  0.00    +0.000 A 
ATOM     35  N   UNL     1      54.071   5.291  18.903  0.00  0.00    +0.000 NA
ENDBRANCH  29  30
ENDBRANCH  23  29
ENDBRANCH   4  23
TORSDOF 9
ENDMDL
MODEL 9
REMARK VINA RESULT:    -6.407      2.809      8.982
REMARK INTER + INTRA:         -10.771
REMARK INTER:                  -9.358
REMARK INTRA:                  -1.413
REMARK UNBOUND:                -1.368
REMARK  Name = 
REMARK  9 active torsions:
REMARK  status: ('A' for Active; 'I' for Inactive)
REMARK    1  A    between atoms: C_2  and  C_22
REMARK    2  A    between atoms: N_3  and  C_4
REMARK    3  A    between atoms: C_4  and  C_5
REMARK    4  A    between atoms: C_8  and  C_9
REMARK    5  A    between atoms: C_9  and  O_10
REMARK    6  A    between atoms: C_9  and  C_11
REMARK    7  A    between atoms: C_9  and  C_13
REMARK    8  A    between atoms: C_11  and  O_12
REMARK    9  A    between atoms: C_13  and  C_14
REMARK                            x       y       z     vdW  Elec       q    Type
REMARK                         _______ _______ _______ _____ _____    ______ ____
ROOT
ATOM      1  C   UNL     1      47.861   7.776  13.410  0.00  0.00    +0.000 A 
ATOM      2  C   UNL     1      47.766   8.810  14.340  0.00  0.00    +0.000 A 
ATOM      3  C   UNL     1      48.524   8.770  15.505  0.00  0.00    +0.000 A 
ATOM      4  C   UNL     1      49.346   7.672  15.739  0.00  0.00    +0.000 A 
ATOM      5  N   UNL     1      49.415   6.621  14.869  0.00  0.00    +0.000 NA
ATOM      6  C   UNL     1      48.686   6.705  13.731  0.00  0.00    +0.000 A 
ENDROOT
BRANCH   1   7
ATOM      7  C   UNL     1      47.075   7.816  12.137  0.00  0.00    +0.000 C 
BRANCH   7  10
ATOM      8  O   UNL     1      44.310   7.375  11.741  0.00  0.00    +0.000 OA
ATOM      9  C   UNL     1      45.088   6.431  11.654  0.00  0.00    +0.000 C 
ATOM     10  N   UNL     1      46.436   6.557  11.868  0.00  0.00    +0.000 N 
ATOM     11  H   UNL     1      47.047   5.771  11.682  0.00  0.00    +0.000 HD
BRANCH   9  12
ATOM     12  C   UNL     1      44.621   5.077  11.344  0.00  0.00    +0.000 A 
ATOM     13  C   UNL     1      43.827   4.388  12.251  0.00  0.00    +0.000 A 
ATOM     14  S   UNL     1      43.376   2.832  11.717  0.00  0.00    +0.000 S 
ATOM     15  C   UNL     1      44.190   3.044  10.236  0.00  0.00    +0.000 A 
ATOM     16  N   UNL     1      44.173   2.075   9.283  0.00  0.00    +0.000 NA
ATOM     17  C   UNL     1      44.796   2.386   8.195  0.00  0.00    +0.000 A 
ATOM     18  N   UNL     1      45.445   3.575   7.977  0.00  0.00    +0.000 N 
ATOM     19  C   UNL     1      45.546   4.554   8.936  0.00  0.00    +0.000 A 
ATOM     20  O   UNL     1      46.238   5.549   8.752  0.00  0.00    +0.000 OA
ATOM     21  C   UNL     1      44.822   4.272  10.162  0.00  0.00    +0.000 A 
ATOM     22  H   UNL     1      45.940   3.743   7.115  0.00  0.00    +0.000 HD
ENDBRANCH   9  12
ENDBRANCH   7  10
ENDBRANCH   1   7
BRANCH   4  23
ATOM     23  C   UNL     1      50.239   7.559  16.975  0.00  0.00    +0.000 C 
BRANCH  23  24
ATOM     24  O   UNL     1      51.482   6.912  16.587  0.00  0.00    +0.000 OA
ATOM     25  H   UNL     1      52.175   7.488  16.980  0.00  0.00    +0.000 HD
ENDBRANCH  23  24
BRANCH  23  26
ATOM     26  C   UNL     1      50.659   8.975  17.454  0.00  0.00    +0.000 C 
BRANCH  26  27
ATOM     27  O   UNL     1      51.976   9.338  17.025  0.00  0.00    +0.000 OA
ATOM     28  H   UNL     1      52.519   8.533  17.128  0.00  0.00    +0.000 HD
ENDBRANCH  26  27
ENDBRANCH  23  26
BRANCH  23  29
ATOM     29  C   UNL     1      49.611   6.805  18.174  0.00  0.00    +0.000 C 
BRANCH  29  30
ATOM     30  C   UNL     1      49.083   5.421  17.873  0.00  0.00    +0.000 A 
ATOM     31  C   UNL     1      47.713   5.176  17.811  0.00  0.00    +0.000 A 
ATOM     32  C   UNL     1      47.268   3.889  17.531  0.00  0.00    +0.000 A 
ATOM     33  C   UNL     1      48.198   2.883  17.306  0.00  0.00    +0.000 A 
ATOM     34  C   UNL     1      49.538   3.210  17.367  0.00  0.00    +0.000 A 
ATOM     35  N   UNL     1      50.002   4.449  17.642  0.00  0.00    +0.000 NA
ENDBRANCH  29  30
ENDBRANCH  23  29
ENDBRANCH   4  23
TORSDOF 9
ENDMDL
