MODEL 1
REMARK VINA RESULT:    -7.283      0.000      0.000
REMARK INTER + INTRA:         -10.273
REMARK INTER:                  -9.411
REMARK INTRA:                  -0.862
REMARK UNBOUND:                -0.862
REMARK  Name = 
REMARK  6 active torsions:
REMARK  status: ('A' for Active; 'I' for Inactive)
REMARK    1  A    between atoms: C_1  and  O_2
REMARK    2  A    between atoms: O_2  and  C_3
REMARK    3  A    between atoms: C_5  and  C_6
REMARK    4  A    between atoms: N_11  and  C_12
REMARK    5  A    between atoms: C_12  and  C_13
REMARK    6  A    between atoms: C_18  and  C_19
REMARK                            x       y       z     vdW  Elec       q    Type
REMARK                         _______ _______ _______ _____ _____    ______ ____
ROOT
ATOM      1  C   UNL     1      49.243   6.389  18.022  0.00  0.00    +0.000 A 
ATOM      2  C   UNL     1      48.919   5.066  18.016  0.00  0.00    +0.000 A 
ATOM      3  C   UNL     1      48.430   4.618  16.815  0.00  0.00    +0.000 A 
ATOM      4  N   UNL     1      48.261   5.393  15.710  0.00  0.00    +0.000 NA
ATOM      5  C   UNL     1      48.592   6.679  15.846  0.00  0.00    +0.000 A 
ATOM      6  N   UNL     1      48.373   7.592  14.830  0.00  0.00    +0.000 N 
ATOM      7  N   UNL     1      49.098   7.202  16.962  0.00  0.00    +0.000 NA
ATOM      8  H   UNL     1      48.907   8.422  15.061  0.00  0.00    +0.000 HD
ENDROOT
BRANCH   3   9
ATOM      9  C   UNL     1      48.027   3.183  16.692  0.00  0.00    +0.000 C 
ATOM     10  N   UNL     1      46.985   2.793  17.489  0.00  0.00    +0.000 N 
ATOM     11  O   UNL     1      48.589   2.401  15.937  0.00  0.00    +0.000 OA
ATOM     12  H   UNL     1      46.569   3.455  18.134  0.00  0.00    +0.000 HD
ATOM     13  H   UNL     1      46.694   1.827  17.486  0.00  0.00    +0.000 HD
ENDBRANCH   3   9
BRANCH   1  15
ATOM     14  C   UNL     1      48.994   6.453  20.348  0.00  0.00    +0.000 C 
ATOM     15  O   UNL     1      49.730   6.903  19.210  0.00  0.00    +0.000 OA
ENDBRANCH   1  15
BRANCH   6  16
ATOM     16  C   UNL     1      48.542   7.117  13.479  0.00  0.00    +0.000 C 
BRANCH  16  17
ATOM     17  C   UNL     1      47.193   7.133  12.784  0.00  0.00    +0.000 A 
ATOM     18  C   UNL     1      46.333   8.218  12.970  0.00  0.00    +0.000 A 
ATOM     19  C   UNL     1      45.072   8.215  12.384  0.00  0.00    +0.000 A 
ATOM     20  C   UNL     1      44.654   7.144  11.579  0.00  0.00    +0.000 A 
ATOM     21 CL   UNL     1      43.000   7.218  11.064  0.00  0.00    +0.000 Cl
ATOM     22  C   UNL     1      45.521   6.066  11.286  0.00  0.00    +0.000 A 
ATOM     23  C   UNL     1      46.787   6.088  11.930  0.00  0.00    +0.000 A 
BRANCH  22  24
ATOM     24  C   UNL     1      45.193   4.936  10.376  0.00  0.00    +0.000 A 
ATOM     25  C   UNL     1      45.573   4.877   9.033  0.00  0.00    +0.000 A 
ATOM     26  C   UNL     1      45.210   3.780   8.251  0.00  0.00    +0.000 A 
ATOM     27  C   UNL     1      44.517   2.732   8.834  0.00  0.00    +0.000 A 
ATOM     28  C   UNL     1      44.212   2.831  10.178  0.00  0.00    +0.000 A 
ATOM     29  N   UNL     1      44.527   3.898  10.951  0.00  0.00    +0.000 NA
ENDBRANCH  22  24
ENDBRANCH  16  17
ENDBRANCH   6  16
TORSDOF 5
ENDMDL
MODEL 2
REMARK VINA RESULT:    -7.253      3.548      7.645
REMARK INTER + INTRA:         -10.235
REMARK INTER:                  -9.371
REMARK INTRA:                  -0.864
REMARK UNBOUND:                -0.862
REMARK  Name = 
REMARK  6 active torsions:
REMARK  status: ('A' for Active; 'I' for Inactive)
REMARK    1  A    between atoms: C_1  and  O_2
REMARK    2  A    between atoms: O_2  and  C_3
REMARK    3  A    between atoms: C_5  and  C_6
REMARK    4  A    between atoms: N_11  and  C_12
REMARK    5  A    between atoms: C_12  and  C_13
REMARK    6  A    between atoms: C_18  and  C_19
REMARK                            x       y       z     vdW  Elec       q    Type
REMARK                         _______ _______ _______ _____ _____    ______ ____
ROOT
ATOM      1  C   UNL     1      45.004   4.298   8.842  0.00  0.00    +0.000 A 
ATOM      2  C   UNL     1      44.232   3.525   9.655  0.00  0.00    +0.000 A 
ATOM      3  C   UNL     1      44.301   3.869  10.981  0.00  0.00    +0.000 A 
ATOM      4  N   UNL     1      45.065   4.878  11.480  0.00  0.00    +0.000 NA
ATOM      5  C   UNL     1      45.797   5.549  10.588  0.00  0.00    +0.000 A 
ATOM      6  N   UNL     1      46.692   6.529  10.978  0.00  0.00    +0.000 N 
ATOM      7  N   UNL     1      45.778   5.306   9.278  0.00  0.00    +0.000 NA
ATOM      8  H   UNL     1      46.942   7.047  10.144  0.00  0.00    +0.000 HD
ENDROOT
BRANCH   3   9
ATOM      9  C   UNL     1      43.505   3.081  11.972  0.00  0.00    +0.000 C 
ATOM     10  N   UNL     1      43.480   3.587  13.243  0.00  0.00    +0.000 N 
ATOM     11  O   UNL     1      42.917   2.050  11.677  0.00  0.00    +0.000 OA
ATOM     12  H   UNL     1      44.012   4.421  13.464  0.00  0.00    +0.000 HD
ATOM     13  H   UNL     1      42.997   3.079  13.969  0.00  0.00    +0.000 HD
ENDBRANCH   3   9
BRANCH   1  15
ATOM     14  C   UNL     1      46.170   3.318   7.064  0.00  0.00    +0.000 C 
ATOM     15  O   UNL     1      44.986   3.990   7.494  0.00  0.00    +0.000 OA
ENDBRANCH   1  15
BRANCH   6  16
ATOM     16  C   UNL     1      46.316   7.342  12.109  0.00  0.00    +0.000 C 
BRANCH  16  17
ATOM     17  C   UNL     1      47.422   7.278  13.145  0.00  0.00    +0.000 A 
ATOM     18  C   UNL     1      48.483   8.185  13.080  0.00  0.00    +0.000 A 
ATOM     19  C   UNL     1      49.531   8.097  13.989  0.00  0.00    +0.000 A 
ATOM     20  C   UNL     1      49.528   7.123  14.999  0.00  0.00    +0.000 A 
ATOM     21 CL   UNL     1      50.981   7.043  15.943  0.00  0.00    +0.000 Cl
ATOM     22  C   UNL     1      48.434   6.242  15.164  0.00  0.00    +0.000 A 
ATOM     23  C   UNL     1      47.400   6.339  14.195  0.00  0.00    +0.000 A 
BRANCH  22  24
ATOM     24  C   UNL     1      48.309   5.239  16.257  0.00  0.00    +0.000 A 
ATOM     25  C   UNL     1      48.331   5.557  17.617  0.00  0.00    +0.000 A 
ATOM     26  C   UNL     1      48.218   4.548  18.573  0.00  0.00    +0.000 A 
ATOM     27  C   UNL     1      48.031   3.239  18.158  0.00  0.00    +0.000 A 
ATOM     28  C   UNL     1      47.971   2.998  16.799  0.00  0.00    +0.000 A 
ATOM     29  N   UNL     1      48.108   3.956  15.851  0.00  0.00    +0.000 NA
ENDBRANCH  22  24
ENDBRANCH  16  17
ENDBRANCH   6  16
TORSDOF 5
ENDMDL
MODEL 3
REMARK VINA RESULT:    -6.749      4.074      8.248
REMARK INTER + INTRA:          -9.583
REMARK INTER:                  -9.101
REMARK INTRA:                  -0.482
REMARK UNBOUND:                -0.862
REMARK  Name = 
REMARK  6 active torsions:
REMARK  status: ('A' for Active; 'I' for Inactive)
REMARK    1  A    between atoms: C_1  and  O_2
REMARK    2  A    between atoms: O_2  and  C_3
REMARK    3  A    between atoms: C_5  and  C_6
REMARK    4  A    between atoms: N_11  and  C_12
REMARK    5  A    between atoms: C_12  and  C_13
REMARK    6  A    between atoms: C_18  and  C_19
REMARK                            x       y       z     vdW  Elec       q    Type
REMARK                         _______ _______ _______ _____ _____    ______ ____
ROOT
ATOM      1  C   UNL     1      45.100   6.543  12.111  0.00  0.00    +0.000 A 
ATOM      2  C   UNL     1      44.517   5.529  11.413  0.00  0.00    +0.000 A 
ATOM      3  C   UNL     1      44.782   4.281  11.918  0.00  0.00    +0.000 A 
ATOM      4  N   UNL     1      45.557   4.037  13.009  0.00  0.00    +0.000 NA
ATOM      5  C   UNL     1      46.093   5.110  13.594  0.00  0.00    +0.000 A 
ATOM      6  N   UNL     1      46.981   4.991  14.648  0.00  0.00    +0.000 N 
ATOM      7  N   UNL     1      45.875   6.362  13.193  0.00  0.00    +0.000 NA
ATOM      8  H   UNL     1      47.062   5.908  15.070  0.00  0.00    +0.000 HD
ENDROOT
BRANCH   3   9
ATOM      9  C   UNL     1      44.206   3.087  11.227  0.00  0.00    +0.000 C 
ATOM     10  N   UNL     1      45.015   2.499  10.294  0.00  0.00    +0.000 N 
ATOM     11  O   UNL     1      43.085   2.661  11.469  0.00  0.00    +0.000 OA
ATOM     12  H   UNL     1      45.921   2.902  10.088  0.00  0.00    +0.000 HD
ATOM     13  H   UNL     1      44.668   1.716   9.760  0.00  0.00    +0.000 HD
ENDBRANCH   3   9
BRANCH   1  15
ATOM     14  C   UNL     1      45.482   8.826  12.461  0.00  0.00    +0.000 C 
ATOM     15  O   UNL     1      44.879   7.825  11.641  0.00  0.00    +0.000 OA
ENDBRANCH   1  15
BRANCH   6  16
ATOM     16  C   UNL     1      46.749   3.912  15.577  0.00  0.00    +0.000 C 
BRANCH  16  17
ATOM     17  C   UNL     1      47.692   4.069  16.754  0.00  0.00    +0.000 A 
ATOM     18  C   UNL     1      47.285   4.802  17.872  0.00  0.00    +0.000 A 
ATOM     19  C   UNL     1      48.164   5.002  18.931  0.00  0.00    +0.000 A 
ATOM     20  C   UNL     1      49.454   4.451  18.910  0.00  0.00    +0.000 A 
ATOM     21 CL   UNL     1      50.475   4.930  20.227  0.00  0.00    +0.000 Cl
ATOM     22  C   UNL     1      49.880   3.625  17.844  0.00  0.00    +0.000 A 
ATOM     23  C   UNL     1      48.969   3.473  16.766  0.00  0.00    +0.000 A 
BRANCH  22  24
ATOM     24  C   UNL     1      51.195   2.931  17.782  0.00  0.00    +0.000 A 
ATOM     25  C   UNL     1      52.420   3.552  18.036  0.00  0.00    +0.000 A 
ATOM     26  C   UNL     1      53.606   2.823  17.943  0.00  0.00    +0.000 A 
ATOM     27  C   UNL     1      53.549   1.470  17.648  0.00  0.00    +0.000 A 
ATOM     28  C   UNL     1      52.303   0.907  17.454  0.00  0.00    +0.000 A 
ATOM     29  N   UNL     1      51.140   1.599  17.510  0.00  0.00    +0.000 NA
ENDBRANCH  22  24
ENDBRANCH  16  17
ENDBRANCH   6  16
TORSDOF 5
ENDMDL
MODEL 4
REMARK VINA RESULT:    -6.626      1.536      3.028
REMARK INTER + INTRA:          -9.424
REMARK INTER:                  -8.510
REMARK INTRA:                  -0.914
REMARK UNBOUND:                -0.862
REMARK  Name = 
REMARK  6 active torsions:
REMARK  status: ('A' for Active; 'I' for Inactive)
REMARK    1  A    between atoms: C_1  and  O_2
REMARK    2  A    between atoms: O_2  and  C_3
REMARK    3  A    between atoms: C_5  and  C_6
REMARK    4  A    between atoms: N_11  and  C_12
REMARK    5  A    between atoms: C_12  and  C_13
REMARK    6  A    between atoms: C_18  and  C_19
REMARK                            x       y       z     vdW  Elec       q    Type
REMARK                         _______ _______ _______ _____ _____    ______ ____
ROOT
ATOM      1  C   UNL     1      48.624   5.968  16.711  0.00  0.00    +0.000 A 
ATOM      2  C   UNL     1      48.652   7.146  17.395  0.00  0.00    +0.000 A 
ATOM      3  C   UNL     1      48.804   8.250  16.594  0.00  0.00    +0.000 A 
ATOM      4  N   UNL     1      48.928   8.214  15.240  0.00  0.00    +0.000 NA
ATOM      5  C   UNL     1      48.911   6.999  14.687  0.00  0.00    +0.000 A 
ATOM      6  N   UNL     1      49.129   6.818  13.333  0.00  0.00    +0.000 N 
ATOM      7  N   UNL     1      48.743   5.871  15.377  0.00  0.00    +0.000 NA
ATOM      8  H   UNL     1      48.837   5.874  13.112  0.00  0.00    +0.000 HD
ENDROOT
BRANCH   3   9
ATOM      9  C   UNL     1      48.861   9.600  17.234  0.00  0.00    +0.000 C 
ATOM     10  N   UNL     1      48.286  10.616  16.520  0.00  0.00    +0.000 N 
ATOM     11  O   UNL     1      49.389   9.795  18.321  0.00  0.00    +0.000 OA
ATOM     12  H   UNL     1      47.894  10.428  15.604  0.00  0.00    +0.000 HD
ATOM     13  H   UNL     1      48.331  11.559  16.876  0.00  0.00    +0.000 HD
ENDBRANCH   3   9
BRANCH   1  15
ATOM     14  C   UNL     1      47.393   4.004  17.039  0.00  0.00    +0.000 C 
ATOM     15  O   UNL     1      48.486   4.817  17.466  0.00  0.00    +0.000 OA
ENDBRANCH   1  15
BRANCH   6  16
ATOM     16  C   UNL     1      48.617   7.837  12.449  0.00  0.00    +0.000 C 
BRANCH  16  17
ATOM     17  C   UNL     1      47.182   7.497  12.092  0.00  0.00    +0.000 A 
ATOM     18  C   UNL     1      46.149   8.343  12.504  0.00  0.00    +0.000 A 
ATOM     19  C   UNL     1      44.826   8.010  12.233  0.00  0.00    +0.000 A 
ATOM     20  C   UNL     1      44.509   6.843  11.521  0.00  0.00    +0.000 A 
ATOM     21 CL   UNL     1      42.815   6.490  11.411  0.00  0.00    +0.000 Cl
ATOM     22  C   UNL     1      45.522   6.002  11.003  0.00  0.00    +0.000 A 
ATOM     23  C   UNL     1      46.858   6.357  11.331  0.00  0.00    +0.000 A 
BRANCH  22  24
ATOM     24  C   UNL     1      45.279   4.796  10.166  0.00  0.00    +0.000 A 
ATOM     25  C   UNL     1      45.611   4.703   8.813  0.00  0.00    +0.000 A 
ATOM     26  C   UNL     1      45.335   3.534   8.104  0.00  0.00    +0.000 A 
ATOM     27  C   UNL     1      44.778   2.454   8.769  0.00  0.00    +0.000 A 
ATOM     28  C   UNL     1      44.516   2.595  10.118  0.00  0.00    +0.000 A 
ATOM     29  N   UNL     1      44.748   3.729  10.822  0.00  0.00    +0.000 NA
ENDBRANCH  22  24
ENDBRANCH  16  17
ENDBRANCH   6  16
TORSDOF 5
ENDMDL
MODEL 5
REMARK VINA RESULT:    -6.341      3.759      8.939
REMARK INTER + INTRA:          -9.056
REMARK INTER:                  -8.373
REMARK INTRA:                  -0.684
REMARK UNBOUND:                -0.862
REMARK  Name = 
REMARK  6 active torsions:
REMARK  status: ('A' for Active; 'I' for Inactive)
REMARK    1  A    between atoms: C_1  and  O_2
REMARK    2  A    between atoms: O_2  and  C_3
REMARK    3  A    between atoms: C_5  and  C_6
REMARK    4  A    between atoms: N_11  and  C_12
REMARK    5  A    between atoms: C_12  and  C_13
REMARK    6  A    between atoms: C_18  and  C_19
REMARK                            x       y       z     vdW  Elec       q    Type
REMARK                         _______ _______ _______ _____ _____    ______ ____
ROOT
ATOM      1  C   UNL     1      44.347   3.581  11.266  0.00  0.00    +0.000 A 
ATOM      2  C   UNL     1      43.916   4.820  10.900  0.00  0.00    +0.000 A 
ATOM      3  C   UNL     1      44.427   5.836  11.667  0.00  0.00    +0.000 A 
ATOM      4  N   UNL     1      45.282   5.663  12.711  0.00  0.00    +0.000 NA
ATOM      5  C   UNL     1      45.613   4.400  12.989  0.00  0.00    +0.000 A 
ATOM      6  N   UNL     1      46.392   4.081  14.086  0.00  0.00    +0.000 N 
ATOM      7  N   UNL     1      45.189   3.350  12.287  0.00  0.00    +0.000 NA
ATOM      8  H   UNL     1      46.702   3.125  13.959  0.00  0.00    +0.000 HD
ENDROOT
BRANCH   3   9
ATOM      9  C   UNL     1      44.015   7.242  11.367  0.00  0.00    +0.000 C 
ATOM     10  N   UNL     1      42.706   7.409  11.010  0.00  0.00    +0.000 N 
ATOM     11  O   UNL     1      44.792   8.185  11.429  0.00  0.00    +0.000 OA
ATOM     12  H   UNL     1      42.099   6.601  10.928  0.00  0.00    +0.000 HD
ATOM     13  H   UNL     1      42.375   8.327  10.752  0.00  0.00    +0.000 HD
ENDBRANCH   3   9
BRANCH   1  15
ATOM     14  C   UNL     1      44.527   2.339   9.289  0.00  0.00    +0.000 C 
ATOM     15  O   UNL     1      43.855   2.513  10.537  0.00  0.00    +0.000 OA
ENDBRANCH   1  15
BRANCH   6  16
ATOM     16  C   UNL     1      47.431   5.017  14.441  0.00  0.00    +0.000 C 
BRANCH  16  17
ATOM     17  C   UNL     1      47.831   4.778  15.884  0.00  0.00    +0.000 A 
ATOM     18  C   UNL     1      47.502   3.568  16.502  0.00  0.00    +0.000 A 
ATOM     19  C   UNL     1      47.812   3.363  17.842  0.00  0.00    +0.000 A 
ATOM     20  C   UNL     1      48.482   4.348  18.585  0.00  0.00    +0.000 A 
ATOM     21 CL   UNL     1      48.645   4.003  20.276  0.00  0.00    +0.000 Cl
ATOM     22  C   UNL     1      48.918   5.550  17.982  0.00  0.00    +0.000 A 
ATOM     23  C   UNL     1      48.552   5.738  16.622  0.00  0.00    +0.000 A 
BRANCH  22  24
ATOM     24  C   UNL     1      49.708   6.607  18.670  0.00  0.00    +0.000 A 
ATOM     25  C   UNL     1      49.155   7.773  19.205  0.00  0.00    +0.000 A 
ATOM     26  C   UNL     1      49.977   8.716  19.824  0.00  0.00    +0.000 A 
ATOM     27  C   UNL     1      51.332   8.457  19.948  0.00  0.00    +0.000 A 
ATOM     28  C   UNL     1      51.807   7.263  19.439  0.00  0.00    +0.000 A 
ATOM     29  N   UNL     1      51.036   6.346  18.808  0.00  0.00    +0.000 NA
ENDBRANCH  22  24
ENDBRANCH  16  17
ENDBRANCH   6  16
TORSDOF 5
ENDMDL
MODEL 6
REMARK VINA RESULT:    -6.300      3.715      8.233
REMARK INTER + INTRA:          -9.003
REMARK INTER:                  -8.185
REMARK INTRA:                  -0.818
REMARK UNBOUND:                -0.862
REMARK  Name = 
REMARK  6 active torsions:
REMARK  status: ('A' for Active; 'I' for Inactive)
REMARK    1  A    between atoms: C_1  and  O_2
REMARK    2  A    between atoms: O_2  and  C_3
REMARK    3  A    between atoms: C_5  and  C_6
REMARK    4  A    between atoms: N_11  and  C_12
REMARK    5  A    between atoms: C_12  and  C_13
REMARK    6  A    between atoms: C_18  and  C_19
REMARK                            x       y       z     vdW  Elec       q    Type
REMARK                         _______ _______ _______ _____ _____    ______ ____
ROOT
ATOM      1  C   UNL     1      45.409   6.545  12.021  0.00  0.00    +0.000 A 
ATOM      2  C   UNL     1      44.705   5.620  11.312  0.00  0.00    +0.000 A 
ATOM      3  C   UNL     1      44.915   4.327  11.720  0.00  0.00    +0.000 A 
ATOM      4  N   UNL     1      45.748   3.961  12.731  0.00  0.00    +0.000 NA
ATOM      5  C   UNL     1      46.402   4.955  13.336  0.00  0.00    +0.000 A 
ATOM      6  N   UNL     1      47.353   4.708  14.309  0.00  0.00    +0.000 N 
ATOM      7  N   UNL     1      46.246   6.242  13.028  0.00  0.00    +0.000 NA
ATOM      8  H   UNL     1      47.530   5.589  14.778  0.00  0.00    +0.000 HD
ENDROOT
BRANCH   3   9
ATOM      9  C   UNL     1      44.205   3.221  11.007  0.00  0.00    +0.000 C 
ATOM     10  N   UNL     1      44.949   2.545  10.080  0.00  0.00    +0.000 N 
ATOM     11  O   UNL     1      43.035   2.938  11.226  0.00  0.00    +0.000 OA
ATOM     12  H   UNL     1      45.903   2.832   9.893  0.00  0.00    +0.000 HD
ATOM     13  H   UNL     1      44.516   1.816   9.532  0.00  0.00    +0.000 HD
ENDBRANCH   3   9
BRANCH   1  15
ATOM     14  C   UNL     1      45.406   8.774  12.737  0.00  0.00    +0.000 C 
ATOM     15  O   UNL     1      45.249   7.866  11.646  0.00  0.00    +0.000 OA
ENDBRANCH   1  15
BRANCH   6  16
ATOM     16  C   UNL     1      47.111   3.590  15.188  0.00  0.00    +0.000 C 
BRANCH  16  17
ATOM     17  C   UNL     1      47.673   3.916  16.559  0.00  0.00    +0.000 A 
ATOM     18  C   UNL     1      48.052   2.878  17.415  0.00  0.00    +0.000 A 
ATOM     19  C   UNL     1      48.513   3.165  18.695  0.00  0.00    +0.000 A 
ATOM     20  C   UNL     1      48.632   4.492  19.137  0.00  0.00    +0.000 A 
ATOM     21 CL   UNL     1      49.062   4.670  20.807  0.00  0.00    +0.000 Cl
ATOM     22  C   UNL     1      48.349   5.579  18.278  0.00  0.00    +0.000 A 
ATOM     23  C   UNL     1      47.848   5.246  16.991  0.00  0.00    +0.000 A 
BRANCH  22  24
ATOM     24  C   UNL     1      48.530   7.012  18.634  0.00  0.00    +0.000 A 
ATOM     25  C   UNL     1      49.771   7.649  18.710  0.00  0.00    +0.000 A 
ATOM     26  C   UNL     1      49.845   8.996  19.064  0.00  0.00    +0.000 A 
ATOM     27  C   UNL     1      48.675   9.704  19.286  0.00  0.00    +0.000 A 
ATOM     28  C   UNL     1      47.478   9.027  19.148  0.00  0.00    +0.000 A 
ATOM     29  N   UNL     1      47.381   7.713  18.835  0.00  0.00    +0.000 NA
ENDBRANCH  22  24
ENDBRANCH  16  17
ENDBRANCH   6  16
TORSDOF 5
ENDMDL
MODEL 7
REMARK VINA RESULT:    -6.291      3.393      7.557
REMARK INTER + INTRA:          -8.991
REMARK INTER:                  -8.149
REMARK INTRA:                  -0.842
REMARK UNBOUND:                -0.862
REMARK  Name = 
REMARK  6 active torsions:
REMARK  status: ('A' for Active; 'I' for Inactive)
REMARK    1  A    between atoms: C_1  and  O_2
REMARK    2  A    between atoms: O_2  and  C_3
REMARK    3  A    between atoms: C_5  and  C_6
REMARK    4  A    between atoms: N_11  and  C_12
REMARK    5  A    between atoms: C_12  and  C_13
REMARK    6  A    between atoms: C_18  and  C_19
REMARK                            x       y       z     vdW  Elec       q    Type
REMARK                         _______ _______ _______ _____ _____    ______ ____
ROOT
ATOM      1  C   UNL     1      44.258   4.312  11.607  0.00  0.00    +0.000 A 
ATOM      2  C   UNL     1      44.361   3.856  10.328  0.00  0.00    +0.000 A 
ATOM      3  C   UNL     1      45.269   4.543   9.563  0.00  0.00    +0.000 A 
ATOM      4  N   UNL     1      46.012   5.594  10.002  0.00  0.00    +0.000 NA
ATOM      5  C   UNL     1      45.805   5.965  11.268  0.00  0.00    +0.000 A 
ATOM      6  N   UNL     1      46.422   7.081  11.804  0.00  0.00    +0.000 N 
ATOM      7  N   UNL     1      44.965   5.345  12.095  0.00  0.00    +0.000 NA
ATOM      8  H   UNL     1      46.309   7.024  12.810  0.00  0.00    +0.000 HD
ENDROOT
BRANCH   3   9
ATOM      9  C   UNL     1      45.460   4.141   8.136  0.00  0.00    +0.000 C 
ATOM     10  N   UNL     1      44.481   3.341   7.613  0.00  0.00    +0.000 N 
ATOM     11  O   UNL     1      46.427   4.493   7.473  0.00  0.00    +0.000 OA
ATOM     12  H   UNL     1      43.714   3.034   8.201  0.00  0.00    +0.000 HD
ATOM     13  H   UNL     1      44.572   2.998   6.668  0.00  0.00    +0.000 HD
ENDBRANCH   3   9
BRANCH   1  15
ATOM     14  C   UNL     1      43.002   4.430  13.579  0.00  0.00    +0.000 C 
ATOM     15  O   UNL     1      43.348   3.666  12.424  0.00  0.00    +0.000 OA
ENDBRANCH   1  15
BRANCH   6  16
ATOM     16  C   UNL     1      47.765   7.361  11.358  0.00  0.00    +0.000 C 
BRANCH  16  17
ATOM     17  C   UNL     1      48.674   7.447  12.569  0.00  0.00    +0.000 A 
ATOM     18  C   UNL     1      49.867   8.171  12.487  0.00  0.00    +0.000 A 
ATOM     19  C   UNL     1      50.735   8.206  13.573  0.00  0.00    +0.000 A 
ATOM     20  C   UNL     1      50.418   7.548  14.770  0.00  0.00    +0.000 A 
ATOM     21 CL   UNL     1      51.677   7.553  15.963  0.00  0.00    +0.000 Cl
ATOM     22  C   UNL     1      49.182   6.880  14.934  0.00  0.00    +0.000 A 
ATOM     23  C   UNL     1      48.338   6.835  13.792  0.00  0.00    +0.000 A 
BRANCH  22  24
ATOM     24  C   UNL     1      48.728   6.231  16.194  0.00  0.00    +0.000 A 
ATOM     25  C   UNL     1      48.638   6.887  17.424  0.00  0.00    +0.000 A 
ATOM     26  C   UNL     1      48.212   6.193  18.557  0.00  0.00    +0.000 A 
ATOM     27  C   UNL     1      47.832   4.867  18.436  0.00  0.00    +0.000 A 
ATOM     28  C   UNL     1      47.901   4.290  17.183  0.00  0.00    +0.000 A 
ATOM     29  N   UNL     1      48.338   4.933  16.074  0.00  0.00    +0.000 NA
ENDBRANCH  22  24
ENDBRANCH  16  17
ENDBRANCH   6  16
TORSDOF 5
ENDMDL
MODEL 8
REMARK VINA RESULT:    -6.167      4.518      7.827
REMARK INTER + INTRA:          -8.831
REMARK INTER:                  -8.113
REMARK INTRA:                  -0.718
REMARK UNBOUND:                -0.862
REMARK  Name = 
REMARK  6 active torsions:
REMARK  status: ('A' for Active; 'I' for Inactive)
REMARK    1  A    between atoms: C_1  and  O_2
REMARK    2  A    between atoms: O_2  and  C_3
REMARK    3  A    between atoms: C_5  and  C_6
REMARK    4  A    between atoms: N_11  and  C_12
REMARK    5  A    between atoms: C_12  and  C_13
REMARK    6  A    between atoms: C_18  and  C_19
REMARK                            x       y       z     vdW  Elec       q    Type
REMARK                         _______ _______ _______ _____ _____    ______ ____
ROOT
ATOM      1  C   UNL     1      45.097   4.330   8.972  0.00  0.00    +0.000 A 
ATOM      2  C   UNL     1      44.373   3.547   9.819  0.00  0.00    +0.000 A 
ATOM      3  C   UNL     1      44.440   3.938  11.132  0.00  0.00    +0.000 A 
ATOM      4  N   UNL     1      45.158   4.999  11.588  0.00  0.00    +0.000 NA
ATOM      5  C   UNL     1      45.846   5.675  10.666  0.00  0.00    +0.000 A 
ATOM      6  N   UNL     1      46.695   6.711  11.012  0.00  0.00    +0.000 N 
ATOM      7  N   UNL     1      45.825   5.388   9.365  0.00  0.00    +0.000 NA
ATOM      8  H   UNL     1      46.911   7.213  10.159  0.00  0.00    +0.000 HD
ENDROOT
BRANCH   3   9
ATOM      9  C   UNL     1      43.695   3.145  12.158  0.00  0.00    +0.000 C 
ATOM     10  N   UNL     1      43.306   1.893  11.768  0.00  0.00    +0.000 N 
ATOM     11  O   UNL     1      43.441   3.581  13.273  0.00  0.00    +0.000 OA
ATOM     12  H   UNL     1      43.497   1.578  10.824  0.00  0.00    +0.000 HD
ATOM     13  H   UNL     1      42.761   1.324  12.399  0.00  0.00    +0.000 HD
ENDBRANCH   3   9
BRANCH   1  15
ATOM     14  C   UNL     1      46.358   3.559   7.156  0.00  0.00    +0.000 C 
ATOM     15  O   UNL     1      45.079   3.977   7.634  0.00  0.00    +0.000 OA
ENDBRANCH   1  15
BRANCH   6  16
ATOM     16  C   UNL     1      46.292   7.541  12.121  0.00  0.00    +0.000 C 
BRANCH  16  17
ATOM     17  C   UNL     1      47.501   8.309  12.621  0.00  0.00    +0.000 A 
ATOM     18  C   UNL     1      47.533   8.764  13.942  0.00  0.00    +0.000 A 
ATOM     19  C   UNL     1      48.610   9.519  14.392  0.00  0.00    +0.000 A 
ATOM     20  C   UNL     1      49.689   9.811  13.544  0.00  0.00    +0.000 A 
ATOM     21 CL   UNL     1      50.867  10.897  14.207  0.00  0.00    +0.000 Cl
ATOM     22  C   UNL     1      49.747   9.296  12.228  0.00  0.00    +0.000 A 
ATOM     23  C   UNL     1      48.614   8.560  11.794  0.00  0.00    +0.000 A 
BRANCH  22  24
ATOM     24  C   UNL     1      50.890   9.483  11.294  0.00  0.00    +0.000 A 
ATOM     25  C   UNL     1      51.882   8.526  11.070  0.00  0.00    +0.000 A 
ATOM     26  C   UNL     1      52.924   8.794  10.181  0.00  0.00    +0.000 A 
ATOM     27  C   UNL     1      52.933   9.993   9.489  0.00  0.00    +0.000 A 
ATOM     28  C   UNL     1      51.897  10.877   9.721  0.00  0.00    +0.000 A 
ATOM     29  N   UNL     1      50.891  10.654  10.600  0.00  0.00    +0.000 NA
ENDBRANCH  22  24
ENDBRANCH  16  17
ENDBRANCH   6  16
TORSDOF 5
ENDMDL
MODEL 9
REMARK VINA RESULT:    -6.096      3.255      4.746
REMARK INTER + INTRA:          -8.739
REMARK INTER:                  -8.015
REMARK INTRA:                  -0.724
REMARK UNBOUND:                -0.862
REMARK  Name = 
REMARK  6 active torsions:
REMARK  status: ('A' for Active; 'I' for Inactive)
REMARK    1  A    between atoms: C_1  and  O_2
REMARK    2  A    between atoms: O_2  and  C_3
REMARK    3  A    between atoms: C_5  and  C_6
REMARK    4  A    between atoms: N_11  and  C_12
REMARK    5  A    between atoms: C_12  and  C_13
REMARK    6  A    between atoms: C_18  and  C_19
REMARK                            x       y       z     vdW  Elec       q    Type
REMARK                         _______ _______ _______ _____ _____    ______ ____
ROOT
ATOM      1  C   UNL     1      51.961   1.381  17.799  0.00  0.00    +0.000 A 
ATOM      2  C   UNL     1      52.764   2.468  17.970  0.00  0.00    +0.000 A 
ATOM      3  C   UNL     1      52.137   3.665  17.732  0.00  0.00    +0.000 A 
ATOM      4  N   UNL     1      50.838   3.797  17.351  0.00  0.00    +0.000 NA
ATOM      5  C   UNL     1      50.160   2.658  17.193  0.00  0.00    +0.000 A 
ATOM      6  N   UNL     1      48.864   2.649  16.712  0.00  0.00    +0.000 N 
ATOM      7  N   UNL     1      50.673   1.450  17.424  0.00  0.00    +0.000 NA
ATOM      8  H   UNL     1      48.485   1.728  16.902  0.00  0.00    +0.000 HD
ENDROOT
BRANCH   3   9
ATOM      9  C   UNL     1      52.922   4.930  17.875  0.00  0.00    +0.000 C 
ATOM     10  N   UNL     1      52.666   5.892  16.937  0.00  0.00    +0.000 N 
ATOM     11  O   UNL     1      53.745   5.100  18.766  0.00  0.00    +0.000 OA
ATOM     12  H   UNL     1      52.009   5.703  16.189  0.00  0.00    +0.000 HD
ATOM     13  H   UNL     1      53.195   6.752  16.952  0.00  0.00    +0.000 HD
ENDBRANCH   3   9
BRANCH   1  15
ATOM     14  C   UNL     1      53.966   0.204  18.076  0.00  0.00    +0.000 C 
ATOM     15  O   UNL     1      52.541   0.143  18.012  0.00  0.00    +0.000 OA
ENDBRANCH   1  15
BRANCH   6  16
ATOM     16  C   UNL     1      48.016   3.748  17.104  0.00  0.00    +0.000 C 
BRANCH  16  17
ATOM     17  C   UNL     1      47.719   4.596  15.882  0.00  0.00    +0.000 A 
ATOM     18  C   UNL     1      48.532   5.695  15.590  0.00  0.00    +0.000 A 
ATOM     19  C   UNL     1      48.233   6.513  14.506  0.00  0.00    +0.000 A 
ATOM     20  C   UNL     1      47.137   6.236  13.675  0.00  0.00    +0.000 A 
ATOM     21 CL   UNL     1      46.807   7.441  12.472  0.00  0.00    +0.000 Cl
ATOM     22  C   UNL     1      46.339   5.085  13.874  0.00  0.00    +0.000 A 
ATOM     23  C   UNL     1      46.654   4.294  15.011  0.00  0.00    +0.000 A 
BRANCH  22  24
ATOM     24  C   UNL     1      45.215   4.669  12.993  0.00  0.00    +0.000 A 
ATOM     25  C   UNL     1      45.276   3.597  12.099  0.00  0.00    +0.000 A 
ATOM     26  C   UNL     1      44.173   3.286  11.302  0.00  0.00    +0.000 A 
ATOM     27  C   UNL     1      43.006   4.017  11.447  0.00  0.00    +0.000 A 
ATOM     28  C   UNL     1      42.996   5.034  12.383  0.00  0.00    +0.000 A 
ATOM     29  N   UNL     1      44.061   5.374  13.146  0.00  0.00    +0.000 NA
ENDBRANCH  22  24
ENDBRANCH  16  17
ENDBRANCH   6  16
TORSDOF 5
ENDMDL
