MODEL 1
REMARK VINA RESULT:    -8.108      0.000      0.000
REMARK INTER + INTRA:         -10.619
REMARK INTER:                 -10.004
REMARK INTRA:                  -0.615
REMARK UNBOUND:                -0.615
REMARK  Name = 
REMARK  6 active torsions:
REMARK  status: ('A' for Active; 'I' for Inactive)
REMARK    1  A    between atoms: C_1  and  C_2
REMARK    2  A    between atoms: C_2  and  C_3
REMARK    3  A    between atoms: C_2  and  C_4
REMARK    4  A    between atoms: C_2  and  C_15
REMARK    5  A    between atoms: C_5  and  C_6
REMARK    6  A    between atoms: C_10  and  C_11
REMARK                            x       y       z     vdW  Elec       q    Type
REMARK                         _______ _______ _______ _____ _____    ______ ____
ROOT
ATOM      1  C   UNL     1      45.206   3.992  12.428  0.00  0.00    +0.000 C 
ATOM      2  C   UNL     1      45.845   5.130  12.750  0.00  0.00    +0.000 C 
ENDROOT
BRANCH   2   3
ATOM      3  C   UNL     1      46.767   5.222  13.893  0.00  0.00    +0.000 A 
ATOM      4  C   UNL     1      47.742   6.215  13.958  0.00  0.00    +0.000 A 
ATOM      5  N   UNL     1      48.616   6.332  14.989  0.00  0.00    +0.000 NA
ATOM      6  C   UNL     1      48.476   5.406  15.973  0.00  0.00    +0.000 A 
ATOM      7  C   UNL     1      47.508   4.417  15.921  0.00  0.00    +0.000 A 
ATOM      8  N   UNL     1      46.632   4.300  14.884  0.00  0.00    +0.000 NA
BRANCH   7   9
ATOM      9  C   UNL     1      47.400   3.428  17.030  0.00  0.00    +0.000 C 
ATOM     10  N   UNL     1      48.578   3.068  17.635  0.00  0.00    +0.000 N 
ATOM     11  O   UNL     1      46.327   2.961  17.385  0.00  0.00    +0.000 OA
ATOM     12  H   UNL     1      49.457   3.461  17.325  0.00  0.00    +0.000 HD
ATOM     13  H   UNL     1      48.554   2.399  18.393  0.00  0.00    +0.000 HD
ENDBRANCH   7   9
ENDBRANCH   2   3
BRANCH   1  15
ATOM     14  C   UNL     1      43.290   2.606  11.736  0.00  0.00    +0.000 C 
ATOM     15  C   UNL     1      44.234   3.742  11.281  0.00  0.00    +0.000 C 
ATOM     16  C   UNL     1      43.373   5.024  11.130  0.00  0.00    +0.000 C 
BRANCH  15  17
ATOM     17  C   UNL     1      44.922   3.442   9.935  0.00  0.00    +0.000 A 
ATOM     18  C   UNL     1      45.348   4.461   9.057  0.00  0.00    +0.000 A 
ATOM     19  C   UNL     1      46.009   4.169   7.859  0.00  0.00    +0.000 A 
ATOM     20  C   UNL     1      46.258   2.848   7.506  0.00  0.00    +0.000 A 
ATOM     21  C   UNL     1      45.836   1.831   8.352  0.00  0.00    +0.000 A 
ATOM     22  F   UNL     1      46.074   0.556   8.015  0.00  0.00    +0.000 F 
ATOM     23  C   UNL     1      45.175   2.113   9.545  0.00  0.00    +0.000 A 
ENDBRANCH  15  17
ENDBRANCH   1  15
TORSDOF 4
ENDMDL
MODEL 2
REMARK VINA RESULT:    -7.183      1.872      2.594
REMARK INTER + INTRA:          -9.477
REMARK INTER:                  -8.916
REMARK INTRA:                  -0.561
REMARK UNBOUND:                -0.615
REMARK  Name = 
REMARK  6 active torsions:
REMARK  status: ('A' for Active; 'I' for Inactive)
REMARK    1  A    between atoms: C_1  and  C_2
REMARK    2  A    between atoms: C_2  and  C_3
REMARK    3  A    between atoms: C_2  and  C_4
REMARK    4  A    between atoms: C_2  and  C_15
REMARK    5  A    between atoms: C_5  and  C_6
REMARK    6  A    between atoms: C_10  and  C_11
REMARK                            x       y       z     vdW  Elec       q    Type
REMARK                         _______ _______ _______ _____ _____    ______ ____
ROOT
ATOM      1  C   UNL     1      45.272   4.217  12.255  0.00  0.00    +0.000 C 
ATOM      2  C   UNL     1      46.021   5.322  12.420  0.00  0.00    +0.000 C 
ENDROOT
BRANCH   2   3
ATOM      3  C   UNL     1      46.921   5.501  13.570  0.00  0.00    +0.000 A 
ATOM      4  C   UNL     1      46.920   4.601  14.636  0.00  0.00    +0.000 A 
ATOM      5  N   UNL     1      47.728   4.732  15.718  0.00  0.00    +0.000 NA
ATOM      6  C   UNL     1      48.555   5.810  15.696  0.00  0.00    +0.000 A 
ATOM      7  C   UNL     1      48.567   6.707  14.640  0.00  0.00    +0.000 A 
ATOM      8  N   UNL     1      47.753   6.576  13.555  0.00  0.00    +0.000 NA
BRANCH   7   9
ATOM      9  C   UNL     1      49.496   7.871  14.670  0.00  0.00    +0.000 C 
ATOM     10  N   UNL     1      50.786   7.625  14.273  0.00  0.00    +0.000 N 
ATOM     11  O   UNL     1      49.134   8.984  15.025  0.00  0.00    +0.000 OA
ATOM     12  H   UNL     1      51.069   6.697  13.987  0.00  0.00    +0.000 HD
ATOM     13  H   UNL     1      51.452   8.386  14.277  0.00  0.00    +0.000 HD
ENDBRANCH   7   9
ENDBRANCH   2   3
BRANCH   1  15
ATOM     14  C   UNL     1      43.363   2.781  11.652  0.00  0.00    +0.000 C 
ATOM     15  C   UNL     1      44.305   3.887  11.124  0.00  0.00    +0.000 C 
ATOM     16  C   UNL     1      43.442   5.152  10.883  0.00  0.00    +0.000 C 
BRANCH  15  17
ATOM     17  C   UNL     1      45.000   3.499   9.804  0.00  0.00    +0.000 A 
ATOM     18  C   UNL     1      45.464   4.458   8.880  0.00  0.00    +0.000 A 
ATOM     19  C   UNL     1      46.130   4.086   7.708  0.00  0.00    +0.000 A 
ATOM     20  C   UNL     1      46.345   2.742   7.427  0.00  0.00    +0.000 A 
ATOM     21  C   UNL     1      45.886   1.783   8.318  0.00  0.00    +0.000 A 
ATOM     22  F   UNL     1      46.091   0.486   8.051  0.00  0.00    +0.000 F 
ATOM     23  C   UNL     1      45.220   2.144   9.487  0.00  0.00    +0.000 A 
ENDBRANCH  15  17
ENDBRANCH   1  15
TORSDOF 4
ENDMDL
MODEL 3
REMARK VINA RESULT:    -6.516      1.942      3.205
REMARK INTER + INTRA:          -8.654
REMARK INTER:                  -8.060
REMARK INTRA:                  -0.594
REMARK UNBOUND:                -0.615
REMARK  Name = 
REMARK  6 active torsions:
REMARK  status: ('A' for Active; 'I' for Inactive)
REMARK    1  A    between atoms: C_1  and  C_2
REMARK    2  A    between atoms: C_2  and  C_3
REMARK    3  A    between atoms: C_2  and  C_4
REMARK    4  A    between atoms: C_2  and  C_15
REMARK    5  A    between atoms: C_5  and  C_6
REMARK    6  A    between atoms: C_10  and  C_11
REMARK                            x       y       z     vdW  Elec       q    Type
REMARK                         _______ _______ _______ _____ _____    ______ ____
ROOT
ATOM      1  C   UNL     1      47.069   6.203  13.654  0.00  0.00    +0.000 C 
ATOM      2  C   UNL     1      48.203   6.641  14.229  0.00  0.00    +0.000 C 
ENDROOT
BRANCH   2   3
ATOM      3  C   UNL     1      48.692   6.114  15.512  0.00  0.00    +0.000 A 
ATOM      4  C   UNL     1      49.815   6.656  16.135  0.00  0.00    +0.000 A 
ATOM      5  N   UNL     1      50.304   6.196  17.315  0.00  0.00    +0.000 NA
ATOM      6  C   UNL     1      49.617   5.159  17.860  0.00  0.00    +0.000 A 
ATOM      7  C   UNL     1      48.498   4.616  17.252  0.00  0.00    +0.000 A 
ATOM      8  N   UNL     1      48.009   5.077  16.066  0.00  0.00    +0.000 NA
BRANCH   7   9
ATOM      9  C   UNL     1      47.783   3.479  17.897  0.00  0.00    +0.000 C 
ATOM     10  N   UNL     1      48.320   3.017  19.072  0.00  0.00    +0.000 N 
ATOM     11  O   UNL     1      46.777   2.983  17.412  0.00  0.00    +0.000 OA
ATOM     12  H   UNL     1      49.156   3.436  19.456  0.00  0.00    +0.000 HD
ATOM     13  H   UNL     1      47.869   2.246  19.546  0.00  0.00    +0.000 HD
ENDBRANCH   7   9
ENDBRANCH   2   3
BRANCH   1  15
ATOM     14  C   UNL     1      45.576   7.887  12.651  0.00  0.00    +0.000 C 
ATOM     15  C   UNL     1      46.440   6.645  12.337  0.00  0.00    +0.000 C 
ATOM     16  C   UNL     1      47.599   7.109  11.417  0.00  0.00    +0.000 C 
BRANCH  15  17
ATOM     17  C   UNL     1      45.650   5.532  11.620  0.00  0.00    +0.000 A 
ATOM     18  C   UNL     1      45.535   5.467  10.216  0.00  0.00    +0.000 A 
ATOM     19  C   UNL     1      44.848   4.426   9.583  0.00  0.00    +0.000 A 
ATOM     20  C   UNL     1      44.254   3.424  10.340  0.00  0.00    +0.000 A 
ATOM     21  C   UNL     1      44.346   3.477  11.724  0.00  0.00    +0.000 A 
ATOM     22  F   UNL     1      43.774   2.512  12.457  0.00  0.00    +0.000 F 
ATOM     23  C   UNL     1      45.026   4.511  12.363  0.00  0.00    +0.000 A 
ENDBRANCH  15  17
ENDBRANCH   1  15
TORSDOF 4
ENDMDL
MODEL 4
REMARK VINA RESULT:    -6.463      2.848      3.880
REMARK INTER + INTRA:          -8.589
REMARK INTER:                  -8.076
REMARK INTRA:                  -0.513
REMARK UNBOUND:                -0.615
REMARK  Name = 
REMARK  6 active torsions:
REMARK  status: ('A' for Active; 'I' for Inactive)
REMARK    1  A    between atoms: C_1  and  C_2
REMARK    2  A    between atoms: C_2  and  C_3
REMARK    3  A    between atoms: C_2  and  C_4
REMARK    4  A    between atoms: C_2  and  C_15
REMARK    5  A    between atoms: C_5  and  C_6
REMARK    6  A    between atoms: C_10  and  C_11
REMARK                            x       y       z     vdW  Elec       q    Type
REMARK                         _______ _______ _______ _____ _____    ______ ____
ROOT
ATOM      1  C   UNL     1      45.669   4.542  10.394  0.00  0.00    +0.000 C 
ATOM      2  C   UNL     1      45.288   5.081  11.566  0.00  0.00    +0.000 C 
ENDROOT
BRANCH   2   3
ATOM      3  C   UNL     1      46.149   6.000  12.328  0.00  0.00    +0.000 A 
ATOM      4  C   UNL     1      47.038   5.526  13.291  0.00  0.00    +0.000 A 
ATOM      5  N   UNL     1      47.844   6.338  14.021  0.00  0.00    +0.000 NA
ATOM      6  C   UNL     1      47.730   7.663  13.747  0.00  0.00    +0.000 A 
ATOM      7  C   UNL     1      46.854   8.145  12.788  0.00  0.00    +0.000 A 
ATOM      8  N   UNL     1      46.043   7.328  12.058  0.00  0.00    +0.000 NA
BRANCH   7   9
ATOM      9  C   UNL     1      46.772   9.609  12.529  0.00  0.00    +0.000 C 
ATOM     10  N   UNL     1      47.754  10.380  13.100  0.00  0.00    +0.000 N 
ATOM     11  O   UNL     1      45.884  10.102  11.848  0.00  0.00    +0.000 OA
ATOM     12  H   UNL     1      48.478   9.955  13.664  0.00  0.00    +0.000 HD
ATOM     13  H   UNL     1      47.739  11.379  12.952  0.00  0.00    +0.000 HD
ENDBRANCH   7   9
ENDBRANCH   2   3
BRANCH   1  15
ATOM     14  C   UNL     1      44.148   2.604  10.424  0.00  0.00    +0.000 C 
ATOM     15  C   UNL     1      44.894   3.586   9.494  0.00  0.00    +0.000 C 
ATOM     16  C   UNL     1      43.822   4.429   8.756  0.00  0.00    +0.000 C 
BRANCH  15  17
ATOM     17  C   UNL     1      45.770   2.868   8.448  0.00  0.00    +0.000 A 
ATOM     18  C   UNL     1      46.470   3.563   7.439  0.00  0.00    +0.000 A 
ATOM     19  C   UNL     1      47.293   2.896   6.525  0.00  0.00    +0.000 A 
ATOM     20  C   UNL     1      47.434   1.516   6.595  0.00  0.00    +0.000 A 
ATOM     21  C   UNL     1      46.745   0.814   7.573  0.00  0.00    +0.000 A 
ATOM     22  F   UNL     1      46.878  -0.517   7.643  0.00  0.00    +0.000 F 
ATOM     23  C   UNL     1      45.922   1.469   8.486  0.00  0.00    +0.000 A 
ENDBRANCH  15  17
ENDBRANCH   1  15
TORSDOF 4
ENDMDL
MODEL 5
REMARK VINA RESULT:    -6.456      3.804      7.590
REMARK INTER + INTRA:          -8.580
REMARK INTER:                  -8.019
REMARK INTRA:                  -0.561
REMARK UNBOUND:                -0.615
REMARK  Name = 
REMARK  6 active torsions:
REMARK  status: ('A' for Active; 'I' for Inactive)
REMARK    1  A    between atoms: C_1  and  C_2
REMARK    2  A    between atoms: C_2  and  C_3
REMARK    3  A    between atoms: C_2  and  C_4
REMARK    4  A    between atoms: C_2  and  C_15
REMARK    5  A    between atoms: C_5  and  C_6
REMARK    6  A    between atoms: C_10  and  C_11
REMARK                            x       y       z     vdW  Elec       q    Type
REMARK                         _______ _______ _______ _____ _____    ______ ____
ROOT
ATOM      1  C   UNL     1      47.532   4.635  16.044  0.00  0.00    +0.000 C 
ATOM      2  C   UNL     1      47.016   3.929  15.022  0.00  0.00    +0.000 C 
ENDROOT
BRANCH   2   3
ATOM      3  C   UNL     1      46.616   4.556  13.752  0.00  0.00    +0.000 A 
ATOM      4  C   UNL     1      47.240   5.714  13.290  0.00  0.00    +0.000 A 
ATOM      5  N   UNL     1      46.898   6.328  12.129  0.00  0.00    +0.000 NA
ATOM      6  C   UNL     1      45.896   5.731  11.432  0.00  0.00    +0.000 A 
ATOM      7  C   UNL     1      45.273   4.578  11.880  0.00  0.00    +0.000 A 
ATOM      8  N   UNL     1      45.615   3.964  13.048  0.00  0.00    +0.000 NA
BRANCH   7   9
ATOM      9  C   UNL     1      44.180   3.967  11.074  0.00  0.00    +0.000 C 
ATOM     10  N   UNL     1      44.018   2.610  11.205  0.00  0.00    +0.000 N 
ATOM     11  O   UNL     1      43.465   4.630  10.337  0.00  0.00    +0.000 OA
ATOM     12  H   UNL     1      44.622   2.077  11.816  0.00  0.00    +0.000 HD
ATOM     13  H   UNL     1      43.289   2.152  10.677  0.00  0.00    +0.000 HD
ENDBRANCH   7   9
ENDBRANCH   2   3
BRANCH   1  15
ATOM     14  C   UNL     1      47.579   5.203  18.441  0.00  0.00    +0.000 C 
ATOM     15  C   UNL     1      47.994   4.132  17.407  0.00  0.00    +0.000 C 
ATOM     16  C   UNL     1      47.178   2.851  17.716  0.00  0.00    +0.000 C 
BRANCH  15  17
ATOM     17  C   UNL     1      49.496   3.793  17.469  0.00  0.00    +0.000 A 
ATOM     18  C   UNL     1      50.486   4.772  17.694  0.00  0.00    +0.000 A 
ATOM     19  C   UNL     1      51.841   4.438  17.790  0.00  0.00    +0.000 A 
ATOM     20  C   UNL     1      52.242   3.114  17.658  0.00  0.00    +0.000 A 
ATOM     21  C   UNL     1      51.284   2.138  17.425  0.00  0.00    +0.000 A 
ATOM     22  F   UNL     1      51.666   0.860  17.297  0.00  0.00    +0.000 F 
ATOM     23  C   UNL     1      49.933   2.462  17.326  0.00  0.00    +0.000 A 
ENDBRANCH  15  17
ENDBRANCH   1  15
TORSDOF 4
ENDMDL
MODEL 6
REMARK VINA RESULT:    -6.404      2.115      3.231
REMARK INTER + INTRA:          -8.516
REMARK INTER:                  -7.998
REMARK INTRA:                  -0.518
REMARK UNBOUND:                -0.615
REMARK  Name = 
REMARK  6 active torsions:
REMARK  status: ('A' for Active; 'I' for Inactive)
REMARK    1  A    between atoms: C_1  and  C_2
REMARK    2  A    between atoms: C_2  and  C_3
REMARK    3  A    between atoms: C_2  and  C_4
REMARK    4  A    between atoms: C_2  and  C_15
REMARK    5  A    between atoms: C_5  and  C_6
REMARK    6  A    between atoms: C_10  and  C_11
REMARK                            x       y       z     vdW  Elec       q    Type
REMARK                         _______ _______ _______ _____ _____    ______ ____
ROOT
ATOM      1  C   UNL     1      46.428   5.487  13.607  0.00  0.00    +0.000 C 
ATOM      2  C   UNL     1      47.545   5.609  14.346  0.00  0.00    +0.000 C 
ENDROOT
BRANCH   2   3
ATOM      3  C   UNL     1      47.744   4.866  15.601  0.00  0.00    +0.000 A 
ATOM      4  C   UNL     1      46.784   3.972  16.073  0.00  0.00    +0.000 A 
ATOM      5  N   UNL     1      46.925   3.273  17.227  0.00  0.00    +0.000 NA
ATOM      6  C   UNL     1      48.081   3.499  17.903  0.00  0.00    +0.000 A 
ATOM      7  C   UNL     1      49.043   4.382  17.442  0.00  0.00    +0.000 A 
ATOM      8  N   UNL     1      48.900   5.086  16.283  0.00  0.00    +0.000 NA
BRANCH   7   9
ATOM      9  C   UNL     1      50.293   4.590  18.225  0.00  0.00    +0.000 C 
ATOM     10  N   UNL     1      51.050   3.471  18.466  0.00  0.00    +0.000 N 
ATOM     11  O   UNL     1      50.630   5.693  18.634  0.00  0.00    +0.000 OA
ATOM     12  H   UNL     1      50.753   2.567  18.124  0.00  0.00    +0.000 HD
ATOM     13  H   UNL     1      51.906   3.564  18.994  0.00  0.00    +0.000 HD
ENDBRANCH   7   9
ENDBRANCH   2   3
BRANCH   1  15
ATOM     14  C   UNL     1      45.152   7.364  12.647  0.00  0.00    +0.000 C 
ATOM     15  C   UNL     1      46.081   6.180  12.294  0.00  0.00    +0.000 C 
ATOM     16  C   UNL     1      47.398   6.778  11.735  0.00  0.00    +0.000 C 
BRANCH  15  17
ATOM     17  C   UNL     1      45.473   5.239  11.235  0.00  0.00    +0.000 A 
ATOM     18  C   UNL     1      45.703   5.402   9.853  0.00  0.00    +0.000 A 
ATOM     19  C   UNL     1      45.177   4.511   8.911  0.00  0.00    +0.000 A 
ATOM     20  C   UNL     1      44.401   3.437   9.328  0.00  0.00    +0.000 A 
ATOM     21  C   UNL     1      44.153   3.267  10.683  0.00  0.00    +0.000 A 
ATOM     22  F   UNL     1      43.405   2.232  11.089  0.00  0.00    +0.000 F 
ATOM     23  C   UNL     1      44.672   4.149  11.628  0.00  0.00    +0.000 A 
ENDBRANCH  15  17
ENDBRANCH   1  15
TORSDOF 4
ENDMDL
MODEL 7
REMARK VINA RESULT:    -6.276      4.042      7.390
REMARK INTER + INTRA:          -8.358
REMARK INTER:                  -7.754
REMARK INTRA:                  -0.604
REMARK UNBOUND:                -0.615
REMARK  Name = 
REMARK  6 active torsions:
REMARK  status: ('A' for Active; 'I' for Inactive)
REMARK    1  A    between atoms: C_1  and  C_2
REMARK    2  A    between atoms: C_2  and  C_3
REMARK    3  A    between atoms: C_2  and  C_4
REMARK    4  A    between atoms: C_2  and  C_15
REMARK    5  A    between atoms: C_5  and  C_6
REMARK    6  A    between atoms: C_10  and  C_11
REMARK                            x       y       z     vdW  Elec       q    Type
REMARK                         _______ _______ _______ _____ _____    ______ ____
ROOT
ATOM      1  C   UNL     1      46.877   6.558  12.262  0.00  0.00    +0.000 C 
ATOM      2  C   UNL     1      45.575   6.344  12.519  0.00  0.00    +0.000 C 
ENDROOT
BRANCH   2   3
ATOM      3  C   UNL     1      44.894   5.091  12.153  0.00  0.00    +0.000 A 
ATOM      4  C   UNL     1      44.089   4.413  13.067  0.00  0.00    +0.000 A 
ATOM      5  N   UNL     1      43.448   3.253  12.774  0.00  0.00    +0.000 NA
ATOM      6  C   UNL     1      43.641   2.789  11.512  0.00  0.00    +0.000 A 
ATOM      7  C   UNL     1      44.436   3.457  10.595  0.00  0.00    +0.000 A 
ATOM      8  N   UNL     1      45.080   4.621  10.891  0.00  0.00    +0.000 NA
BRANCH   7   9
ATOM      9  C   UNL     1      44.611   2.902   9.224  0.00  0.00    +0.000 C 
ATOM     10  N   UNL     1      44.266   3.731   8.186  0.00  0.00    +0.000 N 
ATOM     11  O   UNL     1      45.037   1.772   9.028  0.00  0.00    +0.000 OA
ATOM     12  H   UNL     1      43.910   4.660   8.367  0.00  0.00    +0.000 HD
ATOM     13  H   UNL     1      44.368   3.397   7.238  0.00  0.00    +0.000 HD
ENDBRANCH   7   9
ENDBRANCH   2   3
BRANCH   1  15
ATOM     14  C   UNL     1      48.916   7.777  11.606  0.00  0.00    +0.000 C 
ATOM     15  C   UNL     1      47.717   7.790  12.582  0.00  0.00    +0.000 C 
ATOM     16  C   UNL     1      46.852   9.029  12.234  0.00  0.00    +0.000 C 
BRANCH  15  17
ATOM     17  C   UNL     1      48.150   7.882  14.058  0.00  0.00    +0.000 A 
ATOM     18  C   UNL     1      48.053   9.076  14.804  0.00  0.00    +0.000 A 
ATOM     19  C   UNL     1      48.411   9.128  16.155  0.00  0.00    +0.000 A 
ATOM     20  C   UNL     1      48.881   7.988  16.794  0.00  0.00    +0.000 A 
ATOM     21  C   UNL     1      48.994   6.807  16.074  0.00  0.00    +0.000 A 
ATOM     22  F   UNL     1      49.448   5.705  16.687  0.00  0.00    +0.000 F 
ATOM     23  C   UNL     1      48.642   6.746  14.728  0.00  0.00    +0.000 A 
ENDBRANCH  15  17
ENDBRANCH   1  15
TORSDOF 4
ENDMDL
MODEL 8
REMARK VINA RESULT:    -6.263      2.020      2.776
REMARK INTER + INTRA:          -8.342
REMARK INTER:                  -7.836
REMARK INTRA:                  -0.506
REMARK UNBOUND:                -0.615
REMARK  Name = 
REMARK  6 active torsions:
REMARK  status: ('A' for Active; 'I' for Inactive)
REMARK    1  A    between atoms: C_1  and  C_2
REMARK    2  A    between atoms: C_2  and  C_3
REMARK    3  A    between atoms: C_2  and  C_4
REMARK    4  A    between atoms: C_2  and  C_15
REMARK    5  A    between atoms: C_5  and  C_6
REMARK    6  A    between atoms: C_10  and  C_11
REMARK                            x       y       z     vdW  Elec       q    Type
REMARK                         _______ _______ _______ _____ _____    ______ ____
ROOT
ATOM      1  C   UNL     1      45.718   4.445  10.393  0.00  0.00    +0.000 C 
ATOM      2  C   UNL     1      45.315   5.290  11.358  0.00  0.00    +0.000 C 
ENDROOT
BRANCH   2   3
ATOM      3  C   UNL     1      46.262   6.085  12.156  0.00  0.00    +0.000 A 
ATOM      4  C   UNL     1      46.650   7.363  11.756  0.00  0.00    +0.000 A 
ATOM      5  N   UNL     1      47.524   8.127  12.458  0.00  0.00    +0.000 NA
ATOM      6  C   UNL     1      48.003   7.561  13.596  0.00  0.00    +0.000 A 
ATOM      7  C   UNL     1      47.621   6.294  14.005  0.00  0.00    +0.000 A 
ATOM      8  N   UNL     1      46.744   5.526  13.298  0.00  0.00    +0.000 NA
BRANCH   7   9
ATOM      9  C   UNL     1      48.178   5.723  15.263  0.00  0.00    +0.000 C 
ATOM     10  N   UNL     1      47.341   4.905  15.979  0.00  0.00    +0.000 N 
ATOM     11  O   UNL     1      49.316   5.966  15.641  0.00  0.00    +0.000 OA
ATOM     12  H   UNL     1      46.402   4.719  15.653  0.00  0.00    +0.000 HD
ATOM     13  H   UNL     1      47.676   4.495  16.839  0.00  0.00    +0.000 HD
ENDBRANCH   7   9
ENDBRANCH   2   3
BRANCH   1  15
ATOM     14  C   UNL     1      44.092   2.594  10.407  0.00  0.00    +0.000 C 
ATOM     15  C   UNL     1      44.865   3.565   9.486  0.00  0.00    +0.000 C 
ATOM     16  C   UNL     1      43.820   4.490   8.811  0.00  0.00    +0.000 C 
BRANCH  15  17
ATOM     17  C   UNL     1      45.668   2.836   8.391  0.00  0.00    +0.000 A 
ATOM     18  C   UNL     1      46.076   1.492   8.516  0.00  0.00    +0.000 A 
ATOM     19  C   UNL     1      46.767   0.836   7.492  0.00  0.00    +0.000 A 
ATOM     20  C   UNL     1      47.073   1.511   6.316  0.00  0.00    +0.000 A 
ATOM     21  C   UNL     1      46.691   2.838   6.179  0.00  0.00    +0.000 A 
ATOM     22  F   UNL     1      46.985   3.492   5.048  0.00  0.00    +0.000 F 
ATOM     23  C   UNL     1      46.004   3.499   7.194  0.00  0.00    +0.000 A 
ENDBRANCH  15  17
ENDBRANCH   1  15
TORSDOF 4
ENDMDL
MODEL 9
REMARK VINA RESULT:    -5.876      4.633      6.938
REMARK INTER + INTRA:          -7.865
REMARK INTER:                  -7.320
REMARK INTRA:                  -0.545
REMARK UNBOUND:                -0.615
REMARK  Name = 
REMARK  6 active torsions:
REMARK  status: ('A' for Active; 'I' for Inactive)
REMARK    1  A    between atoms: C_1  and  C_2
REMARK    2  A    between atoms: C_2  and  C_3
REMARK    3  A    between atoms: C_2  and  C_4
REMARK    4  A    between atoms: C_2  and  C_15
REMARK    5  A    between atoms: C_5  and  C_6
REMARK    6  A    between atoms: C_10  and  C_11
REMARK                            x       y       z     vdW  Elec       q    Type
REMARK                         _______ _______ _______ _____ _____    ______ ____
ROOT
ATOM      1  C   UNL     1      48.288   7.475  12.264  0.00  0.00    +0.000 C 
ATOM      2  C   UNL     1      46.965   7.245  12.331  0.00  0.00    +0.000 C 
ENDROOT
BRANCH   2   3
ATOM      3  C   UNL     1      46.401   5.886  12.363  0.00  0.00    +0.000 A 
ATOM      4  C   UNL     1      46.631   5.034  13.442  0.00  0.00    +0.000 A 
ATOM      5  N   UNL     1      46.136   3.772  13.509  0.00  0.00    +0.000 NA
ATOM      6  C   UNL     1      45.386   3.387  12.444  0.00  0.00    +0.000 A 
ATOM      7  C   UNL     1      45.148   4.228  11.369  0.00  0.00    +0.000 A 
ATOM      8  N   UNL     1      45.648   5.494  11.302  0.00  0.00    +0.000 NA
BRANCH   7   9
ATOM      9  C   UNL     1      44.317   3.753  10.228  0.00  0.00    +0.000 C 
ATOM     10  N   UNL     1      44.163   4.631   9.185  0.00  0.00    +0.000 N 
ATOM     11  O   UNL     1      43.801   2.645  10.215  0.00  0.00    +0.000 OA
ATOM     12  H   UNL     1      44.594   5.546   9.215  0.00  0.00    +0.000 HD
ATOM     13  H   UNL     1      43.608   4.352   8.388  0.00  0.00    +0.000 HD
ENDBRANCH   7   9
ENDBRANCH   2   3
BRANCH   1  15
ATOM     14  C   UNL     1      47.993   9.867  11.750  0.00  0.00    +0.000 C 
ATOM     15  C   UNL     1      49.018   8.813  12.228  0.00  0.00    +0.000 C 
ATOM     16  C   UNL     1      49.391   9.164  13.692  0.00  0.00    +0.000 C 
BRANCH  15  17
ATOM     17  C   UNL     1      50.302   8.800  11.375  0.00  0.00    +0.000 A 
ATOM     18  C   UNL     1      50.959   9.982  10.976  0.00  0.00    +0.000 A 
ATOM     19  C   UNL     1      52.147   9.948  10.238  0.00  0.00    +0.000 A 
ATOM     20  C   UNL     1      52.706   8.729   9.876  0.00  0.00    +0.000 A 
ATOM     21  C   UNL     1      52.067   7.555  10.250  0.00  0.00    +0.000 A 
ATOM     22  F   UNL     1      52.603   6.377   9.902  0.00  0.00    +0.000 F 
ATOM     23  C   UNL     1      50.883   7.579  10.983  0.00  0.00    +0.000 A 
ENDBRANCH  15  17
ENDBRANCH   1  15
TORSDOF 4
ENDMDL
