MODEL 1
REMARK VINA RESULT:    -7.718      0.000      0.000
REMARK INTER + INTRA:         -10.098
REMARK INTER:                  -9.522
REMARK INTRA:                  -0.576
REMARK UNBOUND:                -0.576
REMARK  Name = 
REMARK  6 active torsions:
REMARK  status: ('A' for Active; 'I' for Inactive)
REMARK    1  A    between atoms: C_1  and  C_2
REMARK    2  A    between atoms: C_4  and  C_5
REMARK    3  A    between atoms: C_9  and  C_10
REMARK    4  A    between atoms: C_10  and  N_11
REMARK    5  A    between atoms: C_15  and  C_16
REMARK    6  A    between atoms: C_19  and  C_20
REMARK                            x       y       z     vdW  Elec       q    Type
REMARK                         _______ _______ _______ _____ _____    ______ ____
ROOT
ATOM      1  C   UNL     1      46.111   5.129  13.961  0.00  0.00    +0.000 C 
ENDROOT
BRANCH   1   2
ATOM      2  N   UNL     1      46.483   3.859  14.572  0.00  0.00    +0.000 N 
ATOM      3  C   UNL     1      47.495   4.006  15.541  0.00  0.00    +0.000 A 
ATOM      4  C   UNL     1      47.959   2.883  16.208  0.00  0.00    +0.000 A 
ATOM      5  C   UNL     1      48.933   3.030  17.199  0.00  0.00    +0.000 A 
ATOM      6  C   UNL     1      49.440   4.299  17.509  0.00  0.00    +0.000 A 
ATOM      7  C   UNL     1      48.927   5.384  16.799  0.00  0.00    +0.000 A 
ATOM      8  C   UNL     1      49.345   6.813  16.983  0.00  0.00    +0.000 C 
ATOM      9  N   UNL     1      47.970   5.230  15.838  0.00  0.00    +0.000 NA
ATOM     10  H   UNL     1      46.766   3.175  13.882  0.00  0.00    +0.000 HD
BRANCH   6  11
ATOM     11  C   UNL     1      50.451   4.447  18.589  0.00  0.00    +0.000 C 
ATOM     12  N   UNL     1      49.991   4.444  19.879  0.00  0.00    +0.000 N 
ATOM     13  O   UNL     1      51.648   4.564  18.365  0.00  0.00    +0.000 OA
ATOM     14  H   UNL     1      49.040   4.228  20.140  0.00  0.00    +0.000 HD
ATOM     15  H   UNL     1      50.689   4.488  20.611  0.00  0.00    +0.000 HD
ENDBRANCH   6  11
ENDBRANCH   1   2
BRANCH   1  20
ATOM     16  C   UNL     1      44.925   4.090  10.459  0.00  0.00    +0.000 A 
ATOM     17  C   UNL     1      43.541   4.289  10.612  0.00  0.00    +0.000 A 
ATOM     18  C   UNL     1      43.001   4.814  11.791  0.00  0.00    +0.000 A 
ATOM     19  C   UNL     1      43.833   5.123  12.864  0.00  0.00    +0.000 A 
ATOM     20  C   UNL     1      45.210   4.906  12.768  0.00  0.00    +0.000 A 
ATOM     21  C   UNL     1      45.744   4.429  11.556  0.00  0.00    +0.000 A 
BRANCH  16  25
ATOM     22  C   UNL     1      46.611   0.196   7.735  0.00  0.00    +0.000 C 
ATOM     23  C   UNL     1      46.302   1.654   7.887  0.00  0.00    +0.000 A 
ATOM     24  C   UNL     1      45.749   2.151   9.066  0.00  0.00    +0.000 A 
ATOM     25  C   UNL     1      45.496   3.526   9.209  0.00  0.00    +0.000 A 
ATOM     26  C   UNL     1      45.810   4.337   8.110  0.00  0.00    +0.000 A 
ATOM     27  C   UNL     1      46.339   3.763   6.965  0.00  0.00    +0.000 A 
ATOM     28  N   UNL     1      46.595   2.447   6.832  0.00  0.00    +0.000 NA
ENDBRANCH  16  25
ENDBRANCH   1  20
TORSDOF 4
ENDMDL
MODEL 2
REMARK VINA RESULT:    -7.523      3.098      3.767
REMARK INTER + INTRA:          -9.859
REMARK INTER:                  -9.140
REMARK INTRA:                  -0.719
REMARK UNBOUND:                -0.576
REMARK  Name = 
REMARK  6 active torsions:
REMARK  status: ('A' for Active; 'I' for Inactive)
REMARK    1  A    between atoms: C_1  and  C_2
REMARK    2  A    between atoms: C_4  and  C_5
REMARK    3  A    between atoms: C_9  and  C_10
REMARK    4  A    between atoms: C_10  and  N_11
REMARK    5  A    between atoms: C_15  and  C_16
REMARK    6  A    between atoms: C_19  and  C_20
REMARK                            x       y       z     vdW  Elec       q    Type
REMARK                         _______ _______ _______ _____ _____    ______ ____
ROOT
ATOM      1  C   UNL     1      45.363   7.000  12.484  0.00  0.00    +0.000 C 
ENDROOT
BRANCH   1   2
ATOM      2  N   UNL     1      46.198   6.531  13.581  0.00  0.00    +0.000 N 
ATOM      3  C   UNL     1      47.502   7.063  13.528  0.00  0.00    +0.000 A 
ATOM      4  C   UNL     1      48.418   6.704  14.505  0.00  0.00    +0.000 A 
ATOM      5  C   UNL     1      49.699   7.261  14.479  0.00  0.00    +0.000 A 
ATOM      6  C   UNL     1      50.056   8.166  13.471  0.00  0.00    +0.000 A 
ATOM      7  C   UNL     1      49.085   8.483  12.522  0.00  0.00    +0.000 A 
ATOM      8  C   UNL     1      49.277   9.423  11.369  0.00  0.00    +0.000 C 
ATOM      9  N   UNL     1      47.834   7.938  12.560  0.00  0.00    +0.000 NA
ATOM     10  H   UNL     1      46.242   5.520  13.620  0.00  0.00    +0.000 HD
BRANCH   6  11
ATOM     11  C   UNL     1      51.411   8.779  13.474  0.00  0.00    +0.000 C 
ATOM     12  N   UNL     1      52.433   8.034  12.947  0.00  0.00    +0.000 N 
ATOM     13  O   UNL     1      51.632   9.897  13.917  0.00  0.00    +0.000 OA
ATOM     14  H   UNL     1      52.303   7.163  12.454  0.00  0.00    +0.000 HD
ATOM     15  H   UNL     1      53.341   8.478  12.899  0.00  0.00    +0.000 HD
ENDBRANCH   6  11
ENDBRANCH   1   2
BRANCH   1  20
ATOM     16  C   UNL     1      44.848   4.098  10.022  0.00  0.00    +0.000 A 
ATOM     17  C   UNL     1      43.658   3.557  10.543  0.00  0.00    +0.000 A 
ATOM     18  C   UNL     1      42.993   4.152  11.621  0.00  0.00    +0.000 A 
ATOM     19  C   UNL     1      43.520   5.288  12.228  0.00  0.00    +0.000 A 
ATOM     20  C   UNL     1      44.719   5.837  11.764  0.00  0.00    +0.000 A 
ATOM     21  C   UNL     1      45.348   5.259  10.646  0.00  0.00    +0.000 A 
BRANCH  16  25
ATOM     22  C   UNL     1      46.689   0.030   7.678  0.00  0.00    +0.000 C 
ATOM     23  C   UNL     1      46.440   1.506   7.743  0.00  0.00    +0.000 A 
ATOM     24  C   UNL     1      45.755   2.071   8.817  0.00  0.00    +0.000 A 
ATOM     25  C   UNL     1      45.558   3.462   8.883  0.00  0.00    +0.000 A 
ATOM     26  C   UNL     1      46.065   4.217   7.816  0.00  0.00    +0.000 A 
ATOM     27  C   UNL     1      46.718   3.576   6.775  0.00  0.00    +0.000 A 
ATOM     28  N   UNL     1      46.920   2.245   6.717  0.00  0.00    +0.000 NA
ENDBRANCH  16  25
ENDBRANCH   1  20
TORSDOF 4
ENDMDL
MODEL 3
REMARK VINA RESULT:    -7.307      4.402      8.151
REMARK INTER + INTRA:          -9.592
REMARK INTER:                  -9.522
REMARK INTRA:                  -0.070
REMARK UNBOUND:                -0.576
REMARK  Name = 
REMARK  6 active torsions:
REMARK  status: ('A' for Active; 'I' for Inactive)
REMARK    1  A    between atoms: C_1  and  C_2
REMARK    2  A    between atoms: C_4  and  C_5
REMARK    3  A    between atoms: C_9  and  C_10
REMARK    4  A    between atoms: C_10  and  N_11
REMARK    5  A    between atoms: C_15  and  C_16
REMARK    6  A    between atoms: C_19  and  C_20
REMARK                            x       y       z     vdW  Elec       q    Type
REMARK                         _______ _______ _______ _____ _____    ______ ____
ROOT
ATOM      1  C   UNL     1      43.667   4.185  11.172  0.00  0.00    +0.000 C 
ENDROOT
BRANCH   1   2
ATOM      2  N   UNL     1      43.807   2.800  10.742  0.00  0.00    +0.000 N 
ATOM      3  C   UNL     1      44.679   2.665   9.643  0.00  0.00    +0.000 A 
ATOM      4  C   UNL     1      44.910   1.404   9.116  0.00  0.00    +0.000 A 
ATOM      5  C   UNL     1      45.805   1.261   8.052  0.00  0.00    +0.000 A 
ATOM      6  C   UNL     1      46.455   2.383   7.520  0.00  0.00    +0.000 A 
ATOM      7  C   UNL     1      46.175   3.620   8.100  0.00  0.00    +0.000 A 
ATOM      8  C   UNL     1      46.765   4.930   7.669  0.00  0.00    +0.000 C 
ATOM      9  N   UNL     1      45.304   3.747   9.143  0.00  0.00    +0.000 NA
ATOM     10  H   UNL     1      42.913   2.377  10.525  0.00  0.00    +0.000 HD
BRANCH   6  11
ATOM     11  C   UNL     1      47.431   2.214   6.411  0.00  0.00    +0.000 C 
ATOM     12  N   UNL     1      47.210   2.939   5.270  0.00  0.00    +0.000 N 
ATOM     13  O   UNL     1      48.399   1.471   6.488  0.00  0.00    +0.000 OA
ATOM     14  H   UNL     1      46.508   3.659   5.184  0.00  0.00    +0.000 HD
ATOM     15  H   UNL     1      47.908   2.863   4.541  0.00  0.00    +0.000 HD
ENDBRANCH   6  11
ENDBRANCH   1   2
BRANCH   1  20
ATOM     16  C   UNL     1      46.529   6.425  12.414  0.00  0.00    +0.000 A 
ATOM     17  C   UNL     1      47.050   5.598  13.426  0.00  0.00    +0.000 A 
ATOM     18  C   UNL     1      46.541   4.316  13.662  0.00  0.00    +0.000 A 
ATOM     19  C   UNL     1      45.471   3.840  12.910  0.00  0.00    +0.000 A 
ATOM     20  C   UNL     1      44.899   4.642  11.918  0.00  0.00    +0.000 A 
ATOM     21  C   UNL     1      45.458   5.907  11.657  0.00  0.00    +0.000 A 
BRANCH  16  25
ATOM     22  C   UNL     1      50.342   9.546  11.344  0.00  0.00    +0.000 C 
ATOM     23  C   UNL     1      48.896   9.297  11.645  0.00  0.00    +0.000 A 
ATOM     24  C   UNL     1      48.419   8.004  11.853  0.00  0.00    +0.000 A 
ATOM     25  C   UNL     1      47.066   7.787  12.168  0.00  0.00    +0.000 A 
ATOM     26  C   UNL     1      46.249   8.925  12.237  0.00  0.00    +0.000 A 
ATOM     27  C   UNL     1      46.797  10.175  11.997  0.00  0.00    +0.000 A 
ATOM     28  N   UNL     1      48.096  10.385  11.709  0.00  0.00    +0.000 NA
ENDBRANCH  16  25
ENDBRANCH   1  20
TORSDOF 4
ENDMDL
MODEL 4
REMARK VINA RESULT:    -7.039      2.108      3.431
REMARK INTER + INTRA:          -9.261
REMARK INTER:                  -8.623
REMARK INTRA:                  -0.638
REMARK UNBOUND:                -0.576
REMARK  Name = 
REMARK  6 active torsions:
REMARK  status: ('A' for Active; 'I' for Inactive)
REMARK    1  A    between atoms: C_1  and  C_2
REMARK    2  A    between atoms: C_4  and  C_5
REMARK    3  A    between atoms: C_9  and  C_10
REMARK    4  A    between atoms: C_10  and  N_11
REMARK    5  A    between atoms: C_15  and  C_16
REMARK    6  A    between atoms: C_19  and  C_20
REMARK                            x       y       z     vdW  Elec       q    Type
REMARK                         _______ _______ _______ _____ _____    ______ ____
ROOT
ATOM      1  C   UNL     1      48.626   7.040  14.317  0.00  0.00    +0.000 C 
ENDROOT
BRANCH   1   2
ATOM      2  N   UNL     1      48.498   7.810  15.548  0.00  0.00    +0.000 N 
ATOM      3  C   UNL     1      48.737   7.030  16.696  0.00  0.00    +0.000 A 
ATOM      4  C   UNL     1      48.648   7.623  17.946  0.00  0.00    +0.000 A 
ATOM      5  C   UNL     1      48.924   6.863  19.085  0.00  0.00    +0.000 A 
ATOM      6  C   UNL     1      49.280   5.513  18.964  0.00  0.00    +0.000 A 
ATOM      7  C   UNL     1      49.352   4.982  17.677  0.00  0.00    +0.000 A 
ATOM      8  C   UNL     1      49.710   3.564  17.345  0.00  0.00    +0.000 C 
ATOM      9  N   UNL     1      49.086   5.736  16.570  0.00  0.00    +0.000 NA
ATOM     10  H   UNL     1      47.595   8.261  15.621  0.00  0.00    +0.000 HD
BRANCH   6  11
ATOM     11  C   UNL     1      49.605   4.723  20.182  0.00  0.00    +0.000 C 
ATOM     12  N   UNL     1      48.606   3.947  20.707  0.00  0.00    +0.000 N 
ATOM     13  O   UNL     1      50.708   4.743  20.709  0.00  0.00    +0.000 OA
ATOM     14  H   UNL     1      47.717   3.787  20.256  0.00  0.00    +0.000 HD
ATOM     15  H   UNL     1      48.849   3.369  21.501  0.00  0.00    +0.000 HD
ENDBRANCH   6  11
ENDBRANCH   1   2
BRANCH   1  20
ATOM     16  C   UNL     1      45.693   6.296  11.952  0.00  0.00    +0.000 A 
ATOM     17  C   UNL     1      45.081   7.563  11.933  0.00  0.00    +0.000 A 
ATOM     18  C   UNL     1      45.635   8.656  12.608  0.00  0.00    +0.000 A 
ATOM     19  C   UNL     1      46.802   8.501  13.351  0.00  0.00    +0.000 A 
ATOM     20  C   UNL     1      47.424   7.251  13.426  0.00  0.00    +0.000 A 
ATOM     21  C   UNL     1      46.885   6.175  12.697  0.00  0.00    +0.000 A 
BRANCH  16  25
ATOM     22  C   UNL     1      45.067   3.512   7.795  0.00  0.00    +0.000 C 
ATOM     23  C   UNL     1      44.801   3.783   9.245  0.00  0.00    +0.000 A 
ATOM     24  C   UNL     1      45.386   4.872   9.889  0.00  0.00    +0.000 A 
ATOM     25  C   UNL     1      45.101   5.135  11.241  0.00  0.00    +0.000 A 
ATOM     26  C   UNL     1      44.231   4.243  11.882  0.00  0.00    +0.000 A 
ATOM     27  C   UNL     1      43.706   3.172  11.175  0.00  0.00    +0.000 A 
ATOM     28  N   UNL     1      43.967   2.927   9.876  0.00  0.00    +0.000 NA
ENDBRANCH  16  25
ENDBRANCH   1  20
TORSDOF 4
ENDMDL
MODEL 5
REMARK VINA RESULT:    -7.016      2.446      3.985
REMARK INTER + INTRA:          -9.233
REMARK INTER:                  -8.526
REMARK INTRA:                  -0.706
REMARK UNBOUND:                -0.576
REMARK  Name = 
REMARK  6 active torsions:
REMARK  status: ('A' for Active; 'I' for Inactive)
REMARK    1  A    between atoms: C_1  and  C_2
REMARK    2  A    between atoms: C_4  and  C_5
REMARK    3  A    between atoms: C_9  and  C_10
REMARK    4  A    between atoms: C_10  and  N_11
REMARK    5  A    between atoms: C_15  and  C_16
REMARK    6  A    between atoms: C_19  and  C_20
REMARK                            x       y       z     vdW  Elec       q    Type
REMARK                         _______ _______ _______ _____ _____    ______ ____
ROOT
ATOM      1  C   UNL     1      47.945   4.757  16.688  0.00  0.00    +0.000 C 
ENDROOT
BRANCH   1   2
ATOM      2  N   UNL     1      48.267   3.336  16.654  0.00  0.00    +0.000 N 
ATOM      3  C   UNL     1      49.603   3.080  17.023  0.00  0.00    +0.000 A 
ATOM      4  C   UNL     1      50.061   1.771  17.034  0.00  0.00    +0.000 A 
ATOM      5  C   UNL     1      51.372   1.509  17.439  0.00  0.00    +0.000 A 
ATOM      6  C   UNL     1      52.216   2.559  17.823  0.00  0.00    +0.000 A 
ATOM      7  C   UNL     1      51.689   3.850  17.788  0.00  0.00    +0.000 A 
ATOM      8  C   UNL     1      52.435   5.098  18.156  0.00  0.00    +0.000 C 
ATOM      9  N   UNL     1      50.404   4.094  17.398  0.00  0.00    +0.000 NA
ATOM     10  H   UNL     1      48.077   2.926  15.748  0.00  0.00    +0.000 HD
BRANCH   6  11
ATOM     11  C   UNL     1      53.598   2.265  18.285  0.00  0.00    +0.000 C 
ATOM     12  N   UNL     1      54.602   2.373  17.359  0.00  0.00    +0.000 N 
ATOM     13  O   UNL     1      53.858   1.941  19.435  0.00  0.00    +0.000 OA
ATOM     14  H   UNL     1      54.479   2.753  16.432  0.00  0.00    +0.000 HD
ATOM     15  H   UNL     1      55.547   2.227  17.693  0.00  0.00    +0.000 HD
ENDBRANCH   6  11
ENDBRANCH   1   2
BRANCH   1  20
ATOM     16  C   UNL     1      46.432   5.164  13.181  0.00  0.00    +0.000 A 
ATOM     17  C   UNL     1      47.069   6.355  12.789  0.00  0.00    +0.000 A 
ATOM     18  C   UNL     1      48.020   6.982  13.602  0.00  0.00    +0.000 A 
ATOM     19  C   UNL     1      48.334   6.448  14.849  0.00  0.00    +0.000 A 
ATOM     20  C   UNL     1      47.699   5.285  15.293  0.00  0.00    +0.000 A 
ATOM     21  C   UNL     1      46.785   4.637  14.441  0.00  0.00    +0.000 A 
BRANCH  16  25
ATOM     22  C   UNL     1      44.555   4.027   8.642  0.00  0.00    +0.000 C 
ATOM     23  C   UNL     1      44.512   3.943  10.137  0.00  0.00    +0.000 A 
ATOM     24  C   UNL     1      45.489   4.559  10.918  0.00  0.00    +0.000 A 
ATOM     25  C   UNL     1      45.418   4.503  12.321  0.00  0.00    +0.000 A 
ATOM     26  C   UNL     1      44.342   3.789  12.865  0.00  0.00    +0.000 A 
ATOM     27  C   UNL     1      43.422   3.188  12.019  0.00  0.00    +0.000 A 
ATOM     28  N   UNL     1      43.481   3.253  10.674  0.00  0.00    +0.000 NA
ENDBRANCH  16  25
ENDBRANCH   1  20
TORSDOF 4
ENDMDL
MODEL 6
REMARK VINA RESULT:    -6.924      2.142      3.108
REMARK INTER + INTRA:          -9.119
REMARK INTER:                  -8.528
REMARK INTRA:                  -0.591
REMARK UNBOUND:                -0.576
REMARK  Name = 
REMARK  6 active torsions:
REMARK  status: ('A' for Active; 'I' for Inactive)
REMARK    1  A    between atoms: C_1  and  C_2
REMARK    2  A    between atoms: C_4  and  C_5
REMARK    3  A    between atoms: C_9  and  C_10
REMARK    4  A    between atoms: C_10  and  N_11
REMARK    5  A    between atoms: C_15  and  C_16
REMARK    6  A    between atoms: C_19  and  C_20
REMARK                            x       y       z     vdW  Elec       q    Type
REMARK                         _______ _______ _______ _____ _____    ______ ____
ROOT
ATOM      1  C   UNL     1      48.341   6.971  14.586  0.00  0.00    +0.000 C 
ENDROOT
BRANCH   1   2
ATOM      2  N   UNL     1      47.829   6.062  15.604  0.00  0.00    +0.000 N 
ATOM      3  C   UNL     1      48.848   5.572  16.446  0.00  0.00    +0.000 A 
ATOM      4  C   UNL     1      48.517   4.691  17.463  0.00  0.00    +0.000 A 
ATOM      5  C   UNL     1      49.517   4.234  18.325  0.00  0.00    +0.000 A 
ATOM      6  C   UNL     1      50.842   4.658  18.157  0.00  0.00    +0.000 A 
ATOM      7  C   UNL     1      51.103   5.546  17.114  0.00  0.00    +0.000 A 
ATOM      8  C   UNL     1      52.452   6.107  16.773  0.00  0.00    +0.000 C 
ATOM      9  N   UNL     1      50.117   5.991  16.282  0.00  0.00    +0.000 NA
ATOM     10  H   UNL     1      47.317   5.288  15.199  0.00  0.00    +0.000 HD
BRANCH   6  11
ATOM     11  C   UNL     1      51.892   4.193  19.101  0.00  0.00    +0.000 C 
ATOM     12  N   UNL     1      52.475   2.981  18.839  0.00  0.00    +0.000 N 
ATOM     13  O   UNL     1      52.242   4.843  20.076  0.00  0.00    +0.000 OA
ATOM     14  H   UNL     1      52.325   2.453  17.992  0.00  0.00    +0.000 HD
ATOM     15  H   UNL     1      53.228   2.696  19.452  0.00  0.00    +0.000 HD
ENDBRANCH   6  11
ENDBRANCH   1   2
BRANCH   1  20
ATOM     16  C   UNL     1      45.707   6.336  11.863  0.00  0.00    +0.000 A 
ATOM     17  C   UNL     1      45.218   7.645  11.701  0.00  0.00    +0.000 A 
ATOM     18  C   UNL     1      45.769   8.726  12.399  0.00  0.00    +0.000 A 
ATOM     19  C   UNL     1      46.804   8.518  13.306  0.00  0.00    +0.000 A 
ATOM     20  C   UNL     1      47.296   7.228  13.524  0.00  0.00    +0.000 A 
ATOM     21  C   UNL     1      46.769   6.160  12.774  0.00  0.00    +0.000 A 
BRANCH  16  25
ATOM     22  C   UNL     1      45.215   3.545   7.692  0.00  0.00    +0.000 C 
ATOM     23  C   UNL     1      44.882   3.833   9.124  0.00  0.00    +0.000 A 
ATOM     24  C   UNL     1      45.465   4.908   9.794  0.00  0.00    +0.000 A 
ATOM     25  C   UNL     1      45.118   5.188  11.127  0.00  0.00    +0.000 A 
ATOM     26  C   UNL     1      44.189   4.327  11.726  0.00  0.00    +0.000 A 
ATOM     27  C   UNL     1      43.670   3.268  10.997  0.00  0.00    +0.000 A 
ATOM     28  N   UNL     1      43.990   3.007   9.715  0.00  0.00    +0.000 NA
ENDBRANCH  16  25
ENDBRANCH   1  20
TORSDOF 4
ENDMDL
MODEL 7
REMARK VINA RESULT:    -6.664      5.349      7.676
REMARK INTER + INTRA:          -8.799
REMARK INTER:                  -8.029
REMARK INTRA:                  -0.770
REMARK UNBOUND:                -0.576
REMARK  Name = 
REMARK  6 active torsions:
REMARK  status: ('A' for Active; 'I' for Inactive)
REMARK    1  A    between atoms: C_1  and  C_2
REMARK    2  A    between atoms: C_4  and  C_5
REMARK    3  A    between atoms: C_9  and  C_10
REMARK    4  A    between atoms: C_10  and  N_11
REMARK    5  A    between atoms: C_15  and  C_16
REMARK    6  A    between atoms: C_19  and  C_20
REMARK                            x       y       z     vdW  Elec       q    Type
REMARK                         _______ _______ _______ _____ _____    ______ ____
ROOT
ATOM      1  C   UNL     1      46.510   8.179  13.255  0.00  0.00    +0.000 C 
ENDROOT
BRANCH   1   2
ATOM      2  N   UNL     1      47.001   6.851  13.598  0.00  0.00    +0.000 N 
ATOM      3  C   UNL     1      46.216   5.826  13.033  0.00  0.00    +0.000 A 
ATOM      4  C   UNL     1      46.557   4.504  13.274  0.00  0.00    +0.000 A 
ATOM      5  C   UNL     1      45.805   3.486  12.682  0.00  0.00    +0.000 A 
ATOM      6  C   UNL     1      44.715   3.799  11.860  0.00  0.00    +0.000 A 
ATOM      7  C   UNL     1      44.430   5.149  11.660  0.00  0.00    +0.000 A 
ATOM      8  C   UNL     1      43.306   5.681  10.821  0.00  0.00    +0.000 C 
ATOM      9  N   UNL     1      45.175   6.136  12.238  0.00  0.00    +0.000 NA
ATOM     10  H   UNL     1      47.069   6.718  14.599  0.00  0.00    +0.000 HD
BRANCH   6  11
ATOM     11  C   UNL     1      43.944   2.707  11.208  0.00  0.00    +0.000 C 
ATOM     12  N   UNL     1      44.431   2.221  10.024  0.00  0.00    +0.000 N 
ATOM     13  O   UNL     1      42.920   2.242  11.687  0.00  0.00    +0.000 OA
ATOM     14  H   UNL     1      45.330   2.468   9.637  0.00  0.00    +0.000 HD
ATOM     15  H   UNL     1      43.934   1.440   9.614  0.00  0.00    +0.000 HD
ENDBRANCH   6  11
ENDBRANCH   1   2
BRANCH   1  20
ATOM     16  C   UNL     1      49.882   9.128  11.680  0.00  0.00    +0.000 A 
ATOM     17  C   UNL     1      49.527  10.354  11.089  0.00  0.00    +0.000 A 
ATOM     18  C   UNL     1      48.251  10.905  11.251  0.00  0.00    +0.000 A 
ATOM     19  C   UNL     1      47.283  10.223  11.981  0.00  0.00    +0.000 A 
ATOM     20  C   UNL     1      47.582   8.984  12.555  0.00  0.00    +0.000 A 
ATOM     21  C   UNL     1      48.886   8.470  12.430  0.00  0.00    +0.000 A 
BRANCH  16  25
ATOM     22  C   UNL     1      53.143   6.224   9.157  0.00  0.00    +0.000 C 
ATOM     23  C   UNL     1      52.814   7.151  10.288  0.00  0.00    +0.000 A 
ATOM     24  C   UNL     1      51.540   7.700  10.418  0.00  0.00    +0.000 A 
ATOM     25  C   UNL     1      51.235   8.541  11.502  0.00  0.00    +0.000 A 
ATOM     26  C   UNL     1      52.274   8.798  12.406  0.00  0.00    +0.000 A 
ATOM     27  C   UNL     1      53.520   8.228  12.195  0.00  0.00    +0.000 A 
ATOM     28  N   UNL     1      53.810   7.411  11.164  0.00  0.00    +0.000 NA
ENDBRANCH  16  25
ENDBRANCH   1  20
TORSDOF 4
ENDMDL
MODEL 8
REMARK VINA RESULT:    -6.353      2.872      3.747
REMARK INTER + INTRA:          -8.415
REMARK INTER:                  -7.680
REMARK INTRA:                  -0.735
REMARK UNBOUND:                -0.576
REMARK  Name = 
REMARK  6 active torsions:
REMARK  status: ('A' for Active; 'I' for Inactive)
REMARK    1  A    between atoms: C_1  and  C_2
REMARK    2  A    between atoms: C_4  and  C_5
REMARK    3  A    between atoms: C_9  and  C_10
REMARK    4  A    between atoms: C_10  and  N_11
REMARK    5  A    between atoms: C_15  and  C_16
REMARK    6  A    between atoms: C_19  and  C_20
REMARK                            x       y       z     vdW  Elec       q    Type
REMARK                         _______ _______ _______ _____ _____    ______ ____
ROOT
ATOM      1  C   UNL     1      48.769   8.206  13.067  0.00  0.00    +0.000 C 
ENDROOT
BRANCH   1   2
ATOM      2  N   UNL     1      49.076   7.016  13.852  0.00  0.00    +0.000 N 
ATOM      3  C   UNL     1      48.983   7.250  15.238  0.00  0.00    +0.000 A 
ATOM      4  C   UNL     1      49.252   6.212  16.117  0.00  0.00    +0.000 A 
ATOM      5  C   UNL     1      49.122   6.428  17.491  0.00  0.00    +0.000 A 
ATOM      6  C   UNL     1      48.731   7.683  17.975  0.00  0.00    +0.000 A 
ATOM      7  C   UNL     1      48.476   8.681  17.034  0.00  0.00    +0.000 A 
ATOM      8  C   UNL     1      48.053  10.084  17.356  0.00  0.00    +0.000 C 
ATOM      9  N   UNL     1      48.599   8.457  15.694  0.00  0.00    +0.000 NA
ATOM     10  H   UNL     1      49.988   6.639  13.628  0.00  0.00    +0.000 HD
BRANCH   6  11
ATOM     11  C   UNL     1      48.562   7.892  19.437  0.00  0.00    +0.000 C 
ATOM     12  N   UNL     1      49.689   8.180  20.161  0.00  0.00    +0.000 N 
ATOM     13  O   UNL     1      47.477   7.819  19.996  0.00  0.00    +0.000 OA
ATOM     14  H   UNL     1      50.590   8.377  19.750  0.00  0.00    +0.000 HD
ATOM     15  H   UNL     1      49.560   8.377  21.145  0.00  0.00    +0.000 HD
ENDBRANCH   6  11
ENDBRANCH   1   2
BRANCH   1  20
ATOM     16  C   UNL     1      45.697   6.684  11.335  0.00  0.00    +0.000 A 
ATOM     17  C   UNL     1      44.815   7.778  11.420  0.00  0.00    +0.000 A 
ATOM     18  C   UNL     1      45.218   9.005  11.959  0.00  0.00    +0.000 A 
ATOM     19  C   UNL     1      46.508   9.160  12.459  0.00  0.00    +0.000 A 
ATOM     20  C   UNL     1      47.405   8.088  12.427  0.00  0.00    +0.000 A 
ATOM     21  C   UNL     1      47.002   6.878  11.832  0.00  0.00    +0.000 A 
BRANCH  16  25
ATOM     22  C   UNL     1      45.412   3.402   7.518  0.00  0.00    +0.000 C 
ATOM     23  C   UNL     1      45.133   3.790   8.938  0.00  0.00    +0.000 A 
ATOM     24  C   UNL     1      45.565   5.014   9.446  0.00  0.00    +0.000 A 
ATOM     25  C   UNL     1      45.267   5.380  10.770  0.00  0.00    +0.000 A 
ATOM     26  C   UNL     1      44.545   4.450  11.529  0.00  0.00    +0.000 A 
ATOM     27  C   UNL     1      44.168   3.245  10.956  0.00  0.00    +0.000 A 
ATOM     28  N   UNL     1      44.441   2.898   9.683  0.00  0.00    +0.000 NA
ENDBRANCH  16  25
ENDBRANCH   1  20
TORSDOF 4
ENDMDL
MODEL 9
REMARK VINA RESULT:    -6.202      3.817      8.335
REMARK INTER + INTRA:          -8.229
REMARK INTER:                  -8.023
REMARK INTRA:                  -0.206
REMARK UNBOUND:                -0.576
REMARK  Name = 
REMARK  6 active torsions:
REMARK  status: ('A' for Active; 'I' for Inactive)
REMARK    1  A    between atoms: C_1  and  C_2
REMARK    2  A    between atoms: C_4  and  C_5
REMARK    3  A    between atoms: C_9  and  C_10
REMARK    4  A    between atoms: C_10  and  N_11
REMARK    5  A    between atoms: C_15  and  C_16
REMARK    6  A    between atoms: C_19  and  C_20
REMARK                            x       y       z     vdW  Elec       q    Type
REMARK                         _______ _______ _______ _____ _____    ______ ____
ROOT
ATOM      1  C   UNL     1      46.122   8.806  12.159  0.00  0.00    +0.000 C 
ENDROOT
BRANCH   1   2
ATOM      2  N   UNL     1      45.313   7.959  13.024  0.00  0.00    +0.000 N 
ATOM      3  C   UNL     1      44.967   6.739  12.410  0.00  0.00    +0.000 A 
ATOM      4  C   UNL     1      44.192   5.827  13.109  0.00  0.00    +0.000 A 
ATOM      5  C   UNL     1      43.881   4.599  12.519  0.00  0.00    +0.000 A 
ATOM      6  C   UNL     1      44.342   4.298  11.231  0.00  0.00    +0.000 A 
ATOM      7  C   UNL     1      45.117   5.261  10.586  0.00  0.00    +0.000 A 
ATOM      8  C   UNL     1      45.696   5.126   9.209  0.00  0.00    +0.000 C 
ATOM      9  N   UNL     1      45.421   6.455  11.175  0.00  0.00    +0.000 NA
ATOM     10  H   UNL     1      44.476   8.432  13.343  0.00  0.00    +0.000 HD
BRANCH   6  11
ATOM     11  C   UNL     1      44.034   2.975  10.626  0.00  0.00    +0.000 C 
ATOM     12  N   UNL     1      43.411   2.054  11.426  0.00  0.00    +0.000 N 
ATOM     13  O   UNL     1      44.309   2.694   9.469  0.00  0.00    +0.000 OA
ATOM     14  H   UNL     1      43.044   2.257  12.345  0.00  0.00    +0.000 HD
ATOM     15  H   UNL     1      43.152   1.176  10.993  0.00  0.00    +0.000 HD
ENDBRANCH   6  11
ENDBRANCH   1   2
BRANCH   1  20
ATOM     16  C   UNL     1      49.324   7.852  14.053  0.00  0.00    +0.000 A 
ATOM     17  C   UNL     1      50.282   8.413  13.190  0.00  0.00    +0.000 A 
ATOM     18  C   UNL     1      49.910   9.146  12.057  0.00  0.00    +0.000 A 
ATOM     19  C   UNL     1      48.565   9.307  11.740  0.00  0.00    +0.000 A 
ATOM     20  C   UNL     1      47.580   8.736  12.551  0.00  0.00    +0.000 A 
ATOM     21  C   UNL     1      47.969   8.049  13.716  0.00  0.00    +0.000 A 
BRANCH  16  25
ATOM     22  C   UNL     1      48.196   4.813  17.916  0.00  0.00    +0.000 C 
ATOM     23  C   UNL     1      49.186   5.597  17.109  0.00  0.00    +0.000 A 
ATOM     24  C   UNL     1      48.787   6.309  15.979  0.00  0.00    +0.000 A 
ATOM     25  C   UNL     1      49.719   7.068  15.251  0.00  0.00    +0.000 A 
ATOM     26  C   UNL     1      51.042   7.045  15.714  0.00  0.00    +0.000 A 
ATOM     27  C   UNL     1      51.362   6.296  16.836  0.00  0.00    +0.000 A 
ATOM     28  N   UNL     1      50.466   5.580  17.542  0.00  0.00    +0.000 NA
ENDBRANCH  16  25
ENDBRANCH   1  20
TORSDOF 4
ENDMDL
