MODEL 1
REMARK VINA RESULT:    -9.345      0.000      0.000
REMARK INTER + INTRA:         -12.467
REMARK INTER:                 -11.530
REMARK INTRA:                  -0.937
REMARK UNBOUND:                -0.937
REMARK  Name = 
REMARK  4 active torsions:
REMARK  status: ('A' for Active; 'I' for Inactive)
REMARK    1  A    between atoms: C_2  and  C_4
REMARK    2  A    between atoms: N_8  and  C_9
REMARK    3  A    between atoms: C_9  and  C_10
REMARK    4  A    between atoms: C_14  and  C_15
REMARK                            x       y       z     vdW  Elec       q    Type
REMARK                         _______ _______ _______ _____ _____    ______ ____
ROOT
ATOM      1  C   UNL     1      43.968   4.896  11.434  0.00  0.00    +0.000 C 
ATOM      2  C   UNL     1      42.655   5.085  12.193  0.00  0.00    +0.000 C 
ATOM      3  C   UNL     1      43.046   6.067  11.143  0.00  0.00    +0.000 C 
ENDROOT
BRANCH   1   8
ATOM      4  C   UNL     1      46.603   2.768   7.468  0.00  0.00    +0.000 A 
ATOM      5  C   UNL     1      46.322   4.108   7.711  0.00  0.00    +0.000 A 
ATOM      6  C   UNL     1      45.487   4.449   8.779  0.00  0.00    +0.000 A 
ATOM      7  C   UNL     1      44.941   3.449   9.575  0.00  0.00    +0.000 A 
ATOM      8  N   UNL     1      44.027   3.691  10.600  0.00  0.00    +0.000 N 
ATOM      9  N   UNL     1      45.203   2.143   9.341  0.00  0.00    +0.000 NA
ATOM     10  C   UNL     1      46.016   1.828   8.300  0.00  0.00    +0.000 A 
ATOM     11  H   UNL     1      43.855   2.796  11.053  0.00  0.00    +0.000 HD
BRANCH   4  13
ATOM     12  N   UNL     1      47.347   2.974   5.164  0.00  0.00    +0.000 N 
ATOM     13  C   UNL     1      47.458   2.308   6.355  0.00  0.00    +0.000 C 
ATOM     14  O   UNL     1      48.255   1.393   6.495  0.00  0.00    +0.000 OA
ATOM     15  H   UNL     1      48.008   2.714   4.442  0.00  0.00    +0.000 HD
ATOM     16  H   UNL     1      46.890   3.869   5.076  0.00  0.00    +0.000 HD
ENDBRANCH   4  13
ENDBRANCH   1   8
BRANCH   1  17
ATOM     17  C   UNL     1      45.257   5.197  12.192  0.00  0.00    +0.000 A 
ATOM     18  C   UNL     1      45.712   4.376  13.228  0.00  0.00    +0.000 A 
ATOM     19  C   UNL     1      46.932   4.651  13.821  0.00  0.00    +0.000 A 
ATOM     20  N   UNL     1      47.726   5.682  13.468  0.00  0.00    +0.000 NA
ATOM     21  C   UNL     1      47.281   6.513  12.495  0.00  0.00    +0.000 A 
ATOM     22  C   UNL     1      46.061   6.298  11.856  0.00  0.00    +0.000 A 
BRANCH  21  23
ATOM     23  C   UNL     1      48.175   7.636  12.141  0.00  0.00    +0.000 A 
ATOM     24  C   UNL     1      47.700   8.963  12.146  0.00  0.00    +0.000 A 
ATOM     25  C   UNL     1      48.534  10.034  11.811  0.00  0.00    +0.000 A 
ATOM     26  C   UNL     1      49.854   9.790  11.462  0.00  0.00    +0.000 A 
ATOM     27  F   UNL     1      50.652  10.814  11.131  0.00  0.00    +0.000 F 
ATOM     28  C   UNL     1      50.357   8.497  11.446  0.00  0.00    +0.000 A 
ATOM     29  C   UNL     1      49.523   7.428  11.785  0.00  0.00    +0.000 A 
ENDBRANCH  21  23
ENDBRANCH   1  17
TORSDOF 4
ENDMDL
MODEL 2
REMARK VINA RESULT:    -9.042      2.585      3.982
REMARK INTER + INTRA:         -12.093
REMARK INTER:                 -11.445
REMARK INTRA:                  -0.648
REMARK UNBOUND:                -0.937
REMARK  Name = 
REMARK  4 active torsions:
REMARK  status: ('A' for Active; 'I' for Inactive)
REMARK    1  A    between atoms: C_2  and  C_4
REMARK    2  A    between atoms: N_8  and  C_9
REMARK    3  A    between atoms: C_9  and  C_10
REMARK    4  A    between atoms: C_14  and  C_15
REMARK                            x       y       z     vdW  Elec       q    Type
REMARK                         _______ _______ _______ _____ _____    ______ ____
ROOT
ATOM      1  C   UNL     1      43.965   4.905  11.491  0.00  0.00    +0.000 C 
ATOM      2  C   UNL     1      42.738   4.999  12.397  0.00  0.00    +0.000 C 
ATOM      3  C   UNL     1      42.888   5.950  11.261  0.00  0.00    +0.000 C 
ENDROOT
BRANCH   1   8
ATOM      4  C   UNL     1      46.497   2.762   7.466  0.00  0.00    +0.000 A 
ATOM      5  C   UNL     1      46.132   4.090   7.662  0.00  0.00    +0.000 A 
ATOM      6  C   UNL     1      45.344   4.427   8.765  0.00  0.00    +0.000 A 
ATOM      7  C   UNL     1      44.924   3.434   9.643  0.00  0.00    +0.000 A 
ATOM      8  N   UNL     1      44.061   3.665  10.714  0.00  0.00    +0.000 N 
ATOM      9  N   UNL     1      45.268   2.140   9.456  0.00  0.00    +0.000 NA
ATOM     10  C   UNL     1      46.035   1.828   8.379  0.00  0.00    +0.000 A 
ATOM     11  H   UNL     1      43.985   2.785  11.220  0.00  0.00    +0.000 HD
BRANCH   4  13
ATOM     12  N   UNL     1      47.145   2.963   5.133  0.00  0.00    +0.000 N 
ATOM     13  C   UNL     1      47.311   2.305   6.322  0.00  0.00    +0.000 C 
ATOM     14  O   UNL     1      48.125   1.401   6.435  0.00  0.00    +0.000 OA
ATOM     15  H   UNL     1      47.780   2.706   4.386  0.00  0.00    +0.000 HD
ATOM     16  H   UNL     1      46.674   3.852   5.058  0.00  0.00    +0.000 HD
ENDBRANCH   4  13
ENDBRANCH   1   8
BRANCH   1  17
ATOM     17  C   UNL     1      45.292   5.388  12.067  0.00  0.00    +0.000 A 
ATOM     18  C   UNL     1      46.025   6.417  11.469  0.00  0.00    +0.000 A 
ATOM     19  C   UNL     1      47.178   6.872  12.085  0.00  0.00    +0.000 A 
ATOM     20  N   UNL     1      47.659   6.375  13.243  0.00  0.00    +0.000 NA
ATOM     21  C   UNL     1      46.985   5.348  13.815  0.00  0.00    +0.000 A 
ATOM     22  C   UNL     1      45.818   4.839  13.248  0.00  0.00    +0.000 A 
BRANCH  21  23
ATOM     23  C   UNL     1      47.548   4.826  15.077  0.00  0.00    +0.000 A 
ATOM     24  C   UNL     1      47.403   3.467  15.422  0.00  0.00    +0.000 A 
ATOM     25  C   UNL     1      47.928   2.960  16.615  0.00  0.00    +0.000 A 
ATOM     26  C   UNL     1      48.601   3.809  17.481  0.00  0.00    +0.000 A 
ATOM     27  F   UNL     1      49.096   3.327  18.629  0.00  0.00    +0.000 F 
ATOM     28  C   UNL     1      48.763   5.152  17.175  0.00  0.00    +0.000 A 
ATOM     29  C   UNL     1      48.241   5.656  15.981  0.00  0.00    +0.000 A 
ENDBRANCH  21  23
ENDBRANCH   1  17
TORSDOF 4
ENDMDL
MODEL 3
REMARK VINA RESULT:    -7.379      3.487      6.731
REMARK INTER + INTRA:         -10.042
REMARK INTER:                  -9.308
REMARK INTRA:                  -0.734
REMARK UNBOUND:                -0.937
REMARK  Name = 
REMARK  4 active torsions:
REMARK  status: ('A' for Active; 'I' for Inactive)
REMARK    1  A    between atoms: C_2  and  C_4
REMARK    2  A    between atoms: N_8  and  C_9
REMARK    3  A    between atoms: C_9  and  C_10
REMARK    4  A    between atoms: C_14  and  C_15
REMARK                            x       y       z     vdW  Elec       q    Type
REMARK                         _______ _______ _______ _____ _____    ______ ____
ROOT
ATOM      1  C   UNL     1      43.790   5.424  11.712  0.00  0.00    +0.000 C 
ATOM      2  C   UNL     1      42.346   5.925  11.744  0.00  0.00    +0.000 C 
ATOM      3  C   UNL     1      42.973   5.407  12.992  0.00  0.00    +0.000 C 
ENDROOT
BRANCH   1   8
ATOM      4  C   UNL     1      48.555   7.050  13.072  0.00  0.00    +0.000 A 
ATOM      5  C   UNL     1      47.579   6.447  13.860  0.00  0.00    +0.000 A 
ATOM      6  C   UNL     1      46.316   6.202  13.315  0.00  0.00    +0.000 A 
ATOM      7  C   UNL     1      46.046   6.573  12.003  0.00  0.00    +0.000 A 
ATOM      8  N   UNL     1      44.789   6.453  11.409  0.00  0.00    +0.000 N 
ATOM      9  N   UNL     1      46.986   7.166  11.233  0.00  0.00    +0.000 NA
ATOM     10  C   UNL     1      48.209   7.397  11.777  0.00  0.00    +0.000 A 
ATOM     11  H   UNL     1      44.901   6.729  10.436  0.00  0.00    +0.000 HD
BRANCH   4  13
ATOM     12  N   UNL     1      50.838   7.756  12.634  0.00  0.00    +0.000 N 
ATOM     13  C   UNL     1      49.911   7.366  13.563  0.00  0.00    +0.000 C 
ATOM     14  O   UNL     1      50.191   7.313  14.751  0.00  0.00    +0.000 OA
ATOM     15  H   UNL     1      51.733   8.064  12.997  0.00  0.00    +0.000 HD
ATOM     16  H   UNL     1      50.592   8.041  11.699  0.00  0.00    +0.000 HD
ENDBRANCH   4  13
ENDBRANCH   1   8
BRANCH   1  17
ATOM     17  C   UNL     1      44.044   4.083  11.031  0.00  0.00    +0.000 A 
ATOM     18  C   UNL     1      43.412   2.910  11.453  0.00  0.00    +0.000 A 
ATOM     19  C   UNL     1      43.615   1.740  10.742  0.00  0.00    +0.000 A 
ATOM     20  N   UNL     1      44.403   1.648   9.652  0.00  0.00    +0.000 NA
ATOM     21  C   UNL     1      45.057   2.765   9.253  0.00  0.00    +0.000 A 
ATOM     22  C   UNL     1      44.901   3.978   9.923  0.00  0.00    +0.000 A 
BRANCH  21  23
ATOM     23  C   UNL     1      45.916   2.623   8.060  0.00  0.00    +0.000 A 
ATOM     24  C   UNL     1      46.020   3.667   7.119  0.00  0.00    +0.000 A 
ATOM     25  C   UNL     1      46.828   3.545   5.983  0.00  0.00    +0.000 A 
ATOM     26  C   UNL     1      47.538   2.373   5.773  0.00  0.00    +0.000 A 
ATOM     27  F   UNL     1      48.305   2.250   4.681  0.00  0.00    +0.000 F 
ATOM     28  C   UNL     1      47.462   1.324   6.678  0.00  0.00    +0.000 A 
ATOM     29  C   UNL     1      46.657   1.449   7.813  0.00  0.00    +0.000 A 
ENDBRANCH  21  23
ENDBRANCH   1  17
TORSDOF 4
ENDMDL
MODEL 4
REMARK VINA RESULT:    -6.900      4.659      8.480
REMARK INTER + INTRA:          -9.451
REMARK INTER:                  -8.554
REMARK INTRA:                  -0.897
REMARK UNBOUND:                -0.937
REMARK  Name = 
REMARK  4 active torsions:
REMARK  status: ('A' for Active; 'I' for Inactive)
REMARK    1  A    between atoms: C_2  and  C_4
REMARK    2  A    between atoms: N_8  and  C_9
REMARK    3  A    between atoms: C_9  and  C_10
REMARK    4  A    between atoms: C_14  and  C_15
REMARK                            x       y       z     vdW  Elec       q    Type
REMARK                         _______ _______ _______ _____ _____    ______ ____
ROOT
ATOM      1  C   UNL     1      49.003   8.089  12.920  0.00  0.00    +0.000 C 
ATOM      2  C   UNL     1      49.984   8.438  11.802  0.00  0.00    +0.000 C 
ATOM      3  C   UNL     1      49.549   9.496  12.755  0.00  0.00    +0.000 C 
ENDROOT
BRANCH   1   8
ATOM      4  C   UNL     1      48.562   6.750  17.941  0.00  0.00    +0.000 A 
ATOM      5  C   UNL     1      48.443   8.007  17.359  0.00  0.00    +0.000 A 
ATOM      6  C   UNL     1      48.724   8.160  15.998  0.00  0.00    +0.000 A 
ATOM      7  C   UNL     1      49.127   7.060  15.249  0.00  0.00    +0.000 A 
ATOM      8  N   UNL     1      49.516   7.138  13.912  0.00  0.00    +0.000 N 
ATOM      9  N   UNL     1      49.251   5.836  15.809  0.00  0.00    +0.000 NA
ATOM     10  C   UNL     1      48.975   5.704  17.132  0.00  0.00    +0.000 A 
ATOM     11  H   UNL     1      49.688   6.184  13.604  0.00  0.00    +0.000 HD
BRANCH   4  13
ATOM     12  N   UNL     1      47.305   5.610  19.681  0.00  0.00    +0.000 N 
ATOM     13  C   UNL     1      48.305   6.492  19.373  0.00  0.00    +0.000 C 
ATOM     14  O   UNL     1      48.976   7.018  20.248  0.00  0.00    +0.000 OA
ATOM     15  H   UNL     1      47.208   5.368  20.660  0.00  0.00    +0.000 HD
ATOM     16  H   UNL     1      46.899   4.982  19.004  0.00  0.00    +0.000 HD
ENDBRANCH   4  13
ENDBRANCH   1   8
BRANCH   1  17
ATOM     17  C   UNL     1      47.550   7.855  12.520  0.00  0.00    +0.000 A 
ATOM     18  C   UNL     1      46.560   8.816  12.743  0.00  0.00    +0.000 A 
ATOM     19  C   UNL     1      45.276   8.584  12.280  0.00  0.00    +0.000 A 
ATOM     20  N   UNL     1      44.903   7.467  11.623  0.00  0.00    +0.000 NA
ATOM     21  C   UNL     1      45.839   6.505  11.436  0.00  0.00    +0.000 A 
ATOM     22  C   UNL     1      47.151   6.672  11.877  0.00  0.00    +0.000 A 
BRANCH  21  23
ATOM     23  C   UNL     1      45.390   5.294  10.720  0.00  0.00    +0.000 A 
ATOM     24  C   UNL     1      44.729   4.255  11.406  0.00  0.00    +0.000 A 
ATOM     25  C   UNL     1      44.302   3.101  10.741  0.00  0.00    +0.000 A 
ATOM     26  C   UNL     1      44.535   2.971   9.381  0.00  0.00    +0.000 A 
ATOM     27  F   UNL     1      44.135   1.862   8.743  0.00  0.00    +0.000 F 
ATOM     28  C   UNL     1      45.182   3.972   8.671  0.00  0.00    +0.000 A 
ATOM     29  C   UNL     1      45.606   5.126   9.337  0.00  0.00    +0.000 A 
ENDBRANCH  21  23
ENDBRANCH   1  17
TORSDOF 4
ENDMDL
MODEL 5
REMARK VINA RESULT:    -6.826      4.048      7.723
REMARK INTER + INTRA:          -9.358
REMARK INTER:                  -9.484
REMARK INTRA:                   0.125
REMARK UNBOUND:                -0.937
REMARK  Name = 
REMARK  4 active torsions:
REMARK  status: ('A' for Active; 'I' for Inactive)
REMARK    1  A    between atoms: C_2  and  C_4
REMARK    2  A    between atoms: N_8  and  C_9
REMARK    3  A    between atoms: C_9  and  C_10
REMARK    4  A    between atoms: C_14  and  C_15
REMARK                            x       y       z     vdW  Elec       q    Type
REMARK                         _______ _______ _______ _____ _____    ______ ____
ROOT
ATOM      1  C   UNL     1      48.523   7.975  12.903  0.00  0.00    +0.000 C 
ATOM      2  C   UNL     1      49.725   7.449  12.119  0.00  0.00    +0.000 C 
ATOM      3  C   UNL     1      49.436   8.910  12.129  0.00  0.00    +0.000 C 
ENDROOT
BRANCH   1   8
ATOM      4  C   UNL     1      47.925   4.368  16.622  0.00  0.00    +0.000 A 
ATOM      5  C   UNL     1      47.245   4.500  15.416  0.00  0.00    +0.000 A 
ATOM      6  C   UNL     1      47.482   5.622  14.617  0.00  0.00    +0.000 A 
ATOM      7  C   UNL     1      48.381   6.594  15.041  0.00  0.00    +0.000 A 
ATOM      8  N   UNL     1      48.607   7.787  14.355  0.00  0.00    +0.000 N 
ATOM      9  N   UNL     1      49.040   6.477  16.215  0.00  0.00    +0.000 NA
ATOM     10  C   UNL     1      48.799   5.381  16.980  0.00  0.00    +0.000 A 
ATOM     11  H   UNL     1      49.356   8.267  14.849  0.00  0.00    +0.000 HD
BRANCH   4  13
ATOM     12  N   UNL     1      48.790   2.870  18.329  0.00  0.00    +0.000 N 
ATOM     13  C   UNL     1      47.729   3.229  17.542  0.00  0.00    +0.000 C 
ATOM     14  O   UNL     1      46.657   2.650  17.625  0.00  0.00    +0.000 OA
ATOM     15  H   UNL     1      48.611   2.155  19.024  0.00  0.00    +0.000 HD
ATOM     16  H   UNL     1      49.596   3.461  18.467  0.00  0.00    +0.000 HD
ENDBRANCH   4  13
ENDBRANCH   1   8
BRANCH   1  17
ATOM     17  C   UNL     1      47.141   7.709  12.316  0.00  0.00    +0.000 A 
ATOM     18  C   UNL     1      46.134   8.677  12.332  0.00  0.00    +0.000 A 
ATOM     19  C   UNL     1      44.928   8.409  11.706  0.00  0.00    +0.000 A 
ATOM     20  N   UNL     1      44.648   7.250  11.076  0.00  0.00    +0.000 NA
ATOM     21  C   UNL     1      45.597   6.284  11.087  0.00  0.00    +0.000 A 
ATOM     22  C   UNL     1      46.833   6.485  11.700  0.00  0.00    +0.000 A 
BRANCH  21  23
ATOM     23  C   UNL     1      45.250   5.026  10.393  0.00  0.00    +0.000 A 
ATOM     24  C   UNL     1      45.613   4.823   9.047  0.00  0.00    +0.000 A 
ATOM     25  C   UNL     1      45.288   3.639   8.377  0.00  0.00    +0.000 A 
ATOM     26  C   UNL     1      44.592   2.644   9.047  0.00  0.00    +0.000 A 
ATOM     27  F   UNL     1      44.271   1.513   8.404  0.00  0.00    +0.000 F 
ATOM     28  C   UNL     1      44.218   2.808  10.372  0.00  0.00    +0.000 A 
ATOM     29  C   UNL     1      44.545   3.991  11.041  0.00  0.00    +0.000 A 
ENDBRANCH  21  23
ENDBRANCH   1  17
TORSDOF 4
ENDMDL
MODEL 6
REMARK VINA RESULT:    -6.385      3.691      7.001
REMARK INTER + INTRA:          -8.815
REMARK INTER:                  -8.866
REMARK INTRA:                   0.052
REMARK UNBOUND:                -0.937
REMARK  Name = 
REMARK  4 active torsions:
REMARK  status: ('A' for Active; 'I' for Inactive)
REMARK    1  A    between atoms: C_2  and  C_4
REMARK    2  A    between atoms: N_8  and  C_9
REMARK    3  A    between atoms: C_9  and  C_10
REMARK    4  A    between atoms: C_14  and  C_15
REMARK                            x       y       z     vdW  Elec       q    Type
REMARK                         _______ _______ _______ _____ _____    ______ ____
ROOT
ATOM      1  C   UNL     1      45.383   7.868  12.455  0.00  0.00    +0.000 C 
ATOM      2  C   UNL     1      45.586   9.027  11.479  0.00  0.00    +0.000 C 
ATOM      3  C   UNL     1      44.529   9.122  12.523  0.00  0.00    +0.000 C 
ENDROOT
BRANCH   1   8
ATOM      4  C   UNL     1      50.588   8.116  12.675  0.00  0.00    +0.000 A 
ATOM      5  C   UNL     1      49.772   7.839  11.583  0.00  0.00    +0.000 A 
ATOM      6  C   UNL     1      48.394   7.701  11.776  0.00  0.00    +0.000 A 
ATOM      7  C   UNL     1      47.861   7.830  13.053  0.00  0.00    +0.000 A 
ATOM      8  N   UNL     1      46.515   7.616  13.352  0.00  0.00    +0.000 N 
ATOM      9  N   UNL     1      48.647   8.092  14.121  0.00  0.00    +0.000 NA
ATOM     10  C   UNL     1      49.984   8.223  13.917  0.00  0.00    +0.000 A 
ATOM     11  H   UNL     1      46.396   7.848  14.336  0.00  0.00    +0.000 HD
BRANCH   4  13
ATOM     12  N   UNL     1      52.665   7.705  11.483  0.00  0.00    +0.000 N 
ATOM     13  C   UNL     1      52.054   8.261  12.574  0.00  0.00    +0.000 C 
ATOM     14  O   UNL     1      52.695   8.879  13.410  0.00  0.00    +0.000 OA
ATOM     15  H   UNL     1      53.654   7.898  11.376  0.00  0.00    +0.000 HD
ATOM     16  H   UNL     1      52.158   7.404  10.664  0.00  0.00    +0.000 HD
ENDBRANCH   4  13
ENDBRANCH   1   8
BRANCH   1  17
ATOM     17  C   UNL     1      44.724   6.607  11.907  0.00  0.00    +0.000 A 
ATOM     18  C   UNL     1      43.460   6.190  12.334  0.00  0.00    +0.000 A 
ATOM     19  C   UNL     1      42.875   5.086  11.737  0.00  0.00    +0.000 A 
ATOM     20  N   UNL     1      43.455   4.364  10.758  0.00  0.00    +0.000 NA
ATOM     21  C   UNL     1      44.699   4.727  10.361  0.00  0.00    +0.000 A 
ATOM     22  C   UNL     1      45.348   5.827  10.919  0.00  0.00    +0.000 A 
BRANCH  21  23
ATOM     23  C   UNL     1      45.304   3.907   9.292  0.00  0.00    +0.000 A 
ATOM     24  C   UNL     1      45.254   2.499   9.349  0.00  0.00    +0.000 A 
ATOM     25  C   UNL     1      45.826   1.710   8.346  0.00  0.00    +0.000 A 
ATOM     26  C   UNL     1      46.459   2.321   7.274  0.00  0.00    +0.000 A 
ATOM     27  F   UNL     1      47.016   1.567   6.317  0.00  0.00    +0.000 F 
ATOM     28  C   UNL     1      46.529   3.703   7.183  0.00  0.00    +0.000 A 
ATOM     29  C   UNL     1      45.954   4.490   8.185  0.00  0.00    +0.000 A 
ENDBRANCH  21  23
ENDBRANCH   1  17
TORSDOF 4
ENDMDL
