MODEL 1
REMARK VINA RESULT:    -7.924      0.000      0.000
REMARK INTER + INTRA:         -12.664
REMARK INTER:                 -11.861
REMARK INTRA:                  -0.803
REMARK UNBOUND:                -0.803
REMARK  Name = 
REMARK  10 active torsions:
REMARK  status: ('A' for Active; 'I' for Inactive)
REMARK    1  A    between atoms: C_1  and  C_2
REMARK    2  A    between atoms: C_2  and  N_3
REMARK    3  A    between atoms: C_2  and  C_19
REMARK    4  A    between atoms: N_3  and  C_4
REMARK    5  A    between atoms: C_4  and  C_5
REMARK    6  A    between atoms: C_8  and  C_9
REMARK    7  A    between atoms: C_9  and  O_10
REMARK    8  A    between atoms: C_9  and  C_11
REMARK    9  A    between atoms: C_11  and  N_12
REMARK   10  A    between atoms: C_19  and  C_21
REMARK                            x       y       z     vdW  Elec       q    Type
REMARK                         _______ _______ _______ _____ _____    ______ ____
ROOT
ATOM      1  N   UNL     1      47.873   5.613  15.803  0.00  0.00    +0.000 NA
ATOM      2  H   UNL     1      47.687   4.614  15.714  0.00  0.00    +0.000 HD
ENDROOT
BRANCH   1   4
ATOM      3  C   UNL     1      48.659   7.118  17.486  0.00  0.00    +0.000 C 
ATOM      4  C   UNL     1      49.003   5.830  16.739  0.00  0.00    +0.000 C 
BRANCH   4   5
ATOM      5  C   UNL     1      49.208   4.631  17.722  0.00  0.00    +0.000 C 
ATOM      6  O   UNL     1      48.238   4.014  18.156  0.00  0.00    +0.000 OA
BRANCH   5   7
ATOM      7  C   UNL     1      50.576   4.233  18.100  0.00  0.00    +0.000 A 
ATOM      8  C   UNL     1      51.433   5.052  18.817  0.00  0.00    +0.000 A 
ATOM      9  S   UNL     1      52.939   4.326  19.176  0.00  0.00    +0.000 S 
ATOM     10  C   UNL     1      52.494   2.884  18.389  0.00  0.00    +0.000 A 
ATOM     11  N   UNL     1      53.322   1.804  18.391  0.00  0.00    +0.000 NA
ATOM     12  C   UNL     1      52.833   0.760  17.807  0.00  0.00    +0.000 A 
ATOM     13  N   UNL     1      51.608   0.707  17.192  0.00  0.00    +0.000 N 
ATOM     14  C   UNL     1      50.822   1.830  17.013  0.00  0.00    +0.000 A 
ATOM     15  O   UNL     1      49.882   1.796  16.221  0.00  0.00    +0.000 OA
ATOM     16  C   UNL     1      51.248   2.983  17.780  0.00  0.00    +0.000 A 
ATOM     17  H   UNL     1      51.318  -0.114  16.689  0.00  0.00    +0.000 HD
ENDBRANCH   5   7
ENDBRANCH   4   5
ENDBRANCH   1   4
BRANCH   1  18
ATOM     18  C   UNL     1      48.118   6.173  14.474  0.00  0.00    +0.000 C 
BRANCH  18  19
ATOM     19  C   UNL     1      47.021   5.866  13.484  0.00  0.00    +0.000 A 
ATOM     20  C   UNL     1      46.233   4.731  13.643  0.00  0.00    +0.000 A 
ATOM     21  N   UNL     1      45.385   4.283  12.691  0.00  0.00    +0.000 NA
ATOM     22  C   UNL     1      45.311   5.040  11.573  0.00  0.00    +0.000 A 
ATOM     23  C   UNL     1      46.055   6.214  11.436  0.00  0.00    +0.000 A 
ATOM     24  N   UNL     1      46.920   6.647  12.376  0.00  0.00    +0.000 NA
BRANCH  22  25
ATOM     25  C   UNL     1      44.486   4.547  10.409  0.00  0.00    +0.000 C 
BRANCH  25  26
ATOM     26  O   UNL     1      43.359   5.420  10.222  0.00  0.00    +0.000 OA
ATOM     27  H   UNL     1      43.504   6.163  10.844  0.00  0.00    +0.000 HD
ENDBRANCH  25  26
BRANCH  25  28
ATOM     28  C   UNL     1      45.269   4.471   9.075  0.00  0.00    +0.000 C 
BRANCH  28  29
ATOM     29  N   UNL     1      44.791   3.471   8.094  0.00  0.00    +0.000 NA
ATOM     30  C   UNL     1      45.767   3.189   7.041  0.00  0.00    +0.000 C 
ATOM     31  C   UNL     1      46.726   2.200   7.673  0.00  0.00    +0.000 C 
ATOM     32  O   UNL     1      45.991   1.543   8.714  0.00  0.00    +0.000 OA
ATOM     33  C   UNL     1      44.699   2.158   8.734  0.00  0.00    +0.000 C 
ENDBRANCH  28  29
ENDBRANCH  25  28
ENDBRANCH  22  25
ENDBRANCH  18  19
ENDBRANCH   1  18
TORSDOF 9
ENDMDL
MODEL 2
REMARK VINA RESULT:    -7.794      2.860      8.709
REMARK INTER + INTRA:         -12.470
REMARK INTER:                 -11.114
REMARK INTRA:                  -1.356
REMARK UNBOUND:                -0.803
REMARK  Name = 
REMARK  10 active torsions:
REMARK  status: ('A' for Active; 'I' for Inactive)
REMARK    1  A    between atoms: C_1  and  C_2
REMARK    2  A    between atoms: C_2  and  N_3
REMARK    3  A    between atoms: C_2  and  C_19
REMARK    4  A    between atoms: N_3  and  C_4
REMARK    5  A    between atoms: C_4  and  C_5
REMARK    6  A    between atoms: C_8  and  C_9
REMARK    7  A    between atoms: C_9  and  O_10
REMARK    8  A    between atoms: C_9  and  C_11
REMARK    9  A    between atoms: C_11  and  N_12
REMARK   10  A    between atoms: C_19  and  C_21
REMARK                            x       y       z     vdW  Elec       q    Type
REMARK                         _______ _______ _______ _____ _____    ______ ____
ROOT
ATOM      1  N   UNL     1      47.418   6.850  11.936  0.00  0.00    +0.000 NA
ATOM      2  H   UNL     1      47.092   5.907  11.725  0.00  0.00    +0.000 HD
ENDROOT
BRANCH   1   4
ATOM      3  C   UNL     1      46.672   9.116  12.085  0.00  0.00    +0.000 C 
ATOM      4  C   UNL     1      46.284   7.676  12.415  0.00  0.00    +0.000 C 
BRANCH   4   5
ATOM      5  C   UNL     1      44.927   7.278  11.747  0.00  0.00    +0.000 C 
ATOM      6  O   UNL     1      44.234   8.130  11.196  0.00  0.00    +0.000 OA
BRANCH   5   7
ATOM      7  C   UNL     1      44.500   5.867  11.764  0.00  0.00    +0.000 A 
ATOM      8  C   UNL     1      43.829   5.291  12.830  0.00  0.00    +0.000 A 
ATOM      9  S   UNL     1      43.396   3.656  12.568  0.00  0.00    +0.000 S 
ATOM     10  C   UNL     1      44.088   3.665  11.013  0.00  0.00    +0.000 A 
ATOM     11  N   UNL     1      43.998   2.574  10.204  0.00  0.00    +0.000 NA
ATOM     12  C   UNL     1      44.516   2.740   9.032  0.00  0.00    +0.000 A 
ATOM     13  N   UNL     1      45.145   3.882   8.607  0.00  0.00    +0.000 N 
ATOM     14  C   UNL     1      45.414   4.938   9.457  0.00  0.00    +0.000 A 
ATOM     15  O   UNL     1      46.216   5.805   9.117  0.00  0.00    +0.000 OA
ATOM     16  C   UNL     1      44.723   4.869  10.729  0.00  0.00    +0.000 A 
ATOM     17  H   UNL     1      45.594   3.921   7.707  0.00  0.00    +0.000 HD
ENDBRANCH   5   7
ENDBRANCH   4   5
ENDBRANCH   1   4
BRANCH   1  18
ATOM     18  C   UNL     1      48.514   6.772  12.901  0.00  0.00    +0.000 C 
BRANCH  18  19
ATOM     19  C   UNL     1      48.120   6.115  14.202  0.00  0.00    +0.000 A 
ATOM     20  C   UNL     1      48.597   6.615  15.410  0.00  0.00    +0.000 A 
ATOM     21  N   UNL     1      48.463   5.958  16.583  0.00  0.00    +0.000 NA
ATOM     22  C   UNL     1      47.787   4.788  16.523  0.00  0.00    +0.000 A 
ATOM     23  C   UNL     1      47.254   4.314  15.323  0.00  0.00    +0.000 A 
ATOM     24  N   UNL     1      47.409   4.958  14.147  0.00  0.00    +0.000 NA
BRANCH  22  25
ATOM     25  C   UNL     1      47.700   3.928  17.761  0.00  0.00    +0.000 C 
BRANCH  25  26
ATOM     26  O   UNL     1      46.672   2.939  17.581  0.00  0.00    +0.000 OA
ATOM     27  H   UNL     1      45.844   3.449  17.461  0.00  0.00    +0.000 HD
ENDBRANCH  25  26
BRANCH  25  28
ATOM     28  C   UNL     1      49.021   3.200  18.110  0.00  0.00    +0.000 C 
BRANCH  28  29
ATOM     29  N   UNL     1      50.026   3.113  17.027  0.00  0.00    +0.000 NA
ATOM     30  C   UNL     1      51.386   3.401  17.482  0.00  0.00    +0.000 C 
ATOM     31  C   UNL     1      51.857   2.102  18.104  0.00  0.00    +0.000 C 
ATOM     32  O   UNL     1      51.086   1.062  17.486  0.00  0.00    +0.000 OA
ATOM     33  C   UNL     1      50.173   1.720  16.602  0.00  0.00    +0.000 C 
ENDBRANCH  28  29
ENDBRANCH  25  28
ENDBRANCH  22  25
ENDBRANCH  18  19
ENDBRANCH   1  18
TORSDOF 9
ENDMDL
MODEL 3
REMARK VINA RESULT:    -7.611      3.389      9.308
REMARK INTER + INTRA:         -12.195
REMARK INTER:                 -10.918
REMARK INTRA:                  -1.277
REMARK UNBOUND:                -0.803
REMARK  Name = 
REMARK  10 active torsions:
REMARK  status: ('A' for Active; 'I' for Inactive)
REMARK    1  A    between atoms: C_1  and  C_2
REMARK    2  A    between atoms: C_2  and  N_3
REMARK    3  A    between atoms: C_2  and  C_19
REMARK    4  A    between atoms: N_3  and  C_4
REMARK    5  A    between atoms: C_4  and  C_5
REMARK    6  A    between atoms: C_8  and  C_9
REMARK    7  A    between atoms: C_9  and  O_10
REMARK    8  A    between atoms: C_9  and  C_11
REMARK    9  A    between atoms: C_11  and  N_12
REMARK   10  A    between atoms: C_19  and  C_21
REMARK                            x       y       z     vdW  Elec       q    Type
REMARK                         _______ _______ _______ _____ _____    ______ ____
ROOT
ATOM      1  N   UNL     1      46.788   6.463  12.026  0.00  0.00    +0.000 NA
ATOM      2  H   UNL     1      46.632   5.455  12.047  0.00  0.00    +0.000 HD
ENDROOT
BRANCH   1   4
ATOM      3  C   UNL     1      45.798   8.639  12.042  0.00  0.00    +0.000 C 
ATOM      4  C   UNL     1      45.531   7.171  12.370  0.00  0.00    +0.000 C 
BRANCH   4   5
ATOM      5  C   UNL     1      44.297   6.620  11.585  0.00  0.00    +0.000 C 
ATOM      6  O   UNL     1      43.473   7.394  11.104  0.00  0.00    +0.000 OA
BRANCH   5   7
ATOM      7  C   UNL     1      44.146   5.164  11.405  0.00  0.00    +0.000 A 
ATOM      8  C   UNL     1      43.487   4.353  12.314  0.00  0.00    +0.000 A 
ATOM      9  S   UNL     1      43.402   2.712  11.837  0.00  0.00    +0.000 S 
ATOM     10  C   UNL     1      44.241   3.032  10.391  0.00  0.00    +0.000 A 
ATOM     11  N   UNL     1      44.445   2.050   9.471  0.00  0.00    +0.000 NA
ATOM     12  C   UNL     1      45.044   2.447   8.397  0.00  0.00    +0.000 A 
ATOM     13  N   UNL     1      45.486   3.725   8.172  0.00  0.00    +0.000 N 
ATOM     14  C   UNL     1      45.459   4.700   9.152  0.00  0.00    +0.000 A 
ATOM     15  O   UNL     1      46.114   5.730   9.005  0.00  0.00    +0.000 OA
ATOM     16  C   UNL     1      44.662   4.355  10.312  0.00  0.00    +0.000 A 
ATOM     17  H   UNL     1      46.013   3.952   7.346  0.00  0.00    +0.000 HD
ENDBRANCH   5   7
ENDBRANCH   4   5
ENDBRANCH   1   4
BRANCH   1  18
ATOM     18  C   UNL     1      47.893   6.793  12.925  0.00  0.00    +0.000 C 
BRANCH  18  19
ATOM     19  C   UNL     1      47.917   5.953  14.179  0.00  0.00    +0.000 A 
ATOM     20  C   UNL     1      47.056   4.868  14.309  0.00  0.00    +0.000 A 
ATOM     21  N   UNL     1      46.872   4.210  15.475  0.00  0.00    +0.000 NA
ATOM     22  C   UNL     1      47.620   4.644  16.515  0.00  0.00    +0.000 A 
ATOM     23  C   UNL     1      48.531   5.693  16.371  0.00  0.00    +0.000 A 
ATOM     24  N   UNL     1      48.696   6.367  15.213  0.00  0.00    +0.000 NA
BRANCH  22  25
ATOM     25  C   UNL     1      47.387   4.050  17.883  0.00  0.00    +0.000 C 
BRANCH  25  26
ATOM     26  O   UNL     1      46.692   2.798  17.745  0.00  0.00    +0.000 OA
ATOM     27  H   UNL     1      45.860   2.910  18.249  0.00  0.00    +0.000 HD
ENDBRANCH  25  26
BRANCH  25  28
ATOM     28  C   UNL     1      48.686   3.799  18.686  0.00  0.00    +0.000 C 
BRANCH  28  29
ATOM     29  N   UNL     1      48.732   4.373  20.049  0.00  0.00    +0.000 NA
ATOM     30  C   UNL     1      50.044   4.920  20.398  0.00  0.00    +0.000 C 
ATOM     31  C   UNL     1      50.062   6.292  19.755  0.00  0.00    +0.000 C 
ATOM     32  O   UNL     1      48.690   6.688  19.624  0.00  0.00    +0.000 OA
ATOM     33  C   UNL     1      47.913   5.585  20.101  0.00  0.00    +0.000 C 
ENDBRANCH  28  29
ENDBRANCH  25  28
ENDBRANCH  22  25
ENDBRANCH  18  19
ENDBRANCH   1  18
TORSDOF 9
ENDMDL
MODEL 4
REMARK VINA RESULT:    -7.516      3.249      3.875
REMARK INTER + INTRA:         -12.053
REMARK INTER:                 -10.128
REMARK INTRA:                  -1.925
REMARK UNBOUND:                -0.803
REMARK  Name = 
REMARK  10 active torsions:
REMARK  status: ('A' for Active; 'I' for Inactive)
REMARK    1  A    between atoms: C_1  and  C_2
REMARK    2  A    between atoms: C_2  and  N_3
REMARK    3  A    between atoms: C_2  and  C_19
REMARK    4  A    between atoms: N_3  and  C_4
REMARK    5  A    between atoms: C_4  and  C_5
REMARK    6  A    between atoms: C_8  and  C_9
REMARK    7  A    between atoms: C_9  and  O_10
REMARK    8  A    between atoms: C_9  and  C_11
REMARK    9  A    between atoms: C_11  and  N_12
REMARK   10  A    between atoms: C_19  and  C_21
REMARK                            x       y       z     vdW  Elec       q    Type
REMARK                         _______ _______ _______ _____ _____    ______ ____
ROOT
ATOM      1  N   UNL     1      49.625   6.967  13.421  0.00  0.00    +0.000 NA
ATOM      2  H   UNL     1      50.329   6.369  12.988  0.00  0.00    +0.000 HD
ENDROOT
BRANCH   1   4
ATOM      3  C   UNL     1      50.553   9.045  14.155  0.00  0.00    +0.000 C 
ATOM      4  C   UNL     1      50.199   7.632  14.616  0.00  0.00    +0.000 C 
BRANCH   4   5
ATOM      5  C   UNL     1      49.208   7.652  15.825  0.00  0.00    +0.000 C 
ATOM      6  O   UNL     1      48.367   8.543  15.923  0.00  0.00    +0.000 OA
BRANCH   5   7
ATOM      7  C   UNL     1      49.275   6.577  16.832  0.00  0.00    +0.000 A 
ATOM      8  C   UNL     1      50.063   6.652  17.969  0.00  0.00    +0.000 A 
ATOM      9  S   UNL     1      49.911   5.296  19.002  0.00  0.00    +0.000 S 
ATOM     10  C   UNL     1      48.778   4.563  17.964  0.00  0.00    +0.000 A 
ATOM     11  N   UNL     1      48.182   3.387  18.302  0.00  0.00    +0.000 NA
ATOM     12  C   UNL     1      47.302   2.976  17.450  0.00  0.00    +0.000 A 
ATOM     13  N   UNL     1      46.988   3.614  16.278  0.00  0.00    +0.000 N 
ATOM     14  C   UNL     1      47.698   4.706  15.817  0.00  0.00    +0.000 A 
ATOM     15  O   UNL     1      47.573   5.066  14.648  0.00  0.00    +0.000 OA
ATOM     16  C   UNL     1      48.584   5.297  16.799  0.00  0.00    +0.000 A 
ATOM     17  H   UNL     1      46.347   3.201  15.621  0.00  0.00    +0.000 HD
ENDBRANCH   5   7
ENDBRANCH   4   5
ENDBRANCH   1   4
BRANCH   1  18
ATOM     18  C   UNL     1      49.127   7.916  12.425  0.00  0.00    +0.000 C 
BRANCH  18  19
ATOM     19  C   UNL     1      47.685   7.684  12.047  0.00  0.00    +0.000 A 
ATOM     20  C   UNL     1      46.677   8.444  12.635  0.00  0.00    +0.000 A 
ATOM     21  N   UNL     1      45.364   8.150  12.508  0.00  0.00    +0.000 NA
ATOM     22  C   UNL     1      45.077   7.085  11.726  0.00  0.00    +0.000 A 
ATOM     23  C   UNL     1      46.083   6.358  11.084  0.00  0.00    +0.000 A 
ATOM     24  N   UNL     1      47.395   6.636  11.231  0.00  0.00    +0.000 NA
BRANCH  22  25
ATOM     25  C   UNL     1      43.647   6.611  11.631  0.00  0.00    +0.000 C 
BRANCH  25  26
ATOM     26  O   UNL     1      42.852   7.625  10.994  0.00  0.00    +0.000 OA
ATOM     27  H   UNL     1      42.029   7.170  10.718  0.00  0.00    +0.000 HD
ENDBRANCH  25  26
BRANCH  25  28
ATOM     28  C   UNL     1      43.477   5.291  10.840  0.00  0.00    +0.000 C 
BRANCH  28  29
ATOM     29  N   UNL     1      42.984   4.127  11.611  0.00  0.00    +0.000 NA
ATOM     30  C   UNL     1      43.748   2.906  11.358  0.00  0.00    +0.000 C 
ATOM     31  C   UNL     1      44.977   3.043  12.236  0.00  0.00    +0.000 C 
ATOM     32  O   UNL     1      44.604   3.922  13.306  0.00  0.00    +0.000 OA
ATOM     33  C   UNL     1      43.259   4.327  13.035  0.00  0.00    +0.000 C 
ENDBRANCH  28  29
ENDBRANCH  25  28
ENDBRANCH  22  25
ENDBRANCH  18  19
ENDBRANCH   1  18
TORSDOF 9
ENDMDL
MODEL 5
REMARK VINA RESULT:    -7.040      2.119      3.032
REMARK INTER + INTRA:         -11.341
REMARK INTER:                 -10.171
REMARK INTRA:                  -1.170
REMARK UNBOUND:                -0.803
REMARK  Name = 
REMARK  10 active torsions:
REMARK  status: ('A' for Active; 'I' for Inactive)
REMARK    1  A    between atoms: C_1  and  C_2
REMARK    2  A    between atoms: C_2  and  N_3
REMARK    3  A    between atoms: C_2  and  C_19
REMARK    4  A    between atoms: N_3  and  C_4
REMARK    5  A    between atoms: C_4  and  C_5
REMARK    6  A    between atoms: C_8  and  C_9
REMARK    7  A    between atoms: C_9  and  O_10
REMARK    8  A    between atoms: C_9  and  C_11
REMARK    9  A    between atoms: C_11  and  N_12
REMARK   10  A    between atoms: C_19  and  C_21
REMARK                            x       y       z     vdW  Elec       q    Type
REMARK                         _______ _______ _______ _____ _____    ______ ____
ROOT
ATOM      1  N   UNL     1      47.905   4.390  15.755  0.00  0.00    +0.000 NA
ATOM      2  H   UNL     1      48.924   4.420  15.764  0.00  0.00    +0.000 HD
ENDROOT
BRANCH   1   4
ATOM      3  C   UNL     1      47.237   2.879  17.483  0.00  0.00    +0.000 C 
ATOM      4  C   UNL     1      47.392   4.361  17.146  0.00  0.00    +0.000 C 
BRANCH   4   5
ATOM      5  C   UNL     1      48.346   5.084  18.153  0.00  0.00    +0.000 C 
ATOM      6  O   UNL     1      47.887   5.655  19.139  0.00  0.00    +0.000 OA
BRANCH   5   7
ATOM      7  C   UNL     1      49.802   5.050  17.920  0.00  0.00    +0.000 A 
ATOM      8  C   UNL     1      50.622   4.041  18.397  0.00  0.00    +0.000 A 
ATOM      9  S   UNL     1      52.260   4.210  17.935  0.00  0.00    +0.000 S 
ATOM     10  C   UNL     1      51.927   5.640  17.075  0.00  0.00    +0.000 A 
ATOM     11  N   UNL     1      52.904   6.272  16.367  0.00  0.00    +0.000 NA
ATOM     12  C   UNL     1      52.498   7.311  15.716  0.00  0.00    +0.000 A 
ATOM     13  N   UNL     1      51.215   7.797  15.734  0.00  0.00    +0.000 N 
ATOM     14  C   UNL     1      50.246   7.292  16.580  0.00  0.00    +0.000 A 
ATOM     15  O   UNL     1      49.211   7.928  16.770  0.00  0.00    +0.000 OA
ATOM     16  C   UNL     1      50.602   6.037  17.211  0.00  0.00    +0.000 A 
ATOM     17  H   UNL     1      50.981   8.656  15.265  0.00  0.00    +0.000 HD
ENDBRANCH   5   7
ENDBRANCH   4   5
ENDBRANCH   1   4
BRANCH   1  18
ATOM     18  C   UNL     1      47.400   5.526  14.985  0.00  0.00    +0.000 C 
BRANCH  18  19
ATOM     19  C   UNL     1      46.764   5.127  13.676  0.00  0.00    +0.000 A 
ATOM     20  C   UNL     1      46.754   6.013  12.603  0.00  0.00    +0.000 A 
ATOM     21  N   UNL     1      46.023   5.809  11.485  0.00  0.00    +0.000 NA
ATOM     22  C   UNL     1      45.326   4.652  11.448  0.00  0.00    +0.000 A 
ATOM     23  C   UNL     1      45.382   3.731  12.496  0.00  0.00    +0.000 A 
ATOM     24  N   UNL     1      46.092   3.946  13.623  0.00  0.00    +0.000 NA
BRANCH  22  25
ATOM     25  C   UNL     1      44.385   4.402  10.294  0.00  0.00    +0.000 C 
BRANCH  25  26
ATOM     26  O   UNL     1      43.358   5.408  10.291  0.00  0.00    +0.000 OA
ATOM     27  H   UNL     1      42.675   5.079  10.912  0.00  0.00    +0.000 HD
ENDBRANCH  25  26
BRANCH  25  28
ATOM     28  C   UNL     1      45.077   4.410   8.909  0.00  0.00    +0.000 C 
BRANCH  28  29
ATOM     29  N   UNL     1      44.702   3.315   7.985  0.00  0.00    +0.000 NA
ATOM     30  C   UNL     1      45.716   3.055   6.963  0.00  0.00    +0.000 C 
ATOM     31  C   UNL     1      46.746   2.192   7.665  0.00  0.00    +0.000 C 
ATOM     32  O   UNL     1      46.052   1.538   8.736  0.00  0.00    +0.000 OA
ATOM     33  C   UNL     1      44.713   2.039   8.704  0.00  0.00    +0.000 C 
ENDBRANCH  28  29
ENDBRANCH  25  28
ENDBRANCH  22  25
ENDBRANCH  18  19
ENDBRANCH   1  18
TORSDOF 9
ENDMDL
MODEL 6
REMARK VINA RESULT:    -6.871      3.223      4.041
REMARK INTER + INTRA:         -11.087
REMARK INTER:                 -10.031
REMARK INTRA:                  -1.056
REMARK UNBOUND:                -0.803
REMARK  Name = 
REMARK  10 active torsions:
REMARK  status: ('A' for Active; 'I' for Inactive)
REMARK    1  A    between atoms: C_1  and  C_2
REMARK    2  A    between atoms: C_2  and  N_3
REMARK    3  A    between atoms: C_2  and  C_19
REMARK    4  A    between atoms: N_3  and  C_4
REMARK    5  A    between atoms: C_4  and  C_5
REMARK    6  A    between atoms: C_8  and  C_9
REMARK    7  A    between atoms: C_9  and  O_10
REMARK    8  A    between atoms: C_9  and  C_11
REMARK    9  A    between atoms: C_11  and  N_12
REMARK   10  A    between atoms: C_19  and  C_21
REMARK                            x       y       z     vdW  Elec       q    Type
REMARK                         _______ _______ _______ _____ _____    ______ ____
ROOT
ATOM      1  N   UNL     1      46.037   7.384  13.450  0.00  0.00    +0.000 NA
ATOM      2  H   UNL     1      46.104   6.444  13.839  0.00  0.00    +0.000 HD
ENDROOT
BRANCH   1   4
ATOM      3  C   UNL     1      47.490   9.235  13.026  0.00  0.00    +0.000 C 
ATOM      4  C   UNL     1      47.308   7.739  12.775  0.00  0.00    +0.000 C 
BRANCH   4   5
ATOM      5  C   UNL     1      48.523   6.913  13.310  0.00  0.00    +0.000 C 
ATOM      6  O   UNL     1      49.378   6.494  12.532  0.00  0.00    +0.000 OA
BRANCH   5   7
ATOM      7  C   UNL     1      48.647   6.664  14.758  0.00  0.00    +0.000 A 
ATOM      8  C   UNL     1      49.319   7.516  15.618  0.00  0.00    +0.000 A 
ATOM      9  S   UNL     1      49.261   7.027  17.256  0.00  0.00    +0.000 S 
ATOM     10  C   UNL     1      48.326   5.657  16.871  0.00  0.00    +0.000 A 
ATOM     11  N   UNL     1      47.864   4.831  17.849  0.00  0.00    +0.000 NA
ATOM     12  C   UNL     1      47.121   3.866  17.418  0.00  0.00    +0.000 A 
ATOM     13  N   UNL     1      46.825   3.631  16.100  0.00  0.00    +0.000 N 
ATOM     14  C   UNL     1      47.422   4.336  15.072  0.00  0.00    +0.000 A 
ATOM     15  O   UNL     1      47.349   3.913  13.920  0.00  0.00    +0.000 OA
ATOM     16  C   UNL     1      48.136   5.522  15.501  0.00  0.00    +0.000 A 
ATOM     17  H   UNL     1      46.302   2.817  15.825  0.00  0.00    +0.000 HD
ENDBRANCH   5   7
ENDBRANCH   4   5
ENDBRANCH   1   4
BRANCH   1  18
ATOM     18  C   UNL     1      44.879   7.450  12.558  0.00  0.00    +0.000 C 
BRANCH  18  19
ATOM     19  C   UNL     1      44.749   6.246  11.657  0.00  0.00    +0.000 A 
ATOM     20  C   UNL     1      44.046   5.124  12.087  0.00  0.00    +0.000 A 
ATOM     21  N   UNL     1      44.070   3.944  11.429  0.00  0.00    +0.000 NA
ATOM     22  C   UNL     1      44.792   3.927  10.286  0.00  0.00    +0.000 A 
ATOM     23  C   UNL     1      45.447   5.069   9.820  0.00  0.00    +0.000 A 
ATOM     24  N   UNL     1      45.444   6.241  10.489  0.00  0.00    +0.000 NA
BRANCH  22  25
ATOM     25  C   UNL     1      44.977   2.619   9.556  0.00  0.00    +0.000 C 
BRANCH  25  26
ATOM     26  O   UNL     1      43.826   2.369   8.730  0.00  0.00    +0.000 OA
ATOM     27  H   UNL     1      43.739   3.165   8.165  0.00  0.00    +0.000 HD
ENDBRANCH  25  26
BRANCH  25  28
ATOM     28  C   UNL     1      46.238   2.575   8.659  0.00  0.00    +0.000 C 
BRANCH  28  29
ATOM     29  N   UNL     1      46.107   1.835   7.384  0.00  0.00    +0.000 NA
ATOM     30  C   UNL     1      46.495   2.628   6.218  0.00  0.00    +0.000 C 
ATOM     31  C   UNL     1      48.008   2.536   6.187  0.00  0.00    +0.000 C 
ATOM     32  O   UNL     1      48.345   1.320   6.869  0.00  0.00    +0.000 OA
ATOM     33  C   UNL     1      47.109   0.768   7.329  0.00  0.00    +0.000 C 
ENDBRANCH  28  29
ENDBRANCH  25  28
ENDBRANCH  22  25
ENDBRANCH  18  19
ENDBRANCH   1  18
TORSDOF 9
ENDMDL
MODEL 7
REMARK VINA RESULT:    -6.832      2.201      2.689
REMARK INTER + INTRA:         -11.029
REMARK INTER:                 -10.025
REMARK INTRA:                  -1.004
REMARK UNBOUND:                -0.803
REMARK  Name = 
REMARK  10 active torsions:
REMARK  status: ('A' for Active; 'I' for Inactive)
REMARK    1  A    between atoms: C_1  and  C_2
REMARK    2  A    between atoms: C_2  and  N_3
REMARK    3  A    between atoms: C_2  and  C_19
REMARK    4  A    between atoms: N_3  and  C_4
REMARK    5  A    between atoms: C_4  and  C_5
REMARK    6  A    between atoms: C_8  and  C_9
REMARK    7  A    between atoms: C_9  and  O_10
REMARK    8  A    between atoms: C_9  and  C_11
REMARK    9  A    between atoms: C_11  and  N_12
REMARK   10  A    between atoms: C_19  and  C_21
REMARK                            x       y       z     vdW  Elec       q    Type
REMARK                         _______ _______ _______ _____ _____    ______ ____
ROOT
ATOM      1  N   UNL     1      49.842   6.074  15.965  0.00  0.00    +0.000 NA
ATOM      2  H   UNL     1      50.705   5.612  15.680  0.00  0.00    +0.000 HD
ENDROOT
BRANCH   1   4
ATOM      3  C   UNL     1      48.661   7.246  17.682  0.00  0.00    +0.000 C 
ATOM      4  C   UNL     1      49.900   6.394  17.412  0.00  0.00    +0.000 C 
BRANCH   4   5
ATOM      5  C   UNL     1      49.927   5.114  18.310  0.00  0.00    +0.000 C 
ATOM      6  O   UNL     1      48.889   4.685  18.807  0.00  0.00    +0.000 OA
BRANCH   5   7
ATOM      7  C   UNL     1      51.206   4.414  18.532  0.00  0.00    +0.000 A 
ATOM      8  C   UNL     1      52.257   4.966  19.246  0.00  0.00    +0.000 A 
ATOM      9  S   UNL     1      53.602   3.921  19.408  0.00  0.00    +0.000 S 
ATOM     10  C   UNL     1      52.820   2.689  18.531  0.00  0.00    +0.000 A 
ATOM     11  N   UNL     1      53.407   1.473  18.362  0.00  0.00    +0.000 NA
ATOM     12  C   UNL     1      52.677   0.617  17.728  0.00  0.00    +0.000 A 
ATOM     13  N   UNL     1      51.431   0.873  17.217  0.00  0.00    +0.000 N 
ATOM     14  C   UNL     1      50.882   2.142  17.210  0.00  0.00    +0.000 A 
ATOM     15  O   UNL     1      49.907   2.381  16.501  0.00  0.00    +0.000 OA
ATOM     16  C   UNL     1      51.585   3.099  18.041  0.00  0.00    +0.000 A 
ATOM     17  H   UNL     1      50.946   0.185  16.666  0.00  0.00    +0.000 HD
ENDBRANCH   5   7
ENDBRANCH   4   5
ENDBRANCH   1   4
BRANCH   1  18
ATOM     18  C   UNL     1      49.632   7.254  15.128  0.00  0.00    +0.000 C 
BRANCH  18  19
ATOM     19  C   UNL     1      48.435   7.136  14.216  0.00  0.00    +0.000 A 
ATOM     20  C   UNL     1      47.800   8.280  13.743  0.00  0.00    +0.000 A 
ATOM     21  N   UNL     1      46.608   8.252  13.106  0.00  0.00    +0.000 NA
ATOM     22  C   UNL     1      46.080   7.023  12.911  0.00  0.00    +0.000 A 
ATOM     23  C   UNL     1      46.744   5.868  13.330  0.00  0.00    +0.000 A 
ATOM     24  N   UNL     1      47.922   5.898  13.988  0.00  0.00    +0.000 NA
BRANCH  22  25
ATOM     25  C   UNL     1      44.695   6.906  12.321  0.00  0.00    +0.000 C 
BRANCH  25  26
ATOM     26  O   UNL     1      44.313   8.171  11.753  0.00  0.00    +0.000 OA
ATOM     27  H   UNL     1      45.071   8.439  11.192  0.00  0.00    +0.000 HD
ENDBRANCH  25  26
BRANCH  25  28
ATOM     28  C   UNL     1      44.572   5.822  11.224  0.00  0.00    +0.000 C 
BRANCH  28  29
ATOM     29  N   UNL     1      43.345   4.994  11.259  0.00  0.00    +0.000 NA
ATOM     30  C   UNL     1      43.600   3.578  10.992  0.00  0.00    +0.000 C 
ATOM     31  C   UNL     1      44.084   3.027  12.319  0.00  0.00    +0.000 C 
ATOM     32  O   UNL     1      43.542   3.889  13.329  0.00  0.00    +0.000 OA
ATOM     33  C   UNL     1      42.839   4.922  12.631  0.00  0.00    +0.000 C 
ENDBRANCH  28  29
ENDBRANCH  25  28
ENDBRANCH  22  25
ENDBRANCH  18  19
ENDBRANCH   1  18
TORSDOF 9
ENDMDL
MODEL 8
REMARK VINA RESULT:    -6.780      1.857      2.333
REMARK INTER + INTRA:         -10.952
REMARK INTER:                  -9.987
REMARK INTRA:                  -0.965
REMARK UNBOUND:                -0.803
REMARK  Name = 
REMARK  10 active torsions:
REMARK  status: ('A' for Active; 'I' for Inactive)
REMARK    1  A    between atoms: C_1  and  C_2
REMARK    2  A    between atoms: C_2  and  N_3
REMARK    3  A    between atoms: C_2  and  C_19
REMARK    4  A    between atoms: N_3  and  C_4
REMARK    5  A    between atoms: C_4  and  C_5
REMARK    6  A    between atoms: C_8  and  C_9
REMARK    7  A    between atoms: C_9  and  O_10
REMARK    8  A    between atoms: C_9  and  C_11
REMARK    9  A    between atoms: C_11  and  N_12
REMARK   10  A    between atoms: C_19  and  C_21
REMARK                            x       y       z     vdW  Elec       q    Type
REMARK                         _______ _______ _______ _____ _____    ______ ____
ROOT
ATOM      1  N   UNL     1      50.142   6.648  15.056  0.00  0.00    +0.000 NA
ATOM      2  H   UNL     1      50.695   7.046  14.298  0.00  0.00    +0.000 HD
ENDROOT
BRANCH   1   4
ATOM      3  C   UNL     1      50.746   8.390  16.578  0.00  0.00    +0.000 C 
ATOM      4  C   UNL     1      50.826   6.882  16.351  0.00  0.00    +0.000 C 
BRANCH   4   5
ATOM      5  C   UNL     1      50.173   6.086  17.528  0.00  0.00    +0.000 C 
ATOM      6  O   UNL     1      49.832   6.669  18.555  0.00  0.00    +0.000 OA
BRANCH   5   7
ATOM      7  C   UNL     1      49.946   4.637  17.383  0.00  0.00    +0.000 A 
ATOM      8  C   UNL     1      48.729   4.094  17.006  0.00  0.00    +0.000 A 
ATOM      9  S   UNL     1      48.753   2.390  16.853  0.00  0.00    +0.000 S 
ATOM     10  C   UNL     1      50.399   2.320  17.281  0.00  0.00    +0.000 A 
ATOM     11  N   UNL     1      51.071   1.136  17.274  0.00  0.00    +0.000 NA
ATOM     12  C   UNL     1      52.326   1.239  17.563  0.00  0.00    +0.000 A 
ATOM     13  N   UNL     1      52.962   2.409  17.892  0.00  0.00    +0.000 N 
ATOM     14  C   UNL     1      52.278   3.593  18.086  0.00  0.00    +0.000 A 
ATOM     15  O   UNL     1      52.834   4.534  18.648  0.00  0.00    +0.000 OA
ATOM     16  C   UNL     1      50.903   3.568  17.626  0.00  0.00    +0.000 A 
ATOM     17  H   UNL     1      53.926   2.409  18.181  0.00  0.00    +0.000 HD
ENDBRANCH   5   7
ENDBRANCH   4   5
ENDBRANCH   1   4
BRANCH   1  18
ATOM     18  C   UNL     1      48.794   7.214  15.014  0.00  0.00    +0.000 C 
BRANCH  18  19
ATOM     19  C   UNL     1      47.949   6.663  13.891  0.00  0.00    +0.000 A 
ATOM     20  C   UNL     1      47.804   7.381  12.708  0.00  0.00    +0.000 A 
ATOM     21  N   UNL     1      46.901   7.056  11.755  0.00  0.00    +0.000 NA
ATOM     22  C   UNL     1      46.167   5.948  12.001  0.00  0.00    +0.000 A 
ATOM     23  C   UNL     1      46.353   5.190  13.159  0.00  0.00    +0.000 A 
ATOM     24  N   UNL     1      47.237   5.528  14.122  0.00  0.00    +0.000 NA
BRANCH  22  25
ATOM     25  C   UNL     1      45.050   5.585  11.052  0.00  0.00    +0.000 C 
BRANCH  25  26
ATOM     26  O   UNL     1      44.288   6.764  10.743  0.00  0.00    +0.000 OA
ATOM     27  H   UNL     1      44.372   6.876   9.773  0.00  0.00    +0.000 HD
ENDBRANCH  25  26
BRANCH  25  28
ATOM     28  C   UNL     1      45.538   4.958   9.723  0.00  0.00    +0.000 C 
BRANCH  28  29
ATOM     29  N   UNL     1      44.575   4.075   9.026  0.00  0.00    +0.000 NA
ATOM     30  C   UNL     1      45.039   3.651   7.705  0.00  0.00    +0.000 C 
ATOM     31  C   UNL     1      45.982   2.499   7.989  0.00  0.00    +0.000 C 
ATOM     32  O   UNL     1      45.577   1.957   9.253  0.00  0.00    +0.000 OA
ATOM     33  C   UNL     1      44.504   2.784   9.713  0.00  0.00    +0.000 C 
ENDBRANCH  28  29
ENDBRANCH  25  28
ENDBRANCH  22  25
ENDBRANCH  18  19
ENDBRANCH   1  18
TORSDOF 9
ENDMDL
MODEL 9
REMARK VINA RESULT:    -6.637      2.657      3.378
REMARK INTER + INTRA:         -10.737
REMARK INTER:                  -9.501
REMARK INTRA:                  -1.236
REMARK UNBOUND:                -0.803
REMARK  Name = 
REMARK  10 active torsions:
REMARK  status: ('A' for Active; 'I' for Inactive)
REMARK    1  A    between atoms: C_1  and  C_2
REMARK    2  A    between atoms: C_2  and  N_3
REMARK    3  A    between atoms: C_2  and  C_19
REMARK    4  A    between atoms: N_3  and  C_4
REMARK    5  A    between atoms: C_4  and  C_5
REMARK    6  A    between atoms: C_8  and  C_9
REMARK    7  A    between atoms: C_9  and  O_10
REMARK    8  A    between atoms: C_9  and  C_11
REMARK    9  A    between atoms: C_11  and  N_12
REMARK   10  A    between atoms: C_19  and  C_21
REMARK                            x       y       z     vdW  Elec       q    Type
REMARK                         _______ _______ _______ _____ _____    ______ ____
ROOT
ATOM      1  N   UNL     1      49.206   8.126  16.237  0.00  0.00    +0.000 NA
ATOM      2  H   UNL     1      48.188   8.078  16.289  0.00  0.00    +0.000 HD
ENDROOT
BRANCH   1   4
ATOM      3  C   UNL     1      50.157   8.571  18.384  0.00  0.00    +0.000 C 
ATOM      4  C   UNL     1      49.800   7.447  17.414  0.00  0.00    +0.000 C 
BRANCH   4   5
ATOM      5  C   UNL     1      48.826   6.411  18.064  0.00  0.00    +0.000 C 
ATOM      6  O   UNL     1      48.114   6.740  19.010  0.00  0.00    +0.000 OA
BRANCH   5   7
ATOM      7  C   UNL     1      48.751   5.045  17.515  0.00  0.00    +0.000 A 
ATOM      8  C   UNL     1      47.681   4.588  16.764  0.00  0.00    +0.000 A 
ATOM      9  S   UNL     1      47.873   2.985  16.197  0.00  0.00    +0.000 S 
ATOM     10  C   UNL     1      49.402   2.850  16.933  0.00  0.00    +0.000 A 
ATOM     11  N   UNL     1      50.157   1.728  16.771  0.00  0.00    +0.000 NA
ATOM     12  C   UNL     1      51.317   1.786  17.336  0.00  0.00    +0.000 A 
ATOM     13  N   UNL     1      51.779   2.845  18.075  0.00  0.00    +0.000 N 
ATOM     14  C   UNL     1      50.975   3.917  18.411  0.00  0.00    +0.000 A 
ATOM     15  O   UNL     1      51.331   4.692  19.297  0.00  0.00    +0.000 OA
ATOM     16  C   UNL     1      49.725   3.977  17.679  0.00  0.00    +0.000 A 
ATOM     17  H   UNL     1      52.663   2.795  18.553  0.00  0.00    +0.000 HD
ENDBRANCH   5   7
ENDBRANCH   4   5
ENDBRANCH   1   4
BRANCH   1  18
ATOM     18  C   UNL     1      49.647   7.554  14.965  0.00  0.00    +0.000 C 
BRANCH  18  19
ATOM     19  C   UNL     1      48.523   7.353  13.978  0.00  0.00    +0.000 A 
ATOM     20  C   UNL     1      47.697   8.418  13.633  0.00  0.00    +0.000 A 
ATOM     21  N   UNL     1      46.553   8.266  12.929  0.00  0.00    +0.000 NA
ATOM     22  C   UNL     1      46.275   7.003  12.534  0.00  0.00    +0.000 A 
ATOM     23  C   UNL     1      47.134   5.941  12.825  0.00  0.00    +0.000 A 
ATOM     24  N   UNL     1      48.264   6.089  13.549  0.00  0.00    +0.000 NA
BRANCH  22  25
ATOM     25  C   UNL     1      44.957   6.722  11.854  0.00  0.00    +0.000 C 
BRANCH  25  26
ATOM     26  O   UNL     1      44.613   7.832  11.007  0.00  0.00    +0.000 OA
ATOM     27  H   UNL     1      44.807   7.529  10.096  0.00  0.00    +0.000 HD
ENDBRANCH  25  26
BRANCH  25  28
ATOM     28  C   UNL     1      44.958   5.435  10.993  0.00  0.00    +0.000 C 
BRANCH  28  29
ATOM     29  N   UNL     1      43.647   4.776  10.802  0.00  0.00    +0.000 NA
ATOM     30  C   UNL     1      43.721   3.317  10.882  0.00  0.00    +0.000 C 
ATOM     31  C   UNL     1      43.720   3.022  12.368  0.00  0.00    +0.000 C 
ATOM     32  O   UNL     1      43.078   4.140  12.996  0.00  0.00    +0.000 OA
ATOM     33  C   UNL     1      42.779   5.065  11.946  0.00  0.00    +0.000 C 
ENDBRANCH  28  29
ENDBRANCH  25  28
ENDBRANCH  22  25
ENDBRANCH  18  19
ENDBRANCH   1  18
TORSDOF 9
ENDMDL
