MODEL 1
REMARK VINA RESULT:    -9.572      0.000      0.000
REMARK INTER + INTRA:         -12.256
REMARK INTER:                 -11.811
REMARK INTRA:                  -0.445
REMARK UNBOUND:                -0.445
REMARK  Name = 
REMARK  4 active torsions:
REMARK  status: ('A' for Active; 'I' for Inactive)
REMARK    1  A    between atoms: C_2  and  C_4
REMARK    2  A    between atoms: N_8  and  C_9
REMARK    3  A    between atoms: C_9  and  C_10
REMARK    4  A    between atoms: C_14  and  C_15
REMARK                            x       y       z     vdW  Elec       q    Type
REMARK                         _______ _______ _______ _____ _____    ______ ____
ROOT
ATOM      1  C   UNL     1      43.866   4.900  11.470  0.00  0.00    +0.000 C 
ATOM      2  C   UNL     1      42.738   4.971  12.493  0.00  0.00    +0.000 C 
ATOM      3  C   UNL     1      42.767   5.937  11.355  0.00  0.00    +0.000 C 
ENDROOT
BRANCH   1   8
ATOM      4  C   UNL     1      46.396   2.689   7.496  0.00  0.00    +0.000 A 
ATOM      5  C   UNL     1      45.968   4.008   7.616  0.00  0.00    +0.000 A 
ATOM      6  C   UNL     1      45.161   4.371   8.698  0.00  0.00    +0.000 A 
ATOM      7  C   UNL     1      44.790   3.409   9.630  0.00  0.00    +0.000 A 
ATOM      8  N   UNL     1      43.887   3.660  10.671  0.00  0.00    +0.000 N 
ATOM      9  N   UNL     1      45.207   2.129   9.529  0.00  0.00    +0.000 NA
ATOM     10  C   UNL     1      45.991   1.793   8.472  0.00  0.00    +0.000 A 
ATOM     11  H   UNL     1      43.873   2.797  11.214  0.00  0.00    +0.000 HD
BRANCH   4  13
ATOM     12  N   UNL     1      47.239   2.965   5.231  0.00  0.00    +0.000 N 
ATOM     13  C   UNL     1      47.205   2.197   6.361  0.00  0.00    +0.000 C 
ATOM     14  O   UNL     1      47.838   1.152   6.432  0.00  0.00    +0.000 OA
ATOM     15  H   UNL     1      47.857   2.654   4.493  0.00  0.00    +0.000 HD
ATOM     16  H   UNL     1      46.938   3.930   5.213  0.00  0.00    +0.000 HD
ENDBRANCH   4  13
ENDBRANCH   1   8
BRANCH   1  17
ATOM     17  C   UNL     1      45.263   5.351  11.887  0.00  0.00    +0.000 A 
ATOM     18  C   UNL     1      45.974   6.319  11.160  0.00  0.00    +0.000 A 
ATOM     19  C   UNL     1      47.178   6.840  11.630  0.00  0.00    +0.000 A 
ATOM     20  C   UNL     1      47.687   6.418  12.857  0.00  0.00    +0.000 A 
ATOM     21  C   UNL     1      47.015   5.456  13.629  0.00  0.00    +0.000 A 
ATOM     22  C   UNL     1      45.829   4.910  13.101  0.00  0.00    +0.000 A 
BRANCH  21  23
ATOM     23  C   UNL     1      47.471   5.105  14.990  0.00  0.00    +0.000 A 
ATOM     24  C   UNL     1      48.434   5.843  15.681  0.00  0.00    +0.000 A 
ATOM     25  N   UNL     1      48.929   5.527  16.905  0.00  0.00    +0.000 NA
ATOM     26  C   UNL     1      48.432   4.409  17.485  0.00  0.00    +0.000 A 
ATOM     27  C   UNL     1      47.472   3.611  16.896  0.00  0.00    +0.000 A 
ATOM     28  F   UNL     1      47.019   2.514  17.515  0.00  0.00    +0.000 F 
ATOM     29  C   UNL     1      46.986   3.957  15.645  0.00  0.00    +0.000 A 
ENDBRANCH  21  23
ENDBRANCH   1  17
TORSDOF 4
ENDMDL
MODEL 2
REMARK VINA RESULT:    -9.519      2.656      3.685
REMARK INTER + INTRA:         -12.190
REMARK INTER:                 -11.064
REMARK INTRA:                  -1.126
REMARK UNBOUND:                -0.445
REMARK  Name = 
REMARK  4 active torsions:
REMARK  status: ('A' for Active; 'I' for Inactive)
REMARK    1  A    between atoms: C_2  and  C_4
REMARK    2  A    between atoms: N_8  and  C_9
REMARK    3  A    between atoms: C_9  and  C_10
REMARK    4  A    between atoms: C_14  and  C_15
REMARK                            x       y       z     vdW  Elec       q    Type
REMARK                         _______ _______ _______ _____ _____    ______ ____
ROOT
ATOM      1  C   UNL     1      43.778   4.911  11.383  0.00  0.00    +0.000 C 
ATOM      2  C   UNL     1      42.437   5.149  12.068  0.00  0.00    +0.000 C 
ATOM      3  C   UNL     1      42.937   6.130  11.060  0.00  0.00    +0.000 C 
ENDROOT
BRANCH   1   8
ATOM      4  C   UNL     1      46.560   2.789   7.531  0.00  0.00    +0.000 A 
ATOM      5  C   UNL     1      46.178   4.118   7.685  0.00  0.00    +0.000 A 
ATOM      6  C   UNL     1      45.292   4.463   8.709  0.00  0.00    +0.000 A 
ATOM      7  C   UNL     1      44.800   3.474   9.553  0.00  0.00    +0.000 A 
ATOM      8  N   UNL     1      43.819   3.713  10.523  0.00  0.00    +0.000 N 
ATOM      9  N   UNL     1      45.171   2.182   9.420  0.00  0.00    +0.000 NA
ATOM     10  C   UNL     1      46.032   1.864   8.418  0.00  0.00    +0.000 A 
ATOM     11  H   UNL     1      43.721   2.826  11.016  0.00  0.00    +0.000 HD
BRANCH   4  13
ATOM     12  N   UNL     1      47.349   2.944   5.236  0.00  0.00    +0.000 N 
ATOM     13  C   UNL     1      47.446   2.317   6.446  0.00  0.00    +0.000 C 
ATOM     14  O   UNL     1      48.251   1.413   6.625  0.00  0.00    +0.000 OA
ATOM     15  H   UNL     1      48.014   2.662   4.527  0.00  0.00    +0.000 HD
ATOM     16  H   UNL     1      46.884   3.833   5.113  0.00  0.00    +0.000 HD
ENDBRANCH   4  13
ENDBRANCH   1   8
BRANCH   1  17
ATOM     17  C   UNL     1      45.058   5.095  12.193  0.00  0.00    +0.000 A 
ATOM     18  C   UNL     1      45.574   4.069  13.001  0.00  0.00    +0.000 A 
ATOM     19  C   UNL     1      46.820   4.186  13.613  0.00  0.00    +0.000 A 
ATOM     20  C   UNL     1      47.592   5.328  13.408  0.00  0.00    +0.000 A 
ATOM     21  C   UNL     1      47.129   6.382  12.605  0.00  0.00    +0.000 A 
ATOM     22  C   UNL     1      45.843   6.257  12.044  0.00  0.00    +0.000 A 
BRANCH  21  23
ATOM     23  C   UNL     1      47.993   7.532  12.268  0.00  0.00    +0.000 A 
ATOM     24  C   UNL     1      47.502   8.832  12.125  0.00  0.00    +0.000 A 
ATOM     25  N   UNL     1      48.243   9.909  11.757  0.00  0.00    +0.000 NA
ATOM     26  C   UNL     1      49.557   9.684  11.522  0.00  0.00    +0.000 A 
ATOM     27  C   UNL     1      50.148   8.443  11.643  0.00  0.00    +0.000 A 
ATOM     28  F   UNL     1      51.454   8.278  11.395  0.00  0.00    +0.000 F 
ATOM     29  C   UNL     1      49.368   7.360  12.018  0.00  0.00    +0.000 A 
ENDBRANCH  21  23
ENDBRANCH   1  17
TORSDOF 4
ENDMDL
MODEL 3
REMARK VINA RESULT:    -7.637      4.113      8.443
REMARK INTER + INTRA:          -9.868
REMARK INTER:                  -8.880
REMARK INTRA:                  -0.988
REMARK UNBOUND:                -0.445
REMARK  Name = 
REMARK  4 active torsions:
REMARK  status: ('A' for Active; 'I' for Inactive)
REMARK    1  A    between atoms: C_2  and  C_4
REMARK    2  A    between atoms: N_8  and  C_9
REMARK    3  A    between atoms: C_9  and  C_10
REMARK    4  A    between atoms: C_14  and  C_15
REMARK                            x       y       z     vdW  Elec       q    Type
REMARK                         _______ _______ _______ _____ _____    ______ ____
ROOT
ATOM      1  C   UNL     1      48.983   7.955  12.613  0.00  0.00    +0.000 C 
ATOM      2  C   UNL     1      49.928   8.187  11.439  0.00  0.00    +0.000 C 
ATOM      3  C   UNL     1      49.615   9.311  12.369  0.00  0.00    +0.000 C 
ENDROOT
BRANCH   1   8
ATOM      4  C   UNL     1      48.462   6.748  17.647  0.00  0.00    +0.000 A 
ATOM      5  C   UNL     1      48.549   8.012  17.070  0.00  0.00    +0.000 A 
ATOM      6  C   UNL     1      48.848   8.125  15.710  0.00  0.00    +0.000 A 
ATOM      7  C   UNL     1      49.063   6.976  14.957  0.00  0.00    +0.000 A 
ATOM      8  N   UNL     1      49.486   7.004  13.622  0.00  0.00    +0.000 N 
ATOM      9  N   UNL     1      48.971   5.745  15.503  0.00  0.00    +0.000 NA
ATOM     10  C   UNL     1      48.680   5.652  16.827  0.00  0.00    +0.000 A 
ATOM     11  H   UNL     1      49.486   6.027  13.330  0.00  0.00    +0.000 HD
BRANCH   4  13
ATOM     12  N   UNL     1      47.322   5.540  19.425  0.00  0.00    +0.000 N 
ATOM     13  C   UNL     1      48.206   6.526  19.087  0.00  0.00    +0.000 C 
ATOM     14  O   UNL     1      48.775   7.185  19.946  0.00  0.00    +0.000 OA
ATOM     15  H   UNL     1      47.216   5.350  20.414  0.00  0.00    +0.000 HD
ATOM     16  H   UNL     1      47.020   4.827  18.777  0.00  0.00    +0.000 HD
ENDBRANCH   4  13
ENDBRANCH   1   8
BRANCH   1  17
ATOM     17  C   UNL     1      47.494   7.777  12.330  0.00  0.00    +0.000 A 
ATOM     18  C   UNL     1      46.578   8.824  12.512  0.00  0.00    +0.000 A 
ATOM     19  C   UNL     1      45.249   8.705  12.106  0.00  0.00    +0.000 A 
ATOM     20  C   UNL     1      44.815   7.536  11.484  0.00  0.00    +0.000 A 
ATOM     21  C   UNL     1      45.689   6.459  11.272  0.00  0.00    +0.000 A 
ATOM     22  C   UNL     1      47.010   6.590  11.742  0.00  0.00    +0.000 A 
BRANCH  21  23
ATOM     23  C   UNL     1      45.278   5.273  10.491  0.00  0.00    +0.000 A 
ATOM     24  C   UNL     1      44.518   4.235  11.035  0.00  0.00    +0.000 A 
ATOM     25  N   UNL     1      44.168   3.098  10.379  0.00  0.00    +0.000 NA
ATOM     26  C   UNL     1      44.593   2.988   9.097  0.00  0.00    +0.000 A 
ATOM     27  C   UNL     1      45.340   3.958   8.459  0.00  0.00    +0.000 A 
ATOM     28  F   UNL     1      45.735   3.793   7.191  0.00  0.00    +0.000 F 
ATOM     29  C   UNL     1      45.685   5.106   9.154  0.00  0.00    +0.000 A 
ENDBRANCH  21  23
ENDBRANCH   1  17
TORSDOF 4
ENDMDL
MODEL 4
REMARK VINA RESULT:    -7.122      2.801      4.565
REMARK INTER + INTRA:          -9.233
REMARK INTER:                  -8.853
REMARK INTRA:                  -0.380
REMARK UNBOUND:                -0.445
REMARK  Name = 
REMARK  4 active torsions:
REMARK  status: ('A' for Active; 'I' for Inactive)
REMARK    1  A    between atoms: C_2  and  C_4
REMARK    2  A    between atoms: N_8  and  C_9
REMARK    3  A    between atoms: C_9  and  C_10
REMARK    4  A    between atoms: C_14  and  C_15
REMARK                            x       y       z     vdW  Elec       q    Type
REMARK                         _______ _______ _______ _____ _____    ______ ____
ROOT
ATOM      1  C   UNL     1      47.342   8.470  13.149  0.00  0.00    +0.000 C 
ATOM      2  C   UNL     1      47.457   9.793  12.400  0.00  0.00    +0.000 C 
ATOM      3  C   UNL     1      48.152   8.582  11.873  0.00  0.00    +0.000 C 
ENDROOT
BRANCH   1   8
ATOM      4  C   UNL     1      44.620   4.343  11.524  0.00  0.00    +0.000 A 
ATOM      5  C   UNL     1      45.576   5.073  10.823  0.00  0.00    +0.000 A 
ATOM      6  C   UNL     1      46.081   6.252  11.380  0.00  0.00    +0.000 A 
ATOM      7  C   UNL     1      45.617   6.681  12.618  0.00  0.00    +0.000 A 
ATOM      8  N   UNL     1      45.979   7.908  13.187  0.00  0.00    +0.000 N 
ATOM      9  N   UNL     1      44.697   5.975  13.311  0.00  0.00    +0.000 NA
ATOM     10  C   UNL     1      44.216   4.833  12.756  0.00  0.00    +0.000 A 
ATOM     11  H   UNL     1      45.540   7.904  14.108  0.00  0.00    +0.000 HD
BRANCH   4  13
ATOM     12  N   UNL     1      44.656   2.429  10.023  0.00  0.00    +0.000 N 
ATOM     13  C   UNL     1      43.986   3.116  10.996  0.00  0.00    +0.000 C 
ATOM     14  O   UNL     1      42.912   2.717  11.425  0.00  0.00    +0.000 OA
ATOM     15  H   UNL     1      44.246   1.553   9.727  0.00  0.00    +0.000 HD
ATOM     16  H   UNL     1      45.632   2.583   9.815  0.00  0.00    +0.000 HD
ENDBRANCH   4  13
ENDBRANCH   1   8
BRANCH   1  17
ATOM     17  C   UNL     1      48.078   8.313  14.477  0.00  0.00    +0.000 A 
ATOM     18  C   UNL     1      48.346   9.413  15.306  0.00  0.00    +0.000 A 
ATOM     19  C   UNL     1      48.877   9.246  16.584  0.00  0.00    +0.000 A 
ATOM     20  C   UNL     1      49.128   7.964  17.071  0.00  0.00    +0.000 A 
ATOM     21  C   UNL     1      48.873   6.828  16.287  0.00  0.00    +0.000 A 
ATOM     22  C   UNL     1      48.388   7.033  14.981  0.00  0.00    +0.000 A 
BRANCH  21  23
ATOM     23  C   UNL     1      49.003   5.464  16.840  0.00  0.00    +0.000 A 
ATOM     24  C   UNL     1      50.231   4.913  17.216  0.00  0.00    +0.000 A 
ATOM     25  N   UNL     1      50.410   3.646  17.670  0.00  0.00    +0.000 NA
ATOM     26  C   UNL     1      49.299   2.877  17.766  0.00  0.00    +0.000 A 
ATOM     27  C   UNL     1      48.037   3.324  17.431  0.00  0.00    +0.000 A 
ATOM     28  F   UNL     1      46.973   2.518  17.542  0.00  0.00    +0.000 F 
ATOM     29  C   UNL     1      47.883   4.621  16.967  0.00  0.00    +0.000 A 
ENDBRANCH  21  23
ENDBRANCH   1  17
TORSDOF 4
ENDMDL
MODEL 5
REMARK VINA RESULT:    -6.604      4.128      8.330
REMARK INTER + INTRA:          -8.593
REMARK INTER:                  -7.487
REMARK INTRA:                  -1.107
REMARK UNBOUND:                -0.445
REMARK  Name = 
REMARK  4 active torsions:
REMARK  status: ('A' for Active; 'I' for Inactive)
REMARK    1  A    between atoms: C_2  and  C_4
REMARK    2  A    between atoms: N_8  and  C_9
REMARK    3  A    between atoms: C_9  and  C_10
REMARK    4  A    between atoms: C_14  and  C_15
REMARK                            x       y       z     vdW  Elec       q    Type
REMARK                         _______ _______ _______ _____ _____    ______ ____
ROOT
ATOM      1  C   UNL     1      49.410   8.124  16.915  0.00  0.00    +0.000 C 
ATOM      2  C   UNL     1      49.199   9.533  17.456  0.00  0.00    +0.000 C 
ATOM      3  C   UNL     1      48.172   8.481  17.713  0.00  0.00    +0.000 C 
ENDROOT
BRANCH   1   8
ATOM      4  C   UNL     1      51.297   3.318  17.564  0.00  0.00    +0.000 A 
ATOM      5  C   UNL     1      49.983   3.753  17.710  0.00  0.00    +0.000 A 
ATOM      6  C   UNL     1      49.703   5.121  17.648  0.00  0.00    +0.000 A 
ATOM      7  C   UNL     1      50.740   6.025  17.451  0.00  0.00    +0.000 A 
ATOM      8  N   UNL     1      50.564   7.414  17.498  0.00  0.00    +0.000 N 
ATOM      9  N   UNL     1      52.017   5.614  17.298  0.00  0.00    +0.000 NA
ATOM     10  C   UNL     1      52.272   4.281  17.362  0.00  0.00    +0.000 A 
ATOM     11  H   UNL     1      51.476   7.798  17.251  0.00  0.00    +0.000 HD
BRANCH   4  13
ATOM     12  N   UNL     1      52.776   1.608  18.461  0.00  0.00    +0.000 N 
ATOM     13  C   UNL     1      51.701   1.899  17.670  0.00  0.00    +0.000 C 
ATOM     14  O   UNL     1      51.087   1.015  17.089  0.00  0.00    +0.000 OA
ATOM     15  H   UNL     1      52.992   0.627  18.584  0.00  0.00    +0.000 HD
ATOM     16  H   UNL     1      53.155   2.258  19.135  0.00  0.00    +0.000 HD
ENDBRANCH   4  13
ENDBRANCH   1   8
BRANCH   1  17
ATOM     17  C   UNL     1      49.274   7.887  15.414  0.00  0.00    +0.000 A 
ATOM     18  C   UNL     1      50.268   8.292  14.510  0.00  0.00    +0.000 A 
ATOM     19  C   UNL     1      50.213   7.937  13.163  0.00  0.00    +0.000 A 
ATOM     20  C   UNL     1      49.168   7.141  12.696  0.00  0.00    +0.000 A 
ATOM     21  C   UNL     1      48.150   6.702  13.557  0.00  0.00    +0.000 A 
ATOM     22  C   UNL     1      48.206   7.124  14.900  0.00  0.00    +0.000 A 
BRANCH  21  23
ATOM     23  C   UNL     1      47.116   5.747  13.106  0.00  0.00    +0.000 A 
ATOM     24  C   UNL     1      46.882   4.527  13.744  0.00  0.00    +0.000 A 
ATOM     25  N   UNL     1      45.989   3.591  13.332  0.00  0.00    +0.000 NA
ATOM     26  C   UNL     1      45.277   3.886  12.218  0.00  0.00    +0.000 A 
ATOM     27  C   UNL     1      45.422   5.065  11.516  0.00  0.00    +0.000 A 
ATOM     28  F   UNL     1      44.693   5.303  10.418  0.00  0.00    +0.000 F 
ATOM     29  C   UNL     1      46.342   6.003  11.958  0.00  0.00    +0.000 A 
ENDBRANCH  21  23
ENDBRANCH   1  17
TORSDOF 4
ENDMDL
