MODEL 1
REMARK VINA RESULT:    -8.183      0.000      0.000
REMARK INTER + INTRA:         -13.040
REMARK INTER:                 -11.771
REMARK INTRA:                  -1.269
REMARK UNBOUND:                -1.269
REMARK  Name = 
REMARK  8 active torsions:
REMARK  status: ('A' for Active; 'I' for Inactive)
REMARK    1  A    between atoms: N_1  and  C_2
REMARK    2  A    between atoms: C_2  and  C_3
REMARK    3  A    between atoms: C_3  and  N_4
REMARK    4  A    between atoms: C_3  and  C_27
REMARK    5  A    between atoms: C_5  and  C_7
REMARK    6  A    between atoms: C_10  and  C_11
REMARK    7  A    between atoms: C_11  and  N_12
REMARK    8  A    between atoms: C_13  and  C_15
REMARK                            x       y       z     vdW  Elec       q    Type
REMARK                         _______ _______ _______ _____ _____    ______ ____
ROOT
ATOM      1  C   UNL     1      46.429   6.497  12.775  0.00  0.00    +0.000 A 
ATOM      2  C   UNL     1      46.647   7.807  13.141  0.00  0.00    +0.000 A 
ATOM      3  N   UNL     1      47.624   8.200  13.988  0.00  0.00    +0.000 NA
ATOM      4  C   UNL     1      48.412   7.229  14.494  0.00  0.00    +0.000 A 
ATOM      5  N   UNL     1      48.244   5.911  14.249  0.00  0.00    +0.000 NA
ATOM      6  C   UNL     1      47.245   5.576  13.390  0.00  0.00    +0.000 A 
ENDROOT
BRANCH   1   8
ATOM      7  N   UNL     1      45.353   4.756  11.495  0.00  0.00    +0.000 N 
ATOM      8  C   UNL     1      45.382   6.088  11.819  0.00  0.00    +0.000 C 
ATOM      9  O   UNL     1      44.608   6.925  11.359  0.00  0.00    +0.000 OA
ATOM     10  H   UNL     1      45.913   4.065  11.986  0.00  0.00    +0.000 HD
BRANCH   7  11
ATOM     11  C   UNL     1      44.381   4.176  10.573  0.00  0.00    +0.000 C 
BRANCH  11  12
ATOM     12  C   UNL     1      45.124   3.515   9.413  0.00  0.00    +0.000 A 
ATOM     13  C   UNL     1      45.645   4.298   8.384  0.00  0.00    +0.000 A 
ATOM     14  C   UNL     1      46.295   3.671   7.326  0.00  0.00    +0.000 A 
ATOM     15  C   UNL     1      46.410   2.286   7.321  0.00  0.00    +0.000 A 
ATOM     16  C   UNL     1      45.864   1.578   8.378  0.00  0.00    +0.000 A 
ATOM     17  N   UNL     1      45.223   2.155   9.419  0.00  0.00    +0.000 NA
ENDBRANCH  11  12
BRANCH  11  18
ATOM     18  C   UNL     1      43.470   3.123  11.259  0.00  0.00    +0.000 C 
BRANCH  18  19
ATOM     19  N   UNL     1      44.023   2.535  12.485  0.00  0.00    +0.000 NA
ATOM     20  H   UNL     1      45.002   2.796  12.588  0.00  0.00    +0.000 HD
ATOM     21  H   UNL     1      43.983   1.514  12.434  0.00  0.00    +0.000 HD
ENDBRANCH  18  19
ENDBRANCH  11  18
ENDBRANCH   7  11
ENDBRANCH   1   8
BRANCH   4  22
ATOM     22  C   UNL     1      49.568   7.669  15.368  0.00  0.00    +0.000 C 
BRANCH  22  23
ATOM     23  N   UNL     1      50.287   6.578  15.996  0.00  0.00    +0.000 N 
ATOM     24  C   UNL     1      50.060   6.281  17.316  0.00  0.00    +0.000 C 
ATOM     25  O   UNL     1      49.249   6.919  17.985  0.00  0.00    +0.000 OA
ATOM     26  H   UNL     1      50.740   5.901  15.388  0.00  0.00    +0.000 HD
BRANCH  24  27
ATOM     27  C   UNL     1      50.890   5.233  17.923  0.00  0.00    +0.000 A 
ATOM     28  C   UNL     1      51.919   5.577  18.791  0.00  0.00    +0.000 A 
ATOM     29  S   UNL     1      52.975   4.280  19.133  0.00  0.00    +0.000 S 
ATOM     30  C   UNL     1      52.046   3.210  18.192  0.00  0.00    +0.000 A 
ATOM     31  N   UNL     1      52.451   1.933  17.958  0.00  0.00    +0.000 NA
ATOM     32  C   UNL     1      51.612   1.227  17.276  0.00  0.00    +0.000 A 
ATOM     33  N   UNL     1      50.384   1.665  16.849  0.00  0.00    +0.000 N 
ATOM     34  C   UNL     1      49.926   2.938  17.084  0.00  0.00    +0.000 A 
ATOM     35  O   UNL     1      48.788   3.281  16.783  0.00  0.00    +0.000 OA
ATOM     36  C   UNL     1      50.884   3.807  17.736  0.00  0.00    +0.000 A 
ATOM     37  H   UNL     1      49.740   1.037  16.391  0.00  0.00    +0.000 HD
ENDBRANCH  24  27
ENDBRANCH  22  23
ENDBRANCH   4  22
TORSDOF 8
ENDMDL
MODEL 2
REMARK VINA RESULT:    -7.929      2.237      2.594
REMARK INTER + INTRA:         -12.674
REMARK INTER:                 -11.637
REMARK INTRA:                  -1.037
REMARK UNBOUND:                -1.269
REMARK  Name = 
REMARK  8 active torsions:
REMARK  status: ('A' for Active; 'I' for Inactive)
REMARK    1  A    between atoms: N_1  and  C_2
REMARK    2  A    between atoms: C_2  and  C_3
REMARK    3  A    between atoms: C_3  and  N_4
REMARK    4  A    between atoms: C_3  and  C_27
REMARK    5  A    between atoms: C_5  and  C_7
REMARK    6  A    between atoms: C_10  and  C_11
REMARK    7  A    between atoms: C_11  and  N_12
REMARK    8  A    between atoms: C_13  and  C_15
REMARK                            x       y       z     vdW  Elec       q    Type
REMARK                         _______ _______ _______ _____ _____    ______ ____
ROOT
ATOM      1  C   UNL     1      45.436   6.274  11.488  0.00  0.00    +0.000 A 
ATOM      2  C   UNL     1      46.808   6.330  11.386  0.00  0.00    +0.000 A 
ATOM      3  N   UNL     1      47.584   7.170  12.106  0.00  0.00    +0.000 NA
ATOM      4  C   UNL     1      46.948   7.995  12.963  0.00  0.00    +0.000 A 
ATOM      5  N   UNL     1      45.604   8.063  13.094  0.00  0.00    +0.000 NA
ATOM      6  C   UNL     1      44.876   7.195  12.344  0.00  0.00    +0.000 A 
ENDROOT
BRANCH   1   8
ATOM      7  N   UNL     1      45.273   4.270  10.151  0.00  0.00    +0.000 N 
ATOM      8  C   UNL     1      44.606   5.323  10.723  0.00  0.00    +0.000 C 
ATOM      9  O   UNL     1      43.394   5.506  10.625  0.00  0.00    +0.000 OA
ATOM     10  H   UNL     1      46.247   4.069  10.356  0.00  0.00    +0.000 HD
BRANCH   7  11
ATOM     11  C   UNL     1      44.611   3.232   9.367  0.00  0.00    +0.000 C 
BRANCH  11  12
ATOM     12  C   UNL     1      45.587   2.693   8.322  0.00  0.00    +0.000 A 
ATOM     13  C   UNL     1      45.974   3.498   7.252  0.00  0.00    +0.000 A 
ATOM     14  C   UNL     1      46.844   2.975   6.300  0.00  0.00    +0.000 A 
ATOM     15  C   UNL     1      47.305   1.672   6.439  0.00  0.00    +0.000 A 
ATOM     16  C   UNL     1      46.873   0.936   7.530  0.00  0.00    +0.000 A 
ATOM     17  N   UNL     1      46.025   1.411   8.470  0.00  0.00    +0.000 NA
ENDBRANCH  11  12
BRANCH  11  18
ATOM     18  C   UNL     1      44.108   2.057  10.247  0.00  0.00    +0.000 C 
BRANCH  18  19
ATOM     19  N   UNL     1      43.240   2.450  11.363  0.00  0.00    +0.000 NA
ATOM     20  H   UNL     1      42.872   3.387  11.207  0.00  0.00    +0.000 HD
ATOM     21  H   UNL     1      43.776   2.473  12.233  0.00  0.00    +0.000 HD
ENDBRANCH  18  19
ENDBRANCH  11  18
ENDBRANCH   7  11
ENDBRANCH   1   8
BRANCH   4  22
ATOM     22  C   UNL     1      47.814   8.873  13.841  0.00  0.00    +0.000 C 
BRANCH  22  23
ATOM     23  N   UNL     1      47.959   8.394  15.202  0.00  0.00    +0.000 N 
ATOM     24  C   UNL     1      48.931   7.472  15.501  0.00  0.00    +0.000 C 
ATOM     25  O   UNL     1      49.694   7.045  14.637  0.00  0.00    +0.000 OA
ATOM     26  H   UNL     1      47.520   8.936  15.941  0.00  0.00    +0.000 HD
BRANCH  24  27
ATOM     27  C   UNL     1      48.964   6.949  16.872  0.00  0.00    +0.000 A 
ATOM     28  C   UNL     1      49.480   7.727  17.901  0.00  0.00    +0.000 A 
ATOM     29  S   UNL     1      49.745   6.852  19.342  0.00  0.00    +0.000 S 
ATOM     30  C   UNL     1      49.111   5.431  18.654  0.00  0.00    +0.000 A 
ATOM     31  N   UNL     1      49.140   4.245  19.318  0.00  0.00    +0.000 NA
ATOM     32  C   UNL     1      48.568   3.271  18.691  0.00  0.00    +0.000 A 
ATOM     33  N   UNL     1      47.927   3.386  17.484  0.00  0.00    +0.000 N 
ATOM     34  C   UNL     1      47.855   4.569  16.790  0.00  0.00    +0.000 A 
ATOM     35  O   UNL     1      47.193   4.676  15.763  0.00  0.00    +0.000 OA
ATOM     36  C   UNL     1      48.590   5.662  17.394  0.00  0.00    +0.000 A 
ATOM     37  H   UNL     1      47.429   2.605  17.085  0.00  0.00    +0.000 HD
ENDBRANCH  24  27
ENDBRANCH  22  23
ENDBRANCH   4  22
TORSDOF 8
ENDMDL
MODEL 3
REMARK VINA RESULT:    -7.876      1.994      2.845
REMARK INTER + INTRA:         -12.599
REMARK INTER:                 -11.594
REMARK INTRA:                  -1.005
REMARK UNBOUND:                -1.269
REMARK  Name = 
REMARK  8 active torsions:
REMARK  status: ('A' for Active; 'I' for Inactive)
REMARK    1  A    between atoms: N_1  and  C_2
REMARK    2  A    between atoms: C_2  and  C_3
REMARK    3  A    between atoms: C_3  and  N_4
REMARK    4  A    between atoms: C_3  and  C_27
REMARK    5  A    between atoms: C_5  and  C_7
REMARK    6  A    between atoms: C_10  and  C_11
REMARK    7  A    between atoms: C_11  and  N_12
REMARK    8  A    between atoms: C_13  and  C_15
REMARK                            x       y       z     vdW  Elec       q    Type
REMARK                         _______ _______ _______ _____ _____    ______ ____
ROOT
ATOM      1  C   UNL     1      47.114   5.112  13.818  0.00  0.00    +0.000 A 
ATOM      2  C   UNL     1      46.994   3.794  14.200  0.00  0.00    +0.000 A 
ATOM      3  N   UNL     1      47.512   3.291  15.342  0.00  0.00    +0.000 NA
ATOM      4  C   UNL     1      48.187   4.153  16.131  0.00  0.00    +0.000 A 
ATOM      5  N   UNL     1      48.414   5.448  15.819  0.00  0.00    +0.000 NA
ATOM      6  C   UNL     1      47.870   5.897  14.658  0.00  0.00    +0.000 A 
ENDROOT
BRANCH   1   8
ATOM      7  N   UNL     1      45.515   4.897  12.022  0.00  0.00    +0.000 N 
ATOM      8  C   UNL     1      46.509   5.655  12.586  0.00  0.00    +0.000 C 
ATOM      9  O   UNL     1      46.906   6.723  12.125  0.00  0.00    +0.000 OA
ATOM     10  H   UNL     1      45.115   4.090  12.491  0.00  0.00    +0.000 HD
BRANCH   7  11
ATOM     11  C   UNL     1      44.803   5.284  10.808  0.00  0.00    +0.000 C 
BRANCH  11  12
ATOM     12  C   UNL     1      45.188   4.333   9.676  0.00  0.00    +0.000 A 
ATOM     13  C   UNL     1      44.909   2.972   9.785  0.00  0.00    +0.000 A 
ATOM     14  C   UNL     1      45.293   2.123   8.752  0.00  0.00    +0.000 A 
ATOM     15  C   UNL     1      45.940   2.650   7.640  0.00  0.00    +0.000 A 
ATOM     16  C   UNL     1      46.181   4.013   7.607  0.00  0.00    +0.000 A 
ATOM     17  N   UNL     1      45.827   4.864   8.595  0.00  0.00    +0.000 NA
ENDBRANCH  11  12
BRANCH  11  18
ATOM     18  C   UNL     1      43.262   5.256  10.993  0.00  0.00    +0.000 C 
BRANCH  18  19
ATOM     19  N   UNL     1      42.623   6.577  11.046  0.00  0.00    +0.000 NA
ATOM     20  H   UNL     1      42.908   7.136  10.243  0.00  0.00    +0.000 HD
ATOM     21  H   UNL     1      42.921   7.077  11.887  0.00  0.00    +0.000 HD
ENDBRANCH  18  19
ENDBRANCH  11  18
ENDBRANCH   7  11
ENDBRANCH   1   8
BRANCH   4  22
ATOM     22  C   UNL     1      48.689   3.620  17.457  0.00  0.00    +0.000 C 
BRANCH  22  23
ATOM     23  N   UNL     1      50.086   3.232  17.451  0.00  0.00    +0.000 N 
ATOM     24  C   UNL     1      50.965   3.831  18.317  0.00  0.00    +0.000 C 
ATOM     25  O   UNL     1      50.593   4.691  19.112  0.00  0.00    +0.000 OA
ATOM     26  H   UNL     1      50.328   2.355  16.997  0.00  0.00    +0.000 HD
BRANCH  24  27
ATOM     27  C   UNL     1      52.383   3.469  18.195  0.00  0.00    +0.000 A 
ATOM     28  C   UNL     1      53.365   4.426  18.415  0.00  0.00    +0.000 A 
ATOM     29  S   UNL     1      54.918   3.928  17.911  0.00  0.00    +0.000 S 
ATOM     30  C   UNL     1      54.333   2.398  17.453  0.00  0.00    +0.000 A 
ATOM     31  N   UNL     1      55.129   1.490  16.827  0.00  0.00    +0.000 NA
ATOM     32  C   UNL     1      54.558   0.354  16.596  0.00  0.00    +0.000 A 
ATOM     33  N   UNL     1      53.282   0.026  16.979  0.00  0.00    +0.000 N 
ATOM     34  C   UNL     1      52.453   0.904  17.633  0.00  0.00    +0.000 A 
ATOM     35  O   UNL     1      51.354   0.562  18.056  0.00  0.00    +0.000 OA
ATOM     36  C   UNL     1      53.004   2.233  17.803  0.00  0.00    +0.000 A 
ATOM     37  H   UNL     1      52.924  -0.907  16.841  0.00  0.00    +0.000 HD
ENDBRANCH  24  27
ENDBRANCH  22  23
ENDBRANCH   4  22
TORSDOF 8
ENDMDL
MODEL 4
REMARK VINA RESULT:    -7.234      2.139      2.182
REMARK INTER + INTRA:         -11.675
REMARK INTER:                 -10.260
REMARK INTRA:                  -1.415
REMARK UNBOUND:                -1.269
REMARK  Name = 
REMARK  8 active torsions:
REMARK  status: ('A' for Active; 'I' for Inactive)
REMARK    1  A    between atoms: N_1  and  C_2
REMARK    2  A    between atoms: C_2  and  C_3
REMARK    3  A    between atoms: C_3  and  N_4
REMARK    4  A    between atoms: C_3  and  C_27
REMARK    5  A    between atoms: C_5  and  C_7
REMARK    6  A    between atoms: C_10  and  C_11
REMARK    7  A    between atoms: C_11  and  N_12
REMARK    8  A    between atoms: C_13  and  C_15
REMARK                            x       y       z     vdW  Elec       q    Type
REMARK                         _______ _______ _______ _____ _____    ______ ____
ROOT
ATOM      1  C   UNL     1      46.417   6.749  12.589  0.00  0.00    +0.000 A 
ATOM      2  C   UNL     1      46.426   8.012  13.141  0.00  0.00    +0.000 A 
ATOM      3  N   UNL     1      47.439   8.498  13.893  0.00  0.00    +0.000 NA
ATOM      4  C   UNL     1      48.485   7.673  14.104  0.00  0.00    +0.000 A 
ATOM      5  N   UNL     1      48.547   6.398  13.661  0.00  0.00    +0.000 NA
ATOM      6  C   UNL     1      47.500   5.964  12.911  0.00  0.00    +0.000 A 
ENDROOT
BRANCH   1   8
ATOM      7  N   UNL     1      45.371   4.914  11.421  0.00  0.00    +0.000 N 
ATOM      8  C   UNL     1      45.321   6.247  11.739  0.00  0.00    +0.000 C 
ATOM      9  O   UNL     1      44.440   7.014  11.355  0.00  0.00    +0.000 OA
ATOM     10  H   UNL     1      46.031   4.276  11.856  0.00  0.00    +0.000 HD
BRANCH   7  11
ATOM     11  C   UNL     1      44.368   4.247  10.597  0.00  0.00    +0.000 C 
BRANCH  11  12
ATOM     12  C   UNL     1      45.062   3.544   9.432  0.00  0.00    +0.000 A 
ATOM     13  C   UNL     1      45.563   4.291   8.367  0.00  0.00    +0.000 A 
ATOM     14  C   UNL     1      46.168   3.626   7.306  0.00  0.00    +0.000 A 
ATOM     15  C   UNL     1      46.261   2.239   7.333  0.00  0.00    +0.000 A 
ATOM     16  C   UNL     1      45.738   1.569   8.426  0.00  0.00    +0.000 A 
ATOM     17  N   UNL     1      45.139   2.184   9.470  0.00  0.00    +0.000 NA
ENDBRANCH  11  12
BRANCH  11  18
ATOM     18  C   UNL     1      43.541   3.207  11.398  0.00  0.00    +0.000 C 
BRANCH  18  19
ATOM     19  N   UNL     1      44.272   2.542  12.483  0.00  0.00    +0.000 NA
ATOM     20  H   UNL     1      45.201   2.272  12.165  0.00  0.00    +0.000 HD
ATOM     21  H   UNL     1      43.785   1.687  12.762  0.00  0.00    +0.000 HD
ENDBRANCH  18  19
ENDBRANCH  11  18
ENDBRANCH   7  11
ENDBRANCH   1   8
BRANCH   4  22
ATOM     22  C   UNL     1      49.665   8.242  14.865  0.00  0.00    +0.000 C 
BRANCH  22  23
ATOM     23  N   UNL     1      49.619   8.006  16.294  0.00  0.00    +0.000 N 
ATOM     24  C   UNL     1      50.648   7.339  16.909  0.00  0.00    +0.000 C 
ATOM     25  O   UNL     1      51.620   6.938  16.274  0.00  0.00    +0.000 OA
ATOM     26  H   UNL     1      48.966   8.560  16.842  0.00  0.00    +0.000 HD
BRANCH  24  27
ATOM     27  C   UNL     1      50.499   7.041  18.339  0.00  0.00    +0.000 A 
ATOM     28  C   UNL     1      51.325   7.660  19.268  0.00  0.00    +0.000 A 
ATOM     29  S   UNL     1      51.240   6.958  20.822  0.00  0.00    +0.000 S 
ATOM     30  C   UNL     1      50.046   5.859  20.314  0.00  0.00    +0.000 A 
ATOM     31  N   UNL     1      49.591   4.873  21.133  0.00  0.00    +0.000 NA
ATOM     32  C   UNL     1      48.644   4.156  20.626  0.00  0.00    +0.000 A 
ATOM     33  N   UNL     1      48.075   4.366  19.395  0.00  0.00    +0.000 N 
ATOM     34  C   UNL     1      48.487   5.364  18.546  0.00  0.00    +0.000 A 
ATOM     35  O   UNL     1      47.902   5.600  17.495  0.00  0.00    +0.000 OA
ATOM     36  C   UNL     1      49.632   6.115  19.018  0.00  0.00    +0.000 A 
ATOM     37  H   UNL     1      47.283   3.822  19.091  0.00  0.00    +0.000 HD
ENDBRANCH  24  27
ENDBRANCH  22  23
ENDBRANCH   4  22
TORSDOF 8
ENDMDL
MODEL 5
REMARK VINA RESULT:    -7.037      2.138      3.327
REMARK INTER + INTRA:         -11.392
REMARK INTER:                 -10.178
REMARK INTRA:                  -1.214
REMARK UNBOUND:                -1.269
REMARK  Name = 
REMARK  8 active torsions:
REMARK  status: ('A' for Active; 'I' for Inactive)
REMARK    1  A    between atoms: N_1  and  C_2
REMARK    2  A    between atoms: C_2  and  C_3
REMARK    3  A    between atoms: C_3  and  N_4
REMARK    4  A    between atoms: C_3  and  C_27
REMARK    5  A    between atoms: C_5  and  C_7
REMARK    6  A    between atoms: C_10  and  C_11
REMARK    7  A    between atoms: C_11  and  N_12
REMARK    8  A    between atoms: C_13  and  C_15
REMARK                            x       y       z     vdW  Elec       q    Type
REMARK                         _______ _______ _______ _____ _____    ______ ____
ROOT
ATOM      1  C   UNL     1      47.085   5.074  13.803  0.00  0.00    +0.000 A 
ATOM      2  C   UNL     1      47.006   3.745  14.157  0.00  0.00    +0.000 A 
ATOM      3  N   UNL     1      47.482   3.246  15.319  0.00  0.00    +0.000 NA
ATOM      4  C   UNL     1      48.069   4.123  16.159  0.00  0.00    +0.000 A 
ATOM      5  N   UNL     1      48.252   5.433  15.881  0.00  0.00    +0.000 NA
ATOM      6  C   UNL     1      47.754   5.878  14.697  0.00  0.00    +0.000 A 
ENDROOT
BRANCH   1   8
ATOM      7  N   UNL     1      45.479   4.907  12.007  0.00  0.00    +0.000 N 
ATOM      8  C   UNL     1      46.526   5.611  12.547  0.00  0.00    +0.000 C 
ATOM      9  O   UNL     1      47.003   6.627  12.047  0.00  0.00    +0.000 OA
ATOM     10  H   UNL     1      45.018   4.152  12.505  0.00  0.00    +0.000 HD
BRANCH   7  11
ATOM     11  C   UNL     1      44.801   5.298  10.775  0.00  0.00    +0.000 C 
BRANCH  11  12
ATOM     12  C   UNL     1      45.221   4.352   9.651  0.00  0.00    +0.000 A 
ATOM     13  C   UNL     1      44.948   2.989   9.751  0.00  0.00    +0.000 A 
ATOM     14  C   UNL     1      45.363   2.145   8.725  0.00  0.00    +0.000 A 
ATOM     15  C   UNL     1      46.034   2.678   7.631  0.00  0.00    +0.000 A 
ATOM     16  C   UNL     1      46.268   4.042   7.607  0.00  0.00    +0.000 A 
ATOM     17  N   UNL     1      45.883   4.890   8.587  0.00  0.00    +0.000 NA
ENDBRANCH  11  12
BRANCH  11  18
ATOM     18  C   UNL     1      43.256   5.267  10.915  0.00  0.00    +0.000 C 
BRANCH  18  19
ATOM     19  N   UNL     1      42.625   6.582  11.077  0.00  0.00    +0.000 NA
ATOM     20  H   UNL     1      42.127   6.839  10.226  0.00  0.00    +0.000 HD
ATOM     21  H   UNL     1      43.339   7.296  11.240  0.00  0.00    +0.000 HD
ENDBRANCH  18  19
ENDBRANCH  11  18
ENDBRANCH   7  11
ENDBRANCH   1   8
BRANCH   4  22
ATOM     22  C   UNL     1      48.520   3.590  17.503  0.00  0.00    +0.000 C 
BRANCH  22  23
ATOM     23  N   UNL     1      49.901   3.888  17.827  0.00  0.00    +0.000 N 
ATOM     24  C   UNL     1      50.194   4.671  18.915  0.00  0.00    +0.000 C 
ATOM     25  O   UNL     1      49.306   5.124  19.633  0.00  0.00    +0.000 OA
ATOM     26  H   UNL     1      50.620   3.306  17.405  0.00  0.00    +0.000 HD
BRANCH  24  27
ATOM     27  C   UNL     1      51.603   5.021  19.134  0.00  0.00    +0.000 A 
ATOM     28  C   UNL     1      52.256   4.589  20.281  0.00  0.00    +0.000 A 
ATOM     29  S   UNL     1      53.761   5.355  20.530  0.00  0.00    +0.000 S 
ATOM     30  C   UNL     1      53.613   6.227  19.077  0.00  0.00    +0.000 A 
ATOM     31  N   UNL     1      54.521   7.176  18.721  0.00  0.00    +0.000 NA
ATOM     32  C   UNL     1      54.305   7.709  17.565  0.00  0.00    +0.000 A 
ATOM     33  N   UNL     1      53.295   7.345  16.711  0.00  0.00    +0.000 N 
ATOM     34  C   UNL     1      52.372   6.377  17.020  0.00  0.00    +0.000 A 
ATOM     35  O   UNL     1      51.538   5.996  16.206  0.00  0.00    +0.000 OA
ATOM     36  C   UNL     1      52.497   5.839  18.359  0.00  0.00    +0.000 A 
ATOM     37  H   UNL     1      53.230   7.744  15.786  0.00  0.00    +0.000 HD
ENDBRANCH  24  27
ENDBRANCH  22  23
ENDBRANCH   4  22
TORSDOF 8
ENDMDL
MODEL 6
REMARK VINA RESULT:    -6.446      2.800      9.573
REMARK INTER + INTRA:         -10.542
REMARK INTER:                  -9.367
REMARK INTRA:                  -1.174
REMARK UNBOUND:                -1.269
REMARK  Name = 
REMARK  8 active torsions:
REMARK  status: ('A' for Active; 'I' for Inactive)
REMARK    1  A    between atoms: N_1  and  C_2
REMARK    2  A    between atoms: C_2  and  C_3
REMARK    3  A    between atoms: C_3  and  N_4
REMARK    4  A    between atoms: C_3  and  C_27
REMARK    5  A    between atoms: C_5  and  C_7
REMARK    6  A    between atoms: C_10  and  C_11
REMARK    7  A    between atoms: C_11  and  N_12
REMARK    8  A    between atoms: C_13  and  C_15
REMARK                            x       y       z     vdW  Elec       q    Type
REMARK                         _______ _______ _______ _____ _____    ______ ____
ROOT
ATOM      1  C   UNL     1      49.582   5.461  16.950  0.00  0.00    +0.000 A 
ATOM      2  C   UNL     1      48.391   4.964  16.467  0.00  0.00    +0.000 A 
ATOM      3  N   UNL     1      47.806   5.387  15.325  0.00  0.00    +0.000 NA
ATOM      4  C   UNL     1      48.446   6.358  14.641  0.00  0.00    +0.000 A 
ATOM      5  N   UNL     1      49.584   6.955  15.058  0.00  0.00    +0.000 NA
ATOM      6  C   UNL     1      50.126   6.489  16.214  0.00  0.00    +0.000 A 
ENDROOT
BRANCH   1   8
ATOM      7  N   UNL     1      51.526   4.539  18.045  0.00  0.00    +0.000 N 
ATOM      8  C   UNL     1      50.228   4.962  18.179  0.00  0.00    +0.000 C 
ATOM      9  O   UNL     1      49.601   4.938  19.236  0.00  0.00    +0.000 OA
ATOM     10  H   UNL     1      52.062   4.692  17.197  0.00  0.00    +0.000 HD
BRANCH   7  11
ATOM     11  C   UNL     1      52.319   4.023  19.157  0.00  0.00    +0.000 C 
BRANCH  11  12
ATOM     12  C   UNL     1      52.960   2.700  18.743  0.00  0.00    +0.000 A 
ATOM     13  C   UNL     1      52.349   1.903  17.776  0.00  0.00    +0.000 A 
ATOM     14  C   UNL     1      52.939   0.690  17.435  0.00  0.00    +0.000 A 
ATOM     15  C   UNL     1      54.118   0.304  18.061  0.00  0.00    +0.000 A 
ATOM     16  C   UNL     1      54.663   1.151  19.012  0.00  0.00    +0.000 A 
ATOM     17  N   UNL     1      54.113   2.333  19.371  0.00  0.00    +0.000 NA
ENDBRANCH  11  12
BRANCH  11  18
ATOM     18  C   UNL     1      53.432   5.011  19.597  0.00  0.00    +0.000 C 
BRANCH  18  19
ATOM     19  N   UNL     1      54.352   5.419  18.529  0.00  0.00    +0.000 NA
ATOM     20  H   UNL     1      55.309   5.168  18.776  0.00  0.00    +0.000 HD
ATOM     21  H   UNL     1      54.325   6.434  18.411  0.00  0.00    +0.000 HD
ENDBRANCH  18  19
ENDBRANCH  11  18
ENDBRANCH   7  11
ENDBRANCH   1   8
BRANCH   4  22
ATOM     22  C   UNL     1      47.847   6.771  13.313  0.00  0.00    +0.000 C 
BRANCH  22  23
ATOM     23  N   UNL     1      47.037   5.747  12.682  0.00  0.00    +0.000 N 
ATOM     24  C   UNL     1      45.736   6.021  12.340  0.00  0.00    +0.000 C 
ATOM     25  O   UNL     1      45.239   7.124  12.551  0.00  0.00    +0.000 OA
ATOM     26  H   UNL     1      47.518   4.950  12.275  0.00  0.00    +0.000 HD
BRANCH  24  27
ATOM     27  C   UNL     1      44.936   4.916  11.799  0.00  0.00    +0.000 A 
ATOM     28  C   UNL     1      44.023   4.255  12.611  0.00  0.00    +0.000 A 
ATOM     29  S   UNL     1      43.433   2.807  11.926  0.00  0.00    +0.000 S 
ATOM     30  C   UNL     1      44.325   3.061  10.500  0.00  0.00    +0.000 A 
ATOM     31  N   UNL     1      44.368   2.126   9.512  0.00  0.00    +0.000 NA
ATOM     32  C   UNL     1      45.037   2.488   8.469  0.00  0.00    +0.000 A 
ATOM     33  N   UNL     1      45.624   3.717   8.302  0.00  0.00    +0.000 N 
ATOM     34  C   UNL     1      45.585   4.696   9.263  0.00  0.00    +0.000 A 
ATOM     35  O   UNL     1      46.029   5.821   9.057  0.00  0.00    +0.000 OA
ATOM     36  C   UNL     1      44.954   4.293  10.502  0.00  0.00    +0.000 A 
ATOM     37  H   UNL     1      46.063   3.966   7.428  0.00  0.00    +0.000 HD
ENDBRANCH  24  27
ENDBRANCH  22  23
ENDBRANCH   4  22
TORSDOF 8
ENDMDL
MODEL 7
REMARK VINA RESULT:    -6.311      3.015      9.214
REMARK INTER + INTRA:         -10.348
REMARK INTER:                  -9.139
REMARK INTRA:                  -1.209
REMARK UNBOUND:                -1.269
REMARK  Name = 
REMARK  8 active torsions:
REMARK  status: ('A' for Active; 'I' for Inactive)
REMARK    1  A    between atoms: N_1  and  C_2
REMARK    2  A    between atoms: C_2  and  C_3
REMARK    3  A    between atoms: C_3  and  N_4
REMARK    4  A    between atoms: C_3  and  C_27
REMARK    5  A    between atoms: C_5  and  C_7
REMARK    6  A    between atoms: C_10  and  C_11
REMARK    7  A    between atoms: C_11  and  N_12
REMARK    8  A    between atoms: C_13  and  C_15
REMARK                            x       y       z     vdW  Elec       q    Type
REMARK                         _______ _______ _______ _____ _____    ______ ____
ROOT
ATOM      1  C   UNL     1      50.057   6.174  16.617  0.00  0.00    +0.000 A 
ATOM      2  C   UNL     1      48.863   5.741  16.082  0.00  0.00    +0.000 A 
ATOM      3  N   UNL     1      48.303   6.265  14.969  0.00  0.00    +0.000 NA
ATOM      4  C   UNL     1      48.971   7.274  14.373  0.00  0.00    +0.000 A 
ATOM      5  N   UNL     1      50.114   7.813  14.851  0.00  0.00    +0.000 NA
ATOM      6  C   UNL     1      50.630   7.246  15.973  0.00  0.00    +0.000 A 
ENDROOT
BRANCH   1   8
ATOM      7  N   UNL     1      51.976   5.156  17.670  0.00  0.00    +0.000 N 
ATOM      8  C   UNL     1      50.675   5.566  17.811  0.00  0.00    +0.000 C 
ATOM      9  O   UNL     1      50.025   5.447  18.848  0.00  0.00    +0.000 OA
ATOM     10  H   UNL     1      52.531   5.384  16.851  0.00  0.00    +0.000 HD
BRANCH   7  11
ATOM     11  C   UNL     1      52.745   4.541  18.748  0.00  0.00    +0.000 C 
BRANCH  11  12
ATOM     12  C   UNL     1      52.949   3.060  18.436  0.00  0.00    +0.000 A 
ATOM     13  C   UNL     1      51.951   2.344  17.777  0.00  0.00    +0.000 A 
ATOM     14  C   UNL     1      52.150   0.990  17.528  0.00  0.00    +0.000 A 
ATOM     15  C   UNL     1      53.333   0.386  17.938  0.00  0.00    +0.000 A 
ATOM     16  C   UNL     1      54.275   1.166  18.588  0.00  0.00    +0.000 A 
ATOM     17  N   UNL     1      54.112   2.481  18.851  0.00  0.00    +0.000 NA
ENDBRANCH  11  12
BRANCH  11  18
ATOM     18  C   UNL     1      54.129   5.215  18.945  0.00  0.00    +0.000 C 
BRANCH  18  19
ATOM     19  N   UNL     1      54.972   5.253  17.744  0.00  0.00    +0.000 NA
ATOM     20  H   UNL     1      54.518   4.753  16.981  0.00  0.00    +0.000 HD
ATOM     21  H   UNL     1      55.864   4.786  17.926  0.00  0.00    +0.000 HD
ENDBRANCH  18  19
ENDBRANCH  11  18
ENDBRANCH   7  11
ENDBRANCH   1   8
BRANCH   4  22
ATOM     22  C   UNL     1      48.400   7.803  13.074  0.00  0.00    +0.000 C 
BRANCH  22  23
ATOM     23  N   UNL     1      47.805   6.787  12.229  0.00  0.00    +0.000 N 
ATOM     24  C   UNL     1      46.460   6.823  11.961  0.00  0.00    +0.000 C 
ATOM     25  O   UNL     1      45.741   7.708  12.417  0.00  0.00    +0.000 OA
ATOM     26  H   UNL     1      48.430   6.232  11.650  0.00  0.00    +0.000 HD
BRANCH  24  27
ATOM     27  C   UNL     1      45.899   5.711  11.183  0.00  0.00    +0.000 A 
ATOM     28  C   UNL     1      45.988   5.718   9.797  0.00  0.00    +0.000 A 
ATOM     29  S   UNL     1      45.006   4.538   9.050  0.00  0.00    +0.000 S 
ATOM     30  C   UNL     1      44.492   3.941  10.558  0.00  0.00    +0.000 A 
ATOM     31  N   UNL     1      43.537   2.978  10.654  0.00  0.00    +0.000 NA
ATOM     32  C   UNL     1      43.297   2.587  11.861  0.00  0.00    +0.000 A 
ATOM     33  N   UNL     1      43.959   3.035  12.976  0.00  0.00    +0.000 N 
ATOM     34  C   UNL     1      44.944   3.990  12.922  0.00  0.00    +0.000 A 
ATOM     35  O   UNL     1      45.593   4.305  13.914  0.00  0.00    +0.000 OA
ATOM     36  C   UNL     1      45.162   4.550  11.605  0.00  0.00    +0.000 A 
ATOM     37  H   UNL     1      43.780   2.630  13.882  0.00  0.00    +0.000 HD
ENDBRANCH  24  27
ENDBRANCH  22  23
ENDBRANCH   4  22
TORSDOF 8
ENDMDL
MODEL 8
REMARK VINA RESULT:    -6.241      3.715      9.803
REMARK INTER + INTRA:         -10.247
REMARK INTER:                  -9.341
REMARK INTRA:                  -0.906
REMARK UNBOUND:                -1.269
REMARK  Name = 
REMARK  8 active torsions:
REMARK  status: ('A' for Active; 'I' for Inactive)
REMARK    1  A    between atoms: N_1  and  C_2
REMARK    2  A    between atoms: C_2  and  C_3
REMARK    3  A    between atoms: C_3  and  N_4
REMARK    4  A    between atoms: C_3  and  C_27
REMARK    5  A    between atoms: C_5  and  C_7
REMARK    6  A    between atoms: C_10  and  C_11
REMARK    7  A    between atoms: C_11  and  N_12
REMARK    8  A    between atoms: C_13  and  C_15
REMARK                            x       y       z     vdW  Elec       q    Type
REMARK                         _______ _______ _______ _____ _____    ______ ____
ROOT
ATOM      1  C   UNL     1      47.517   5.809  14.324  0.00  0.00    +0.000 A 
ATOM      2  C   UNL     1      47.234   4.502  14.656  0.00  0.00    +0.000 A 
ATOM      3  N   UNL     1      46.304   3.750  14.028  0.00  0.00    +0.000 NA
ATOM      4  C   UNL     1      45.624   4.343  13.025  0.00  0.00    +0.000 A 
ATOM      5  N   UNL     1      45.781   5.635  12.662  0.00  0.00    +0.000 NA
ATOM      6  C   UNL     1      46.730   6.342  13.329  0.00  0.00    +0.000 A 
ENDROOT
BRANCH   1   8
ATOM      7  N   UNL     1      48.329   6.919  16.309  0.00  0.00    +0.000 N 
ATOM      8  C   UNL     1      48.564   6.604  14.994  0.00  0.00    +0.000 C 
ATOM      9  O   UNL     1      49.567   6.949  14.373  0.00  0.00    +0.000 OA
ATOM     10  H   UNL     1      47.562   6.512  16.835  0.00  0.00    +0.000 HD
BRANCH   7  11
ATOM     11  C   UNL     1      49.259   7.692  17.127  0.00  0.00    +0.000 C 
BRANCH  11  12
ATOM     12  C   UNL     1      48.467   8.527  18.132  0.00  0.00    +0.000 A 
ATOM     13  C   UNL     1      48.099   9.833  17.814  0.00  0.00    +0.000 A 
ATOM     14  C   UNL     1      47.401  10.582  18.756  0.00  0.00    +0.000 A 
ATOM     15  C   UNL     1      47.087  10.012  19.984  0.00  0.00    +0.000 A 
ATOM     16  C   UNL     1      47.488   8.709  20.224  0.00  0.00    +0.000 A 
ATOM     17  N   UNL     1      48.172   7.956  19.334  0.00  0.00    +0.000 NA
ENDBRANCH  11  12
BRANCH  11  18
ATOM     18  C   UNL     1      50.261   6.789  17.894  0.00  0.00    +0.000 C 
BRANCH  18  19
ATOM     19  N   UNL     1      50.790   5.659  17.121  0.00  0.00    +0.000 NA
ATOM     20  H   UNL     1      51.397   5.087  17.707  0.00  0.00    +0.000 HD
ATOM     21  H   UNL     1      51.354   6.001  16.340  0.00  0.00    +0.000 HD
ENDBRANCH  18  19
ENDBRANCH  11  18
ENDBRANCH   7  11
ENDBRANCH   1   8
BRANCH   4  22
ATOM     22  C   UNL     1      44.647   3.480  12.253  0.00  0.00    +0.000 C 
BRANCH  22  23
ATOM     23  N   UNL     1      45.242   2.745  11.155  0.00  0.00    +0.000 N 
ATOM     24  C   UNL     1      44.847   3.003   9.867  0.00  0.00    +0.000 C 
ATOM     25  O   UNL     1      43.998   3.855   9.618  0.00  0.00    +0.000 OA
ATOM     26  H   UNL     1      46.112   2.250  11.336  0.00  0.00    +0.000 HD
BRANCH  24  27
ATOM     27  C   UNL     1      45.411   2.158   8.807  0.00  0.00    +0.000 A 
ATOM     28  C   UNL     1      45.082   0.810   8.744  0.00  0.00    +0.000 A 
ATOM     29  S   UNL     1      46.071  -0.078   7.673  0.00  0.00    +0.000 S 
ATOM     30  C   UNL     1      46.915   1.325   7.212  0.00  0.00    +0.000 A 
ATOM     31  N   UNL     1      47.995   1.267   6.386  0.00  0.00    +0.000 NA
ATOM     32  C   UNL     1      48.492   2.419   6.081  0.00  0.00    +0.000 A 
ATOM     33  N   UNL     1      47.979   3.625   6.485  0.00  0.00    +0.000 N 
ATOM     34  C   UNL     1      46.878   3.730   7.299  0.00  0.00    +0.000 A 
ATOM     35  O   UNL     1      46.375   4.816   7.568  0.00  0.00    +0.000 OA
ATOM     36  C   UNL     1      46.361   2.463   7.770  0.00  0.00    +0.000 A 
ATOM     37  H   UNL     1      48.366   4.493   6.144  0.00  0.00    +0.000 HD
ENDBRANCH  24  27
ENDBRANCH  22  23
ENDBRANCH   4  22
TORSDOF 8
ENDMDL
MODEL 9
REMARK VINA RESULT:    -6.233      2.309      3.451
REMARK INTER + INTRA:         -10.235
REMARK INTER:                  -9.832
REMARK INTRA:                  -0.403
REMARK UNBOUND:                -1.269
REMARK  Name = 
REMARK  8 active torsions:
REMARK  status: ('A' for Active; 'I' for Inactive)
REMARK    1  A    between atoms: N_1  and  C_2
REMARK    2  A    between atoms: C_2  and  C_3
REMARK    3  A    between atoms: C_3  and  N_4
REMARK    4  A    between atoms: C_3  and  C_27
REMARK    5  A    between atoms: C_5  and  C_7
REMARK    6  A    between atoms: C_10  and  C_11
REMARK    7  A    between atoms: C_11  and  N_12
REMARK    8  A    between atoms: C_13  and  C_15
REMARK                            x       y       z     vdW  Elec       q    Type
REMARK                         _______ _______ _______ _____ _____    ______ ____
ROOT
ATOM      1  C   UNL     1      47.318   5.549  14.259  0.00  0.00    +0.000 A 
ATOM      2  C   UNL     1      46.802   4.363  14.735  0.00  0.00    +0.000 A 
ATOM      3  N   UNL     1      47.173   3.797  15.904  0.00  0.00    +0.000 NA
ATOM      4  C   UNL     1      48.109   4.450  16.623  0.00  0.00    +0.000 A 
ATOM      5  N   UNL     1      48.722   5.584  16.218  0.00  0.00    +0.000 NA
ATOM      6  C   UNL     1      48.309   6.107  15.034  0.00  0.00    +0.000 A 
ENDROOT
BRANCH   1   8
ATOM      7  N   UNL     1      46.010   5.435  12.232  0.00  0.00    +0.000 N 
ATOM      8  C   UNL     1      46.874   6.175  12.999  0.00  0.00    +0.000 C 
ATOM      9  O   UNL     1      47.285   7.292  12.690  0.00  0.00    +0.000 OA
ATOM     10  H   UNL     1      45.584   4.577  12.570  0.00  0.00    +0.000 HD
BRANCH   7  11
ATOM     11  C   UNL     1      45.466   5.901  10.961  0.00  0.00    +0.000 C 
BRANCH  11  12
ATOM     12  C   UNL     1      45.304   4.710  10.018  0.00  0.00    +0.000 A 
ATOM     13  C   UNL     1      44.769   3.514  10.494  0.00  0.00    +0.000 A 
ATOM     14  C   UNL     1      44.655   2.436   9.622  0.00  0.00    +0.000 A 
ATOM     15  C   UNL     1      45.074   2.576   8.304  0.00  0.00    +0.000 A 
ATOM     16  C   UNL     1      45.596   3.796   7.909  0.00  0.00    +0.000 A 
ATOM     17  N   UNL     1      45.725   4.862   8.730  0.00  0.00    +0.000 NA
ENDBRANCH  11  12
BRANCH  11  18
ATOM     18  C   UNL     1      44.093   6.606  11.129  0.00  0.00    +0.000 C 
BRANCH  18  19
ATOM     19  N   UNL     1      43.335   6.204  12.319  0.00  0.00    +0.000 NA
ATOM     20  H   UNL     1      43.338   6.956  13.007  0.00  0.00    +0.000 HD
ATOM     21  H   UNL     1      43.774   5.390  12.756  0.00  0.00    +0.000 HD
ENDBRANCH  18  19
ENDBRANCH  11  18
ENDBRANCH   7  11
ENDBRANCH   1   8
BRANCH   4  22
ATOM     22  C   UNL     1      48.461   3.872  17.978  0.00  0.00    +0.000 C 
BRANCH  22  23
ATOM     23  N   UNL     1      49.649   3.041  17.979  0.00  0.00    +0.000 N 
ATOM     24  C   UNL     1      50.876   3.604  18.222  0.00  0.00    +0.000 C 
ATOM     25  O   UNL     1      50.994   4.806  18.448  0.00  0.00    +0.000 OA
ATOM     26  H   UNL     1      49.520   2.035  18.060  0.00  0.00    +0.000 HD
BRANCH  24  27
ATOM     27  C   UNL     1      52.052   2.732  18.110  0.00  0.00    +0.000 A 
ATOM     28  C   UNL     1      51.977   1.557  17.373  0.00  0.00    +0.000 A 
ATOM     29  S   UNL     1      53.309   0.517  17.623  0.00  0.00    +0.000 S 
ATOM     30  C   UNL     1      54.052   1.639  18.663  0.00  0.00    +0.000 A 
ATOM     31  N   UNL     1      55.196   1.338  19.334  0.00  0.00    +0.000 NA
ATOM     32  C   UNL     1      55.670   2.311  20.038  0.00  0.00    +0.000 A 
ATOM     33  N   UNL     1      55.134   3.572  20.093  0.00  0.00    +0.000 N 
ATOM     34  C   UNL     1      53.995   3.926  19.414  0.00  0.00    +0.000 A 
ATOM     35  O   UNL     1      53.586   5.082  19.395  0.00  0.00    +0.000 OA
ATOM     36  C   UNL     1      53.355   2.833  18.710  0.00  0.00    +0.000 A 
ATOM     37  H   UNL     1      55.600   4.312  20.597  0.00  0.00    +0.000 HD
ENDBRANCH  24  27
ENDBRANCH  22  23
ENDBRANCH   4  22
TORSDOF 8
ENDMDL
