MODEL 1
REMARK VINA RESULT:    -8.108      0.000      0.000
REMARK INTER + INTRA:         -12.333
REMARK INTER:                 -11.663
REMARK INTRA:                  -0.670
REMARK UNBOUND:                -0.670
REMARK  Name = 
REMARK  9 active torsions:
REMARK  status: ('A' for Active; 'I' for Inactive)
REMARK    1  A    between atoms: C_1  and  C_2
REMARK    2  A    between atoms: C_2  and  N_3
REMARK    3  A    between atoms: C_2  and  C_19
REMARK    4  A    between atoms: N_3  and  C_4
REMARK    5  A    between atoms: C_4  and  C_5
REMARK    6  A    between atoms: C_8  and  C_9
REMARK    7  A    between atoms: C_9  and  O_10
REMARK    8  A    between atoms: C_9  and  C_11
REMARK    9  A    between atoms: C_11  and  N_12
REMARK                            x       y       z     vdW  Elec       q    Type
REMARK                         _______ _______ _______ _____ _____    ______ ____
ROOT
ATOM      1  C   UNL     1      48.432   6.204  14.930  0.00  0.00    +0.000 C 
ENDROOT
BRANCH   1   2
ATOM      2  C   UNL     1      47.434   5.909  13.830  0.00  0.00    +0.000 A 
ATOM      3  C   UNL     1      46.533   4.841  13.923  0.00  0.00    +0.000 A 
ATOM      4  C   UNL     1      45.658   4.554  12.869  0.00  0.00    +0.000 A 
ATOM      5  C   UNL     1      45.649   5.337  11.705  0.00  0.00    +0.000 A 
ATOM      6  C   UNL     1      46.496   6.454  11.648  0.00  0.00    +0.000 A 
ATOM      7  C   UNL     1      47.385   6.727  12.692  0.00  0.00    +0.000 A 
BRANCH   5   8
ATOM      8  C   UNL     1      44.825   4.908  10.498  0.00  0.00    +0.000 C 
BRANCH   8   9
ATOM      9  O   UNL     1      43.526   5.503  10.606  0.00  0.00    +0.000 OA
ATOM     10  H   UNL     1      43.256   5.819   9.728  0.00  0.00    +0.000 HD
ENDBRANCH   8   9
BRANCH   8  11
ATOM     11  C   UNL     1      44.721   3.364  10.324  0.00  0.00    +0.000 C 
BRANCH  11  12
ATOM     12  N   UNL     1      44.490   2.776   8.985  0.00  0.00    +0.000 NA
ATOM     13  C   UNL     1      45.236   1.544   8.717  0.00  0.00    +0.000 C 
ATOM     14  C   UNL     1      46.486   1.964   7.973  0.00  0.00    +0.000 C 
ATOM     15  C   UNL     1      46.040   3.171   7.170  0.00  0.00    +0.000 C 
ATOM     16  C   UNL     1      44.786   3.687   7.872  0.00  0.00    +0.000 C 
ENDBRANCH  11  12
ENDBRANCH   8  11
ENDBRANCH   5   8
ENDBRANCH   1   2
BRANCH   1  17
ATOM     17  N   UNL     1      47.910   5.887  16.266  0.00  0.00    +0.000 NA
ATOM     18  H   UNL     1      48.339   6.527  16.932  0.00  0.00    +0.000 HD
BRANCH  17  20
ATOM     19  C   UNL     1      47.234   3.939  17.678  0.00  0.00    +0.000 C 
ATOM     20  C   UNL     1      48.244   4.510  16.673  0.00  0.00    +0.000 C 
BRANCH  20  21
ATOM     21  C   UNL     1      49.630   4.483  17.302  0.00  0.00    +0.000 A 
ATOM     22  C   UNL     1      50.220   5.513  18.018  0.00  0.00    +0.000 A 
ATOM     23  S   UNL     1      51.729   5.082  18.700  0.00  0.00    +0.000 S 
ATOM     24  C   UNL     1      51.628   3.498  18.083  0.00  0.00    +0.000 A 
ATOM     25  N   UNL     1      52.579   2.564  18.360  0.00  0.00    +0.000 NA
ATOM     26  C   UNL     1      52.340   1.398  17.849  0.00  0.00    +0.000 A 
ATOM     27  N   UNL     1      51.259   1.089  17.069  0.00  0.00    +0.000 N 
ATOM     28  C   UNL     1      50.288   2.005  16.736  0.00  0.00    +0.000 A 
ATOM     29  O   UNL     1      49.348   1.707  16.007  0.00  0.00    +0.000 OA
ATOM     30  C   UNL     1      50.487   3.318  17.325  0.00  0.00    +0.000 A 
ATOM     31  H   UNL     1      51.149   0.166  16.680  0.00  0.00    +0.000 HD
ENDBRANCH  20  21
ENDBRANCH  17  20
ENDBRANCH   1  17
TORSDOF 8
ENDMDL
MODEL 2
REMARK VINA RESULT:    -7.346      1.983      2.745
REMARK INTER + INTRA:         -11.236
REMARK INTER:                 -10.337
REMARK INTRA:                  -0.899
REMARK UNBOUND:                -0.670
REMARK  Name = 
REMARK  9 active torsions:
REMARK  status: ('A' for Active; 'I' for Inactive)
REMARK    1  A    between atoms: C_1  and  C_2
REMARK    2  A    between atoms: C_2  and  N_3
REMARK    3  A    between atoms: C_2  and  C_19
REMARK    4  A    between atoms: N_3  and  C_4
REMARK    5  A    between atoms: C_4  and  C_5
REMARK    6  A    between atoms: C_8  and  C_9
REMARK    7  A    between atoms: C_9  and  O_10
REMARK    8  A    between atoms: C_9  and  C_11
REMARK    9  A    between atoms: C_11  and  N_12
REMARK                            x       y       z     vdW  Elec       q    Type
REMARK                         _______ _______ _______ _____ _____    ______ ____
ROOT
ATOM      1  C   UNL     1      47.730   6.905  12.780  0.00  0.00    +0.000 C 
ENDROOT
BRANCH   1   2
ATOM      2  C   UNL     1      46.711   6.037  12.073  0.00  0.00    +0.000 A 
ATOM      3  C   UNL     1      46.168   4.898  12.681  0.00  0.00    +0.000 A 
ATOM      4  C   UNL     1      45.270   4.079  11.985  0.00  0.00    +0.000 A 
ATOM      5  C   UNL     1      44.879   4.388  10.673  0.00  0.00    +0.000 A 
ATOM      6  C   UNL     1      45.363   5.572  10.097  0.00  0.00    +0.000 A 
ATOM      7  C   UNL     1      46.277   6.377  10.784  0.00  0.00    +0.000 A 
BRANCH   5   8
ATOM      8  C   UNL     1      44.049   3.397   9.868  0.00  0.00    +0.000 C 
BRANCH   8   9
ATOM      9  O   UNL     1      43.891   2.205  10.647  0.00  0.00    +0.000 OA
ATOM     10  H   UNL     1      44.688   1.660  10.544  0.00  0.00    +0.000 HD
ENDBRANCH   8   9
BRANCH   8  11
ATOM     11  C   UNL     1      44.639   3.076   8.464  0.00  0.00    +0.000 C 
BRANCH  11  12
ATOM     12  N   UNL     1      46.097   2.883   8.291  0.00  0.00    +0.000 NA
ATOM     13  C   UNL     1      46.710   3.722   7.258  0.00  0.00    +0.000 C 
ATOM     14  C   UNL     1      46.765   2.871   6.006  0.00  0.00    +0.000 C 
ATOM     15  C   UNL     1      46.962   1.463   6.534  0.00  0.00    +0.000 C 
ATOM     16  C   UNL     1      46.486   1.501   7.984  0.00  0.00    +0.000 C 
ENDBRANCH  11  12
ENDBRANCH   8  11
ENDBRANCH   5   8
ENDBRANCH   1   2
BRANCH   1  17
ATOM     17  N   UNL     1      48.404   6.203  13.880  0.00  0.00    +0.000 NA
ATOM     18  H   UNL     1      47.958   5.295  13.996  0.00  0.00    +0.000 HD
BRANCH  17  20
ATOM     19  C   UNL     1      48.763   8.394  15.030  0.00  0.00    +0.000 C 
ATOM     20  C   UNL     1      48.288   6.939  15.153  0.00  0.00    +0.000 C 
BRANCH  20  21
ATOM     21  C   UNL     1      49.116   6.242  16.224  0.00  0.00    +0.000 A 
ATOM     22  C   UNL     1      50.296   6.713  16.777  0.00  0.00    +0.000 A 
ATOM     23  S   UNL     1      50.878   5.738  18.057  0.00  0.00    +0.000 S 
ATOM     24  C   UNL     1      49.557   4.670  17.929  0.00  0.00    +0.000 A 
ATOM     25  N   UNL     1      49.398   3.627  18.790  0.00  0.00    +0.000 NA
ATOM     26  C   UNL     1      48.325   2.931  18.586  0.00  0.00    +0.000 A 
ATOM     27  N   UNL     1      47.417   3.163  17.588  0.00  0.00    +0.000 N 
ATOM     28  C   UNL     1      47.549   4.184  16.676  0.00  0.00    +0.000 A 
ATOM     29  O   UNL     1      46.736   4.346  15.773  0.00  0.00    +0.000 OA
ATOM     30  C   UNL     1      48.715   5.024  16.893  0.00  0.00    +0.000 A 
ATOM     31  H   UNL     1      46.616   2.563  17.469  0.00  0.00    +0.000 HD
ENDBRANCH  20  21
ENDBRANCH  17  20
ENDBRANCH   1  17
TORSDOF 8
ENDMDL
MODEL 3
REMARK VINA RESULT:    -7.285      2.550      3.373
REMARK INTER + INTRA:         -11.149
REMARK INTER:                  -9.347
REMARK INTRA:                  -1.802
REMARK UNBOUND:                -0.670
REMARK  Name = 
REMARK  9 active torsions:
REMARK  status: ('A' for Active; 'I' for Inactive)
REMARK    1  A    between atoms: C_1  and  C_2
REMARK    2  A    between atoms: C_2  and  N_3
REMARK    3  A    between atoms: C_2  and  C_19
REMARK    4  A    between atoms: N_3  and  C_4
REMARK    5  A    between atoms: C_4  and  C_5
REMARK    6  A    between atoms: C_8  and  C_9
REMARK    7  A    between atoms: C_9  and  O_10
REMARK    8  A    between atoms: C_9  and  C_11
REMARK    9  A    between atoms: C_11  and  N_12
REMARK                            x       y       z     vdW  Elec       q    Type
REMARK                         _______ _______ _______ _____ _____    ______ ____
ROOT
ATOM      1  C   UNL     1      48.947   8.362  13.297  0.00  0.00    +0.000 C 
ENDROOT
BRANCH   1   2
ATOM      2  C   UNL     1      47.617   8.002  12.670  0.00  0.00    +0.000 A 
ATOM      3  C   UNL     1      46.478   8.794  12.856  0.00  0.00    +0.000 A 
ATOM      4  C   UNL     1      45.246   8.410  12.312  0.00  0.00    +0.000 A 
ATOM      5  C   UNL     1      45.127   7.235  11.554  0.00  0.00    +0.000 A 
ATOM      6  C   UNL     1      46.286   6.486  11.302  0.00  0.00    +0.000 A 
ATOM      7  C   UNL     1      47.511   6.859  11.865  0.00  0.00    +0.000 A 
BRANCH   5   8
ATOM      8  C   UNL     1      43.754   6.737  11.124  0.00  0.00    +0.000 C 
BRANCH   8   9
ATOM      9  O   UNL     1      42.875   7.864  11.030  0.00  0.00    +0.000 OA
ATOM     10  H   UNL     1      43.400   8.648  10.798  0.00  0.00    +0.000 HD
ENDBRANCH   8   9
BRANCH   8  11
ATOM     11  C   UNL     1      43.161   5.641  12.058  0.00  0.00    +0.000 C 
BRANCH  11  12
ATOM     12  N   UNL     1      43.102   4.230  11.612  0.00  0.00    +0.000 NA
ATOM     13  C   UNL     1      43.690   3.265  12.546  0.00  0.00    +0.000 C 
ATOM     14  C   UNL     1      45.108   3.031  12.070  0.00  0.00    +0.000 C 
ATOM     15  C   UNL     1      45.013   3.179  10.563  0.00  0.00    +0.000 C 
ATOM     16  C   UNL     1      43.741   3.986  10.312  0.00  0.00    +0.000 C 
ENDBRANCH  11  12
ENDBRANCH   8  11
ENDBRANCH   5   8
ENDBRANCH   1   2
BRANCH   1  17
ATOM     17  N   UNL     1      49.343   7.427  14.359  0.00  0.00    +0.000 NA
ATOM     18  H   UNL     1      49.113   6.484  14.051  0.00  0.00    +0.000 HD
BRANCH  17  20
ATOM     19  C   UNL     1      48.895   9.097  16.164  0.00  0.00    +0.000 C 
ATOM     20  C   UNL     1      48.621   7.688  15.617  0.00  0.00    +0.000 C 
BRANCH  20  21
ATOM     21  C   UNL     1      49.035   6.666  16.667  0.00  0.00    +0.000 A 
ATOM     22  C   UNL     1      49.890   6.894  17.734  0.00  0.00    +0.000 A 
ATOM     23  S   UNL     1      50.018   5.557  18.793  0.00  0.00    +0.000 S 
ATOM     24  C   UNL     1      48.915   4.641  17.874  0.00  0.00    +0.000 A 
ATOM     25  N   UNL     1      48.516   3.400  18.268  0.00  0.00    +0.000 NA
ATOM     26  C   UNL     1      47.646   2.849  17.483  0.00  0.00    +0.000 A 
ATOM     27  N   UNL     1      47.161   3.410  16.332  0.00  0.00    +0.000 N 
ATOM     28  C   UNL     1      47.554   4.647  15.877  0.00  0.00    +0.000 A 
ATOM     29  O   UNL     1      47.127   5.108  14.825  0.00  0.00    +0.000 OA
ATOM     30  C   UNL     1      48.497   5.326  16.750  0.00  0.00    +0.000 A 
ATOM     31  H   UNL     1      46.504   2.912  15.752  0.00  0.00    +0.000 HD
ENDBRANCH  20  21
ENDBRANCH  17  20
ENDBRANCH   1  17
TORSDOF 8
ENDMDL
MODEL 4
REMARK VINA RESULT:    -7.210      2.719      8.658
REMARK INTER + INTRA:         -11.042
REMARK INTER:                  -9.947
REMARK INTRA:                  -1.095
REMARK UNBOUND:                -0.670
REMARK  Name = 
REMARK  9 active torsions:
REMARK  status: ('A' for Active; 'I' for Inactive)
REMARK    1  A    between atoms: C_1  and  C_2
REMARK    2  A    between atoms: C_2  and  N_3
REMARK    3  A    between atoms: C_2  and  C_19
REMARK    4  A    between atoms: N_3  and  C_4
REMARK    5  A    between atoms: C_4  and  C_5
REMARK    6  A    between atoms: C_8  and  C_9
REMARK    7  A    between atoms: C_9  and  O_10
REMARK    8  A    between atoms: C_9  and  C_11
REMARK    9  A    between atoms: C_11  and  N_12
REMARK                            x       y       z     vdW  Elec       q    Type
REMARK                         _______ _______ _______ _____ _____    ______ ____
ROOT
ATOM      1  C   UNL     1      47.196   6.568  12.697  0.00  0.00    +0.000 C 
ENDROOT
BRANCH   1   2
ATOM      2  C   UNL     1      47.520   5.956  14.042  0.00  0.00    +0.000 A 
ATOM      3  C   UNL     1      46.971   4.732  14.444  0.00  0.00    +0.000 A 
ATOM      4  C   UNL     1      47.241   4.213  15.717  0.00  0.00    +0.000 A 
ATOM      5  C   UNL     1      48.082   4.895  16.610  0.00  0.00    +0.000 A 
ATOM      6  C   UNL     1      48.695   6.080  16.174  0.00  0.00    +0.000 A 
ATOM      7  C   UNL     1      48.406   6.607  14.912  0.00  0.00    +0.000 A 
BRANCH   5   8
ATOM      8  C   UNL     1      48.223   4.415  18.048  0.00  0.00    +0.000 C 
BRANCH   8   9
ATOM      9  O   UNL     1      48.531   5.545  18.873  0.00  0.00    +0.000 OA
ATOM     10  H   UNL     1      49.279   5.314  19.447  0.00  0.00    +0.000 HD
ENDBRANCH   8   9
BRANCH   8  11
ATOM     11  C   UNL     1      49.275   3.282  18.233  0.00  0.00    +0.000 C 
BRANCH  11  12
ATOM     12  N   UNL     1      50.369   3.109  17.250  0.00  0.00    +0.000 NA
ATOM     13  C   UNL     1      50.603   1.726  16.828  0.00  0.00    +0.000 C 
ATOM     14  C   UNL     1      51.726   1.205  17.701  0.00  0.00    +0.000 C 
ATOM     15  C   UNL     1      52.580   2.431  17.959  0.00  0.00    +0.000 C 
ATOM     16  C   UNL     1      51.667   3.627  17.702  0.00  0.00    +0.000 C 
ENDBRANCH  11  12
ENDBRANCH   8  11
ENDBRANCH   5   8
ENDBRANCH   1   2
BRANCH   1  17
ATOM     17  N   UNL     1      45.837   7.122  12.641  0.00  0.00    +0.000 NA
ATOM     18  H   UNL     1      45.298   6.714  13.403  0.00  0.00    +0.000 HD
BRANCH  17  20
ATOM     19  C   UNL     1      43.955   7.701  11.101  0.00  0.00    +0.000 C 
ATOM     20  C   UNL     1      45.161   6.791  11.372  0.00  0.00    +0.000 C 
BRANCH  20  21
ATOM     21  C   UNL     1      44.686   5.345  11.407  0.00  0.00    +0.000 A 
ATOM     22  C   UNL     1      43.945   4.754  12.419  0.00  0.00    +0.000 A 
ATOM     23  S   UNL     1      43.468   3.151  12.057  0.00  0.00    +0.000 S 
ATOM     24  C   UNL     1      44.214   3.206  10.527  0.00  0.00    +0.000 A 
ATOM     25  N   UNL     1      44.125   2.165   9.654  0.00  0.00    +0.000 NA
ATOM     26  C   UNL     1      44.712   2.375   8.519  0.00  0.00    +0.000 A 
ATOM     27  N   UNL     1      45.399   3.512   8.189  0.00  0.00    +0.000 N 
ATOM     28  C   UNL     1      45.542   4.577   9.047  0.00  0.00    +0.000 A 
ATOM     29  O   UNL     1      46.193   5.569   8.734  0.00  0.00    +0.000 OA
ATOM     30  C   UNL     1      44.860   4.409  10.318  0.00  0.00    +0.000 A 
ATOM     31  H   UNL     1      45.857   3.597   7.295  0.00  0.00    +0.000 HD
ENDBRANCH  20  21
ENDBRANCH  17  20
ENDBRANCH   1  17
TORSDOF 8
ENDMDL
MODEL 5
REMARK VINA RESULT:    -7.049      2.637      3.178
REMARK INTER + INTRA:         -10.810
REMARK INTER:                  -9.970
REMARK INTRA:                  -0.840
REMARK UNBOUND:                -0.670
REMARK  Name = 
REMARK  9 active torsions:
REMARK  status: ('A' for Active; 'I' for Inactive)
REMARK    1  A    between atoms: C_1  and  C_2
REMARK    2  A    between atoms: C_2  and  N_3
REMARK    3  A    between atoms: C_2  and  C_19
REMARK    4  A    between atoms: N_3  and  C_4
REMARK    5  A    between atoms: C_4  and  C_5
REMARK    6  A    between atoms: C_8  and  C_9
REMARK    7  A    between atoms: C_9  and  O_10
REMARK    8  A    between atoms: C_9  and  C_11
REMARK    9  A    between atoms: C_11  and  N_12
REMARK                            x       y       z     vdW  Elec       q    Type
REMARK                         _______ _______ _______ _____ _____    ______ ____
ROOT
ATOM      1  C   UNL     1      48.289   6.710  13.806  0.00  0.00    +0.000 C 
ENDROOT
BRANCH   1   2
ATOM      2  C   UNL     1      47.133   6.101  13.041  0.00  0.00    +0.000 A 
ATOM      3  C   UNL     1      46.355   5.071  13.583  0.00  0.00    +0.000 A 
ATOM      4  C   UNL     1      45.327   4.486  12.833  0.00  0.00    +0.000 A 
ATOM      5  C   UNL     1      45.040   4.927  11.533  0.00  0.00    +0.000 A 
ATOM      6  C   UNL     1      45.769   6.013  11.024  0.00  0.00    +0.000 A 
ATOM      7  C   UNL     1      46.809   6.582  11.764  0.00  0.00    +0.000 A 
BRANCH   5   8
ATOM      8  C   UNL     1      44.046   4.166  10.666  0.00  0.00    +0.000 C 
BRANCH   8   9
ATOM      9  O   UNL     1      42.815   4.050  11.390  0.00  0.00    +0.000 OA
ATOM     10  H   UNL     1      42.540   4.936  11.677  0.00  0.00    +0.000 HD
ENDBRANCH   8   9
BRANCH   8  11
ATOM     11  C   UNL     1      44.557   2.770  10.202  0.00  0.00    +0.000 C 
BRANCH  11  12
ATOM     12  N   UNL     1      44.529   2.403   8.767  0.00  0.00    +0.000 NA
ATOM     13  C   UNL     1      45.492   1.369   8.379  0.00  0.00    +0.000 C 
ATOM     14  C   UNL     1      46.705   2.105   7.847  0.00  0.00    +0.000 C 
ATOM     15  C   UNL     1      46.121   3.352   7.213  0.00  0.00    +0.000 C 
ATOM     16  C   UNL     1      44.749   3.534   7.856  0.00  0.00    +0.000 C 
ENDBRANCH  11  12
ENDBRANCH   8  11
ENDBRANCH   5   8
ENDBRANCH   1   2
BRANCH   1  17
ATOM     17  N   UNL     1      47.874   7.284  15.093  0.00  0.00    +0.000 NA
ATOM     18  H   UNL     1      47.698   8.277  14.954  0.00  0.00    +0.000 HD
BRANCH  17  20
ATOM     19  C   UNL     1      50.315   6.936  15.506  0.00  0.00    +0.000 C 
ATOM     20  C   UNL     1      48.923   7.142  16.120  0.00  0.00    +0.000 C 
BRANCH  20  21
ATOM     21  C   UNL     1      48.603   5.956  17.019  0.00  0.00    +0.000 A 
ATOM     22  C   UNL     1      48.191   4.702  16.597  0.00  0.00    +0.000 A 
ATOM     23  S   UNL     1      48.059   3.571  17.874  0.00  0.00    +0.000 S 
ATOM     24  C   UNL     1      48.573   4.714  19.026  0.00  0.00    +0.000 A 
ATOM     25  N   UNL     1      48.751   4.378  20.334  0.00  0.00    +0.000 NA
ATOM     26  C   UNL     1      49.181   5.349  21.076  0.00  0.00    +0.000 A 
ATOM     27  N   UNL     1      49.422   6.623  20.640  0.00  0.00    +0.000 N 
ATOM     28  C   UNL     1      49.230   7.019  19.337  0.00  0.00    +0.000 A 
ATOM     29  O   UNL     1      49.422   8.177  18.983  0.00  0.00    +0.000 OA
ATOM     30  C   UNL     1      48.791   5.952  18.453  0.00  0.00    +0.000 A 
ATOM     31  H   UNL     1      49.730   7.339  21.279  0.00  0.00    +0.000 HD
ENDBRANCH  20  21
ENDBRANCH  17  20
ENDBRANCH   1  17
TORSDOF 8
ENDMDL
MODEL 6
REMARK VINA RESULT:    -6.888      3.429      9.108
REMARK INTER + INTRA:         -10.579
REMARK INTER:                  -9.458
REMARK INTRA:                  -1.121
REMARK UNBOUND:                -0.670
REMARK  Name = 
REMARK  9 active torsions:
REMARK  status: ('A' for Active; 'I' for Inactive)
REMARK    1  A    between atoms: C_1  and  C_2
REMARK    2  A    between atoms: C_2  and  N_3
REMARK    3  A    between atoms: C_2  and  C_19
REMARK    4  A    between atoms: N_3  and  C_4
REMARK    5  A    between atoms: C_4  and  C_5
REMARK    6  A    between atoms: C_8  and  C_9
REMARK    7  A    between atoms: C_9  and  O_10
REMARK    8  A    between atoms: C_9  and  C_11
REMARK    9  A    between atoms: C_11  and  N_12
REMARK                            x       y       z     vdW  Elec       q    Type
REMARK                         _______ _______ _______ _____ _____    ______ ____
ROOT
ATOM      1  C   UNL     1      47.023   6.426  12.282  0.00  0.00    +0.000 C 
ENDROOT
BRANCH   1   2
ATOM      2  C   UNL     1      47.378   5.879  13.648  0.00  0.00    +0.000 A 
ATOM      3  C   UNL     1      46.818   4.690  14.132  0.00  0.00    +0.000 A 
ATOM      4  C   UNL     1      47.120   4.234  15.422  0.00  0.00    +0.000 A 
ATOM      5  C   UNL     1      48.001   4.945  16.251  0.00  0.00    +0.000 A 
ATOM      6  C   UNL     1      48.622   6.092  15.733  0.00  0.00    +0.000 A 
ATOM      7  C   UNL     1      48.303   6.558  14.454  0.00  0.00    +0.000 A 
BRANCH   5   8
ATOM      8  C   UNL     1      48.178   4.538  17.707  0.00  0.00    +0.000 C 
BRANCH   8   9
ATOM      9  O   UNL     1      46.981   3.882  18.141  0.00  0.00    +0.000 OA
ATOM     10  H   UNL     1      46.583   4.405  18.857  0.00  0.00    +0.000 HD
ENDBRANCH   8   9
BRANCH   8  11
ATOM     11  C   UNL     1      48.542   5.722  18.651  0.00  0.00    +0.000 C 
BRANCH  11  12
ATOM     12  N   UNL     1      47.496   6.667  19.105  0.00  0.00    +0.000 NA
ATOM     13  C   UNL     1      47.740   8.069  18.757  0.00  0.00    +0.000 C 
ATOM     14  C   UNL     1      48.393   8.695  19.971  0.00  0.00    +0.000 C 
ATOM     15  C   UNL     1      47.777   7.947  21.138  0.00  0.00    +0.000 C 
ATOM     16  C   UNL     1      47.252   6.639  20.553  0.00  0.00    +0.000 C 
ENDBRANCH  11  12
ENDBRANCH   8  11
ENDBRANCH   5   8
ENDBRANCH   1   2
BRANCH   1  17
ATOM     17  N   UNL     1      45.766   7.186  12.288  0.00  0.00    +0.000 NA
ATOM     18  H   UNL     1      45.267   6.967  13.148  0.00  0.00    +0.000 HD
BRANCH  17  20
ATOM     19  C   UNL     1      43.606   7.649  11.118  0.00  0.00    +0.000 C 
ATOM     20  C   UNL     1      44.900   6.824  11.150  0.00  0.00    +0.000 C 
BRANCH  20  21
ATOM     21  C   UNL     1      44.538   5.347  11.232  0.00  0.00    +0.000 A 
ATOM     22  C   UNL     1      43.781   4.748  12.226  0.00  0.00    +0.000 A 
ATOM     23  S   UNL     1      43.454   3.096  11.922  0.00  0.00    +0.000 S 
ATOM     24  C   UNL     1      44.292   3.138  10.440  0.00  0.00    +0.000 A 
ATOM     25  N   UNL     1      44.342   2.052   9.619  0.00  0.00    +0.000 NA
ATOM     26  C   UNL     1      44.985   2.254   8.513  0.00  0.00    +0.000 A 
ATOM     27  N   UNL     1      45.602   3.426   8.166  0.00  0.00    +0.000 N 
ATOM     28  C   UNL     1      45.605   4.539   8.973  0.00  0.00    +0.000 A 
ATOM     29  O   UNL     1      46.195   5.564   8.650  0.00  0.00    +0.000 OA
ATOM     30  C   UNL     1      44.855   4.377  10.208  0.00  0.00    +0.000 A 
ATOM     31  H   UNL     1      46.109   3.505   7.299  0.00  0.00    +0.000 HD
ENDBRANCH  20  21
ENDBRANCH  17  20
ENDBRANCH   1  17
TORSDOF 8
ENDMDL
MODEL 7
REMARK VINA RESULT:    -6.680      2.092      2.869
REMARK INTER + INTRA:         -10.279
REMARK INTER:                  -9.333
REMARK INTRA:                  -0.946
REMARK UNBOUND:                -0.670
REMARK  Name = 
REMARK  9 active torsions:
REMARK  status: ('A' for Active; 'I' for Inactive)
REMARK    1  A    between atoms: C_1  and  C_2
REMARK    2  A    between atoms: C_2  and  N_3
REMARK    3  A    between atoms: C_2  and  C_19
REMARK    4  A    between atoms: N_3  and  C_4
REMARK    5  A    between atoms: C_4  and  C_5
REMARK    6  A    between atoms: C_8  and  C_9
REMARK    7  A    between atoms: C_9  and  O_10
REMARK    8  A    between atoms: C_9  and  C_11
REMARK    9  A    between atoms: C_11  and  N_12
REMARK                            x       y       z     vdW  Elec       q    Type
REMARK                         _______ _______ _______ _____ _____    ______ ____
ROOT
ATOM      1  C   UNL     1      47.192   7.995  13.400  0.00  0.00    +0.000 C 
ENDROOT
BRANCH   1   2
ATOM      2  C   UNL     1      46.272   6.965  12.781  0.00  0.00    +0.000 A 
ATOM      3  C   UNL     1      46.478   5.592  12.963  0.00  0.00    +0.000 A 
ATOM      4  C   UNL     1      45.646   4.657  12.334  0.00  0.00    +0.000 A 
ATOM      5  C   UNL     1      44.578   5.072  11.524  0.00  0.00    +0.000 A 
ATOM      6  C   UNL     1      44.326   6.448  11.409  0.00  0.00    +0.000 A 
ATOM      7  C   UNL     1      45.170   7.379  12.020  0.00  0.00    +0.000 A 
BRANCH   5   8
ATOM      8  C   UNL     1      43.797   4.053  10.705  0.00  0.00    +0.000 C 
BRANCH   8   9
ATOM      9  O   UNL     1      42.697   3.588  11.495  0.00  0.00    +0.000 OA
ATOM     10  H   UNL     1      42.071   4.320  11.616  0.00  0.00    +0.000 HD
ENDBRANCH   8   9
BRANCH   8  11
ATOM     11  C   UNL     1      44.661   2.863  10.191  0.00  0.00    +0.000 C 
BRANCH  11  12
ATOM     12  N   UNL     1      44.608   2.460   8.767  0.00  0.00    +0.000 NA
ATOM     13  C   UNL     1      45.526   1.378   8.400  0.00  0.00    +0.000 C 
ATOM     14  C   UNL     1      46.764   2.049   7.842  0.00  0.00    +0.000 C 
ATOM     15  C   UNL     1      46.227   3.303   7.178  0.00  0.00    +0.000 C 
ATOM     16  C   UNL     1      44.867   3.557   7.825  0.00  0.00    +0.000 C 
ENDBRANCH  11  12
ENDBRANCH   8  11
ENDBRANCH   5   8
ENDBRANCH   1   2
BRANCH   1  17
ATOM     17  N   UNL     1      48.425   7.402  13.935  0.00  0.00    +0.000 NA
ATOM     18  H   UNL     1      48.199   6.479  14.303  0.00  0.00    +0.000 HD
BRANCH  17  20
ATOM     19  C   UNL     1      49.179   9.679  14.638  0.00  0.00    +0.000 C 
ATOM     20  C   UNL     1      48.990   8.208  15.033  0.00  0.00    +0.000 C 
BRANCH  20  21
ATOM     21  C   UNL     1      50.338   7.635  15.448  0.00  0.00    +0.000 A 
ATOM     22  C   UNL     1      51.577   8.207  15.203  0.00  0.00    +0.000 A 
ATOM     23  S   UNL     1      52.868   7.358  15.937  0.00  0.00    +0.000 S 
ATOM     24  C   UNL     1      51.810   6.217  16.628  0.00  0.00    +0.000 A 
ATOM     25  N   UNL     1      52.264   5.233  17.453  0.00  0.00    +0.000 NA
ATOM     26  C   UNL     1      51.332   4.468  17.927  0.00  0.00    +0.000 A 
ATOM     27  N   UNL     1      50.000   4.579  17.633  0.00  0.00    +0.000 N 
ATOM     28  C   UNL     1      49.497   5.537  16.783  0.00  0.00    +0.000 A 
ATOM     29  O   UNL     1      48.302   5.590  16.512  0.00  0.00    +0.000 OA
ATOM     30  C   UNL     1      50.500   6.450  16.261  0.00  0.00    +0.000 A 
ATOM     31  H   UNL     1      49.331   3.931  18.017  0.00  0.00    +0.000 HD
ENDBRANCH  20  21
ENDBRANCH  17  20
ENDBRANCH   1  17
TORSDOF 8
ENDMDL
MODEL 8
REMARK VINA RESULT:    -6.491      3.465      9.259
REMARK INTER + INTRA:         -10.007
REMARK INTER:                  -8.709
REMARK INTRA:                  -1.298
REMARK UNBOUND:                -0.670
REMARK  Name = 
REMARK  9 active torsions:
REMARK  status: ('A' for Active; 'I' for Inactive)
REMARK    1  A    between atoms: C_1  and  C_2
REMARK    2  A    between atoms: C_2  and  N_3
REMARK    3  A    between atoms: C_2  and  C_19
REMARK    4  A    between atoms: N_3  and  C_4
REMARK    5  A    between atoms: C_4  and  C_5
REMARK    6  A    between atoms: C_8  and  C_9
REMARK    7  A    between atoms: C_9  and  O_10
REMARK    8  A    between atoms: C_9  and  C_11
REMARK    9  A    between atoms: C_11  and  N_12
REMARK                            x       y       z     vdW  Elec       q    Type
REMARK                         _______ _______ _______ _____ _____    ______ ____
ROOT
ATOM      1  C   UNL     1      48.414   7.046  14.718  0.00  0.00    +0.000 C 
ENDROOT
BRANCH   1   2
ATOM      2  C   UNL     1      49.112   6.315  15.845  0.00  0.00    +0.000 A 
ATOM      3  C   UNL     1      48.468   5.313  16.581  0.00  0.00    +0.000 A 
ATOM      4  C   UNL     1      49.116   4.690  17.655  0.00  0.00    +0.000 A 
ATOM      5  C   UNL     1      50.428   5.041  18.008  0.00  0.00    +0.000 A 
ATOM      6  C   UNL     1      51.099   5.988  17.218  0.00  0.00    +0.000 A 
ATOM      7  C   UNL     1      50.443   6.624  16.160  0.00  0.00    +0.000 A 
BRANCH   5   8
ATOM      8  C   UNL     1      51.053   4.490  19.282  0.00  0.00    +0.000 C 
BRANCH   8   9
ATOM      9  O   UNL     1      50.076   4.557  20.328  0.00  0.00    +0.000 OA
ATOM     10  H   UNL     1      49.380   5.180  20.061  0.00  0.00    +0.000 HD
ENDBRANCH   8   9
BRANCH   8  11
ATOM     11  C   UNL     1      52.370   5.207  19.699  0.00  0.00    +0.000 C 
BRANCH  11  12
ATOM     12  N   UNL     1      53.668   4.498  19.615  0.00  0.00    +0.000 NA
ATOM     13  C   UNL     1      54.659   5.131  18.741  0.00  0.00    +0.000 C 
ATOM     14  C   UNL     1      54.544   4.433  17.402  0.00  0.00    +0.000 C 
ATOM     15  C   UNL     1      54.153   3.014  17.767  0.00  0.00    +0.000 C 
ATOM     16  C   UNL     1      53.559   3.102  19.170  0.00  0.00    +0.000 C 
ENDBRANCH  11  12
ENDBRANCH   8  11
ENDBRANCH   5   8
ENDBRANCH   1   2
BRANCH   1  17
ATOM     17  N   UNL     1      47.229   6.329  14.229  0.00  0.00    +0.000 NA
ATOM     18  H   UNL     1      47.253   5.383  14.606  0.00  0.00    +0.000 HD
BRANCH  17  20
ATOM     19  C   UNL     1      47.837   7.469  12.089  0.00  0.00    +0.000 C 
ATOM     20  C   UNL     1      47.212   6.236  12.757  0.00  0.00    +0.000 C 
BRANCH  20  21
ATOM     21  C   UNL     1      45.777   6.088  12.270  0.00  0.00    +0.000 A 
ATOM     22  C   UNL     1      45.005   7.086  11.696  0.00  0.00    +0.000 A 
ATOM     23  S   UNL     1      43.488   6.527  11.137  0.00  0.00    +0.000 S 
ATOM     24  C   UNL     1      43.827   4.930  11.620  0.00  0.00    +0.000 A 
ATOM     25  N   UNL     1      42.959   3.911  11.369  0.00  0.00    +0.000 NA
ATOM     26  C   UNL     1      43.377   2.750  11.764  0.00  0.00    +0.000 A 
ATOM     27  N   UNL     1      44.563   2.520  12.407  0.00  0.00    +0.000 N 
ATOM     28  C   UNL     1      45.459   3.520  12.709  0.00  0.00    +0.000 A 
ATOM     29  O   UNL     1      46.499   3.287  13.316  0.00  0.00    +0.000 OA
ATOM     30  C   UNL     1      45.055   4.836  12.244  0.00  0.00    +0.000 A 
ATOM     31  H   UNL     1      44.814   1.593  12.711  0.00  0.00    +0.000 HD
ENDBRANCH  20  21
ENDBRANCH  17  20
ENDBRANCH   1  17
TORSDOF 8
ENDMDL
MODEL 9
REMARK VINA RESULT:    -6.424      2.580      3.545
REMARK INTER + INTRA:          -9.911
REMARK INTER:                  -9.053
REMARK INTRA:                  -0.858
REMARK UNBOUND:                -0.670
REMARK  Name = 
REMARK  9 active torsions:
REMARK  status: ('A' for Active; 'I' for Inactive)
REMARK    1  A    between atoms: C_1  and  C_2
REMARK    2  A    between atoms: C_2  and  N_3
REMARK    3  A    between atoms: C_2  and  C_19
REMARK    4  A    between atoms: N_3  and  C_4
REMARK    5  A    between atoms: C_4  and  C_5
REMARK    6  A    between atoms: C_8  and  C_9
REMARK    7  A    between atoms: C_9  and  O_10
REMARK    8  A    between atoms: C_9  and  C_11
REMARK    9  A    between atoms: C_11  and  N_12
REMARK                            x       y       z     vdW  Elec       q    Type
REMARK                         _______ _______ _______ _____ _____    ______ ____
ROOT
ATOM      1  C   UNL     1      49.685   7.629  13.948  0.00  0.00    +0.000 C 
ENDROOT
BRANCH   1   2
ATOM      2  C   UNL     1      48.434   7.027  13.343  0.00  0.00    +0.000 A 
ATOM      3  C   UNL     1      47.954   7.434  12.092  0.00  0.00    +0.000 A 
ATOM      4  C   UNL     1      46.764   6.902  11.579  0.00  0.00    +0.000 A 
ATOM      5  C   UNL     1      46.036   5.940  12.295  0.00  0.00    +0.000 A 
ATOM      6  C   UNL     1      46.562   5.476  13.510  0.00  0.00    +0.000 A 
ATOM      7  C   UNL     1      47.738   6.024  14.032  0.00  0.00    +0.000 A 
BRANCH   5   8
ATOM      8  C   UNL     1      44.658   5.506  11.813  0.00  0.00    +0.000 C 
BRANCH   8   9
ATOM      9  O   UNL     1      43.692   5.906  12.791  0.00  0.00    +0.000 OA
ATOM     10  H   UNL     1      43.151   6.621  12.418  0.00  0.00    +0.000 HD
ENDBRANCH   8   9
BRANCH   8  11
ATOM     11  C   UNL     1      44.549   3.983  11.507  0.00  0.00    +0.000 C 
BRANCH  11  12
ATOM     12  N   UNL     1      43.962   3.516  10.230  0.00  0.00    +0.000 NA
ATOM     13  C   UNL     1      44.367   2.168   9.824  0.00  0.00    +0.000 C 
ATOM     14  C   UNL     1      45.525   2.349   8.865  0.00  0.00    +0.000 C 
ATOM     15  C   UNL     1      45.212   3.657   8.164  0.00  0.00    +0.000 C 
ATOM     16  C   UNL     1      44.244   4.393   9.086  0.00  0.00    +0.000 C 
ENDBRANCH  11  12
ENDBRANCH   8  11
ENDBRANCH   5   8
ENDBRANCH   1   2
BRANCH   1  17
ATOM     17  N   UNL     1      50.381   6.700  14.847  0.00  0.00    +0.000 NA
ATOM     18  H   UNL     1      49.684   6.099  15.283  0.00  0.00    +0.000 HD
BRANCH  17  20
ATOM     19  C   UNL     1      52.226   6.556  16.528  0.00  0.00    +0.000 C 
ATOM     20  C   UNL     1      51.106   7.411  15.917  0.00  0.00    +0.000 C 
BRANCH  20  21
ATOM     21  C   UNL     1      50.134   7.807  17.019  0.00  0.00    +0.000 A 
ATOM     22  C   UNL     1      49.928   9.089  17.503  0.00  0.00    +0.000 A 
ATOM     23  S   UNL     1      48.657   9.184  18.644  0.00  0.00    +0.000 S 
ATOM     24  C   UNL     1      48.325   7.519  18.507  0.00  0.00    +0.000 A 
ATOM     25  N   UNL     1      47.288   6.943  19.177  0.00  0.00    +0.000 NA
ATOM     26  C   UNL     1      47.143   5.678  18.939  0.00  0.00    +0.000 A 
ATOM     27  N   UNL     1      47.950   4.935  18.120  0.00  0.00    +0.000 N 
ATOM     28  C   UNL     1      49.026   5.465  17.447  0.00  0.00    +0.000 A 
ATOM     29  O   UNL     1      49.751   4.767  16.746  0.00  0.00    +0.000 OA
ATOM     30  C   UNL     1      49.203   6.894  17.645  0.00  0.00    +0.000 A 
ATOM     31  H   UNL     1      47.796   3.946  18.001  0.00  0.00    +0.000 HD
ENDBRANCH  20  21
ENDBRANCH  17  20
ENDBRANCH   1  17
TORSDOF 8
ENDMDL
