MODEL 1
REMARK VINA RESULT:    -8.565      0.000      0.000
REMARK INTER + INTRA:         -12.973
REMARK INTER:                 -12.071
REMARK INTRA:                  -0.902
REMARK UNBOUND:                -0.902
REMARK  Name = 
REMARK  7 active torsions:
REMARK  status: ('A' for Active; 'I' for Inactive)
REMARK    1  A    between atoms: C_2  and  C_20
REMARK    2  A    between atoms: N_3  and  C_4
REMARK    3  A    between atoms: C_4  and  C_5
REMARK    4  A    between atoms: N_8  and  C_9
REMARK    5  A    between atoms: C_9  and  N_10
REMARK    6  A    between atoms: N_10  and  C_11
REMARK    7  A    between atoms: C_11  and  C_12
REMARK                            x       y       z     vdW  Elec       q    Type
REMARK                         _______ _______ _______ _____ _____    ______ ____
ROOT
ATOM      1  C   UNL     1      46.942   6.162  12.501  0.00  0.00    +0.000 C 
ENDROOT
BRANCH   1   2
ATOM      2  C   UNL     1      45.503   6.665  12.302  0.00  0.00    +0.000 C 
ATOM      3  C   UNL     1      44.496   5.977  13.234  0.00  0.00    +0.000 C 
ATOM      4  C   UNL     1      44.273   4.512  12.863  0.00  0.00    +0.000 C 
ATOM      5  N   UNL     1      43.833   4.368  11.462  0.00  0.00    +0.000 NA
ATOM      6  C   UNL     1      44.813   4.965  10.540  0.00  0.00    +0.000 C 
ATOM      7  C   UNL     1      45.053   6.448  10.853  0.00  0.00    +0.000 C 
BRANCH   5   8
ATOM      8  C   UNL     1      43.623   2.958  11.129  0.00  0.00    +0.000 C 
BRANCH   8   9
ATOM      9  N   UNL     1      44.810   2.491  10.441  0.00  0.00    +0.000 NA
ATOM     10  H   UNL     1      45.272   1.811  11.038  0.00  0.00    +0.000 HD
BRANCH   9  11
ATOM     11  C   UNL     1      44.504   1.905   9.145  0.00  0.00    +0.000 C 
BRANCH  11  12
ATOM     12  C   UNL     1      45.637   2.111   8.165  0.00  0.00    +0.000 A 
ATOM     13  C   UNL     1      46.581   1.100   7.935  0.00  0.00    +0.000 A 
ATOM     14  C   UNL     1      47.609   1.285   7.005  0.00  0.00    +0.000 A 
ATOM     15  C   UNL     1      47.704   2.479   6.294  0.00  0.00    +0.000 A 
ATOM     16  C   UNL     1      46.775   3.494   6.515  0.00  0.00    +0.000 A 
ATOM     17  C   UNL     1      45.748   3.312   7.444  0.00  0.00    +0.000 A 
ENDBRANCH  11  12
ENDBRANCH   9  11
ENDBRANCH   8   9
ENDBRANCH   5   8
ENDBRANCH   1   2
BRANCH   1  20
ATOM     18  O   UNL     1      49.380   6.838  13.741  0.00  0.00    +0.000 OA
ATOM     19  C   UNL     1      48.462   6.404  14.430  0.00  0.00    +0.000 C 
ATOM     20  N   UNL     1      47.262   6.001  13.899  0.00  0.00    +0.000 N 
ATOM     21  H   UNL     1      46.474   5.875  14.525  0.00  0.00    +0.000 HD
BRANCH  19  22
ATOM     22  C   UNL     1      48.609   6.222  15.877  0.00  0.00    +0.000 A 
ATOM     23  C   UNL     1      49.050   7.274  16.666  0.00  0.00    +0.000 A 
ATOM     24  S   UNL     1      49.180   6.874  18.320  0.00  0.00    +0.000 S 
ATOM     25  C   UNL     1      48.616   5.292  18.038  0.00  0.00    +0.000 A 
ATOM     26  N   UNL     1      48.462   4.410  19.062  0.00  0.00    +0.000 NA
ATOM     27  C   UNL     1      47.993   3.260  18.708  0.00  0.00    +0.000 A 
ATOM     28  N   UNL     1      47.671   2.909  17.423  0.00  0.00    +0.000 N 
ATOM     29  C   UNL     1      47.857   3.748  16.354  0.00  0.00    +0.000 A 
ATOM     30  O   UNL     1      47.643   3.368  15.207  0.00  0.00    +0.000 OA
ATOM     31  C   UNL     1      48.353   5.069  16.699  0.00  0.00    +0.000 A 
ATOM     32  H   UNL     1      47.333   1.981  17.208  0.00  0.00    +0.000 HD
ENDBRANCH  19  22
ENDBRANCH   1  20
TORSDOF 7
ENDMDL
MODEL 2
REMARK VINA RESULT:    -8.334      2.284      2.904
REMARK INTER + INTRA:         -12.646
REMARK INTER:                 -11.656
REMARK INTRA:                  -0.991
REMARK UNBOUND:                -0.902
REMARK  Name = 
REMARK  7 active torsions:
REMARK  status: ('A' for Active; 'I' for Inactive)
REMARK    1  A    between atoms: C_2  and  C_20
REMARK    2  A    between atoms: N_3  and  C_4
REMARK    3  A    between atoms: C_4  and  C_5
REMARK    4  A    between atoms: N_8  and  C_9
REMARK    5  A    between atoms: C_9  and  N_10
REMARK    6  A    between atoms: N_10  and  C_11
REMARK    7  A    between atoms: C_11  and  C_12
REMARK                            x       y       z     vdW  Elec       q    Type
REMARK                         _______ _______ _______ _____ _____    ______ ____
ROOT
ATOM      1  C   UNL     1      46.757   4.766  15.201  0.00  0.00    +0.000 C 
ENDROOT
BRANCH   1   2
ATOM      2  C   UNL     1      46.962   5.266  13.762  0.00  0.00    +0.000 C 
ATOM      3  C   UNL     1      45.811   6.154  13.269  0.00  0.00    +0.000 C 
ATOM      4  C   UNL     1      44.524   5.360  13.047  0.00  0.00    +0.000 C 
ATOM      5  N   UNL     1      44.731   4.243  12.105  0.00  0.00    +0.000 NA
ATOM      6  C   UNL     1      45.789   3.340  12.585  0.00  0.00    +0.000 C 
ATOM      7  C   UNL     1      47.114   4.084  12.798  0.00  0.00    +0.000 C 
BRANCH   5   8
ATOM      8  C   UNL     1      43.487   3.499  11.906  0.00  0.00    +0.000 C 
BRANCH   8   9
ATOM      9  N   UNL     1      43.548   2.891  10.592  0.00  0.00    +0.000 NA
ATOM     10  H   UNL     1      42.613   2.574  10.347  0.00  0.00    +0.000 HD
BRANCH   9  11
ATOM     11  C   UNL     1      44.056   3.806   9.581  0.00  0.00    +0.000 C 
BRANCH  11  12
ATOM     12  C   UNL     1      45.102   3.144   8.713  0.00  0.00    +0.000 A 
ATOM     13  C   UNL     1      45.865   3.894   7.806  0.00  0.00    +0.000 A 
ATOM     14  C   UNL     1      46.852   3.282   7.029  0.00  0.00    +0.000 A 
ATOM     15  C   UNL     1      47.091   1.915   7.149  0.00  0.00    +0.000 A 
ATOM     16  C   UNL     1      46.338   1.155   8.043  0.00  0.00    +0.000 A 
ATOM     17  C   UNL     1      45.350   1.765   8.820  0.00  0.00    +0.000 A 
ENDBRANCH  11  12
ENDBRANCH   9  11
ENDBRANCH   8   9
ENDBRANCH   5   8
ENDBRANCH   1   2
BRANCH   1  20
ATOM     18  O   UNL     1      47.108   4.720  17.997  0.00  0.00    +0.000 OA
ATOM     19  C   UNL     1      48.086   4.566  17.271  0.00  0.00    +0.000 C 
ATOM     20  N   UNL     1      48.011   4.628  15.902  0.00  0.00    +0.000 N 
ATOM     21  H   UNL     1      48.788   4.268  15.357  0.00  0.00    +0.000 HD
BRANCH  19  22
ATOM     22  C   UNL     1      49.428   4.367  17.825  0.00  0.00    +0.000 A 
ATOM     23  C   UNL     1      49.970   5.311  18.685  0.00  0.00    +0.000 A 
ATOM     24  S   UNL     1      51.546   4.923  19.212  0.00  0.00    +0.000 S 
ATOM     25  C   UNL     1      51.540   3.463  18.335  0.00  0.00    +0.000 A 
ATOM     26  N   UNL     1      52.605   2.618  18.374  0.00  0.00    +0.000 NA
ATOM     27  C   UNL     1      52.448   1.532  17.691  0.00  0.00    +0.000 A 
ATOM     28  N   UNL     1      51.327   1.219  16.967  0.00  0.00    +0.000 N 
ATOM     29  C   UNL     1      50.251   2.063  16.860  0.00  0.00    +0.000 A 
ATOM     30  O   UNL     1      49.303   1.790  16.130  0.00  0.00    +0.000 OA
ATOM     31  C   UNL     1      50.360   3.286  17.636  0.00  0.00    +0.000 A 
ATOM     32  H   UNL     1      51.278   0.364  16.432  0.00  0.00    +0.000 HD
ENDBRANCH  19  22
ENDBRANCH   1  20
TORSDOF 7
ENDMDL
MODEL 3
REMARK VINA RESULT:    -8.236      1.459      2.493
REMARK INTER + INTRA:         -12.508
REMARK INTER:                 -11.607
REMARK INTRA:                  -0.901
REMARK UNBOUND:                -0.902
REMARK  Name = 
REMARK  7 active torsions:
REMARK  status: ('A' for Active; 'I' for Inactive)
REMARK    1  A    between atoms: C_2  and  C_20
REMARK    2  A    between atoms: N_3  and  C_4
REMARK    3  A    between atoms: C_4  and  C_5
REMARK    4  A    between atoms: N_8  and  C_9
REMARK    5  A    between atoms: C_9  and  N_10
REMARK    6  A    between atoms: N_10  and  C_11
REMARK    7  A    between atoms: C_11  and  C_12
REMARK                            x       y       z     vdW  Elec       q    Type
REMARK                         _______ _______ _______ _____ _____    ______ ____
ROOT
ATOM      1  C   UNL     1      46.820   5.254  13.488  0.00  0.00    +0.000 C 
ENDROOT
BRANCH   1   2
ATOM      2  C   UNL     1      45.842   6.292  12.915  0.00  0.00    +0.000 C 
ATOM      3  C   UNL     1      44.372   5.925  13.157  0.00  0.00    +0.000 C 
ATOM      4  C   UNL     1      43.932   4.722  12.324  0.00  0.00    +0.000 C 
ATOM      5  N   UNL     1      44.158   4.948  10.883  0.00  0.00    +0.000 NA
ATOM      6  C   UNL     1      45.575   5.242  10.613  0.00  0.00    +0.000 C 
ATOM      7  C   UNL     1      46.060   6.463  11.407  0.00  0.00    +0.000 C 
BRANCH   5   8
ATOM      8  C   UNL     1      43.728   3.786  10.105  0.00  0.00    +0.000 C 
BRANCH   8   9
ATOM      9  N   UNL     1      44.761   2.776  10.223  0.00  0.00    +0.000 NA
ATOM     10  H   UNL     1      44.664   2.332  11.133  0.00  0.00    +0.000 HD
BRANCH   9  11
ATOM     11  C   UNL     1      44.689   1.782   9.162  0.00  0.00    +0.000 C 
BRANCH  11  12
ATOM     12  C   UNL     1      45.730   2.037   8.096  0.00  0.00    +0.000 A 
ATOM     13  C   UNL     1      45.790   3.269   7.429  0.00  0.00    +0.000 A 
ATOM     14  C   UNL     1      46.775   3.510   6.466  0.00  0.00    +0.000 A 
ATOM     15  C   UNL     1      47.711   2.525   6.160  0.00  0.00    +0.000 A 
ATOM     16  C   UNL     1      47.662   1.294   6.812  0.00  0.00    +0.000 A 
ATOM     17  C   UNL     1      46.678   1.051   7.774  0.00  0.00    +0.000 A 
ENDBRANCH  11  12
ENDBRANCH   9  11
ENDBRANCH   8   9
ENDBRANCH   5   8
ENDBRANCH   1   2
BRANCH   1  20
ATOM     18  O   UNL     1      47.555   3.439  15.515  0.00  0.00    +0.000 OA
ATOM     19  C   UNL     1      47.622   4.644  15.741  0.00  0.00    +0.000 C 
ATOM     20  N   UNL     1      47.234   5.593  14.828  0.00  0.00    +0.000 N 
ATOM     21  H   UNL     1      47.525   6.554  14.975  0.00  0.00    +0.000 HD
BRANCH  19  22
ATOM     22  C   UNL     1      48.068   5.157  17.039  0.00  0.00    +0.000 A 
ATOM     23  C   UNL     1      47.421   4.760  18.200  0.00  0.00    +0.000 A 
ATOM     24  S   UNL     1      48.062   5.473  19.612  0.00  0.00    +0.000 S 
ATOM     25  C   UNL     1      49.248   6.307  18.719  0.00  0.00    +0.000 A 
ATOM     26  N   UNL     1      50.163   7.100  19.339  0.00  0.00    +0.000 NA
ATOM     27  C   UNL     1      51.024   7.642  18.542  0.00  0.00    +0.000 A 
ATOM     28  N   UNL     1      51.049   7.469  17.183  0.00  0.00    +0.000 N 
ATOM     29  C   UNL     1      50.116   6.719  16.511  0.00  0.00    +0.000 A 
ATOM     30  O   UNL     1      50.115   6.661  15.285  0.00  0.00    +0.000 OA
ATOM     31  C   UNL     1      49.142   6.059  17.363  0.00  0.00    +0.000 A 
ATOM     32  H   UNL     1      51.734   7.943  16.612  0.00  0.00    +0.000 HD
ENDBRANCH  19  22
ENDBRANCH   1  20
TORSDOF 7
ENDMDL
MODEL 4
REMARK VINA RESULT:    -7.960      2.930      3.773
REMARK INTER + INTRA:         -12.120
REMARK INTER:                 -11.005
REMARK INTRA:                  -1.115
REMARK UNBOUND:                -0.902
REMARK  Name = 
REMARK  7 active torsions:
REMARK  status: ('A' for Active; 'I' for Inactive)
REMARK    1  A    between atoms: C_2  and  C_20
REMARK    2  A    between atoms: N_3  and  C_4
REMARK    3  A    between atoms: C_4  and  C_5
REMARK    4  A    between atoms: N_8  and  C_9
REMARK    5  A    between atoms: C_9  and  N_10
REMARK    6  A    between atoms: N_10  and  C_11
REMARK    7  A    between atoms: C_11  and  C_12
REMARK                            x       y       z     vdW  Elec       q    Type
REMARK                         _______ _______ _______ _____ _____    ______ ____
ROOT
ATOM      1  C   UNL     1      46.421   6.665  11.640  0.00  0.00    +0.000 C 
ENDROOT
BRANCH   1   2
ATOM      2  C   UNL     1      45.757   6.225  12.954  0.00  0.00    +0.000 C 
ATOM      3  C   UNL     1      46.192   4.822  13.402  0.00  0.00    +0.000 C 
ATOM      4  C   UNL     1      45.634   3.728  12.493  0.00  0.00    +0.000 C 
ATOM      5  N   UNL     1      44.162   3.790  12.409  0.00  0.00    +0.000 NA
ATOM      6  C   UNL     1      43.719   5.107  11.922  0.00  0.00    +0.000 C 
ATOM      7  C   UNL     1      44.231   6.242  12.818  0.00  0.00    +0.000 C 
BRANCH   5   8
ATOM      8  C   UNL     1      43.650   2.732  11.538  0.00  0.00    +0.000 C 
BRANCH   8   9
ATOM      9  N   UNL     1      44.695   2.405  10.589  0.00  0.00    +0.000 NA
ATOM     10  H   UNL     1      44.891   1.411  10.666  0.00  0.00    +0.000 HD
BRANCH   9  11
ATOM     11  C   UNL     1      44.329   2.746   9.222  0.00  0.00    +0.000 C 
BRANCH  11  12
ATOM     12  C   UNL     1      45.479   2.510   8.268  0.00  0.00    +0.000 A 
ATOM     13  C   UNL     1      46.153   1.280   8.244  0.00  0.00    +0.000 A 
ATOM     14  C   UNL     1      47.194   1.057   7.339  0.00  0.00    +0.000 A 
ATOM     15  C   UNL     1      47.573   2.058   6.447  0.00  0.00    +0.000 A 
ATOM     16  C   UNL     1      46.915   3.286   6.462  0.00  0.00    +0.000 A 
ATOM     17  C   UNL     1      45.875   3.511   7.366  0.00  0.00    +0.000 A 
ENDBRANCH  11  12
ENDBRANCH   9  11
ENDBRANCH   8   9
ENDBRANCH   5   8
ENDBRANCH   1   2
BRANCH   1  20
ATOM     18  O   UNL     1      47.175   9.349  12.055  0.00  0.00    +0.000 OA
ATOM     19  C   UNL     1      48.036   8.475  12.099  0.00  0.00    +0.000 C 
ATOM     20  N   UNL     1      47.762   7.152  11.856  0.00  0.00    +0.000 N 
ATOM     21  H   UNL     1      48.450   6.457  12.131  0.00  0.00    +0.000 HD
BRANCH  19  22
ATOM     22  C   UNL     1      49.442   8.796  12.354  0.00  0.00    +0.000 A 
ATOM     23  C   UNL     1      50.103   9.710  11.546  0.00  0.00    +0.000 A 
ATOM     24  S   UNL     1      51.737   9.943  11.978  0.00  0.00    +0.000 S 
ATOM     25  C   UNL     1      51.603   8.857  13.283  0.00  0.00    +0.000 A 
ATOM     26  N   UNL     1      52.662   8.611  14.101  0.00  0.00    +0.000 NA
ATOM     27  C   UNL     1      52.408   7.795  15.070  0.00  0.00    +0.000 A 
ATOM     28  N   UNL     1      51.195   7.195  15.289  0.00  0.00    +0.000 N 
ATOM     29  C   UNL     1      50.116   7.374  14.462  0.00  0.00    +0.000 A 
ATOM     30  O   UNL     1      49.074   6.751  14.637  0.00  0.00    +0.000 OA
ATOM     31  C   UNL     1      50.336   8.311  13.372  0.00  0.00    +0.000 A 
ATOM     32  H   UNL     1      51.069   6.544  16.051  0.00  0.00    +0.000 HD
ENDBRANCH  19  22
ENDBRANCH   1  20
TORSDOF 7
ENDMDL
MODEL 5
REMARK VINA RESULT:    -7.485      2.577      3.519
REMARK INTER + INTRA:         -11.450
REMARK INTER:                 -10.754
REMARK INTRA:                  -0.696
REMARK UNBOUND:                -0.902
REMARK  Name = 
REMARK  7 active torsions:
REMARK  status: ('A' for Active; 'I' for Inactive)
REMARK    1  A    between atoms: C_2  and  C_20
REMARK    2  A    between atoms: N_3  and  C_4
REMARK    3  A    between atoms: C_4  and  C_5
REMARK    4  A    between atoms: N_8  and  C_9
REMARK    5  A    between atoms: C_9  and  N_10
REMARK    6  A    between atoms: N_10  and  C_11
REMARK    7  A    between atoms: C_11  and  C_12
REMARK                            x       y       z     vdW  Elec       q    Type
REMARK                         _______ _______ _______ _____ _____    ______ ____
ROOT
ATOM      1  C   UNL     1      48.234   6.774  15.400  0.00  0.00    +0.000 C 
ENDROOT
BRANCH   1   2
ATOM      2  C   UNL     1      48.646   7.479  14.098  0.00  0.00    +0.000 C 
ATOM      3  C   UNL     1      47.731   8.660  13.743  0.00  0.00    +0.000 C 
ATOM      4  C   UNL     1      46.337   8.202  13.317  0.00  0.00    +0.000 C 
ATOM      5  N   UNL     1      46.398   7.261  12.181  0.00  0.00    +0.000 NA
ATOM      6  C   UNL     1      47.221   6.087  12.516  0.00  0.00    +0.000 C 
ATOM      7  C   UNL     1      48.643   6.491  12.926  0.00  0.00    +0.000 C 
BRANCH   5   8
ATOM      8  C   UNL     1      45.054   6.839  11.788  0.00  0.00    +0.000 C 
BRANCH   8   9
ATOM      9  N   UNL     1      45.153   6.239  10.472  0.00  0.00    +0.000 NA
ATOM     10  H   UNL     1      46.139   6.143  10.243  0.00  0.00    +0.000 HD
BRANCH   9  11
ATOM     11  C   UNL     1      44.486   4.948  10.400  0.00  0.00    +0.000 C 
BRANCH  11  12
ATOM     12  C   UNL     1      45.160   4.034   9.402  0.00  0.00    +0.000 A 
ATOM     13  C   UNL     1      45.057   2.640   9.518  0.00  0.00    +0.000 A 
ATOM     14  C   UNL     1      45.656   1.801   8.575  0.00  0.00    +0.000 A 
ATOM     15  C   UNL     1      46.363   2.343   7.504  0.00  0.00    +0.000 A 
ATOM     16  C   UNL     1      46.477   3.726   7.377  0.00  0.00    +0.000 A 
ATOM     17  C   UNL     1      45.879   4.567   8.319  0.00  0.00    +0.000 A 
ENDBRANCH  11  12
ENDBRANCH   9  11
ENDBRANCH   8   9
ENDBRANCH   5   8
ENDBRANCH   1   2
BRANCH   1  20
ATOM     18  O   UNL     1      48.125   4.860  17.466  0.00  0.00    +0.000 OA
ATOM     19  C   UNL     1      49.219   5.196  17.021  0.00  0.00    +0.000 C 
ATOM     20  N   UNL     1      49.363   6.158  16.053  0.00  0.00    +0.000 N 
ATOM     21  H   UNL     1      50.251   6.226  15.567  0.00  0.00    +0.000 HD
BRANCH  19  22
ATOM     22  C   UNL     1      50.465   4.630  17.545  0.00  0.00    +0.000 A 
ATOM     23  C   UNL     1      51.352   5.435  18.245  0.00  0.00    +0.000 A 
ATOM     24  S   UNL     1      52.755   4.612  18.760  0.00  0.00    +0.000 S 
ATOM     25  C   UNL     1      52.205   3.144  18.095  0.00  0.00    +0.000 A 
ATOM     26  N   UNL     1      52.939   2.005  18.209  0.00  0.00    +0.000 NA
ATOM     27  C   UNL     1      52.384   0.960  17.690  0.00  0.00    +0.000 A 
ATOM     28  N   UNL     1      51.167   0.952  17.061  0.00  0.00    +0.000 N 
ATOM     29  C   UNL     1      50.416   2.086  16.879  0.00  0.00    +0.000 A 
ATOM     30  O   UNL     1      49.374   2.058  16.231  0.00  0.00    +0.000 OA
ATOM     31  C   UNL     1      50.978   3.287  17.473  0.00  0.00    +0.000 A 
ATOM     32  H   UNL     1      50.800   0.105  16.651  0.00  0.00    +0.000 HD
ENDBRANCH  19  22
ENDBRANCH   1  20
TORSDOF 7
ENDMDL
MODEL 6
REMARK VINA RESULT:    -7.198      3.395      8.183
REMARK INTER + INTRA:         -11.047
REMARK INTER:                  -9.332
REMARK INTRA:                  -1.714
REMARK UNBOUND:                -0.902
REMARK  Name = 
REMARK  7 active torsions:
REMARK  status: ('A' for Active; 'I' for Inactive)
REMARK    1  A    between atoms: C_2  and  C_20
REMARK    2  A    between atoms: N_3  and  C_4
REMARK    3  A    between atoms: C_4  and  C_5
REMARK    4  A    between atoms: N_8  and  C_9
REMARK    5  A    between atoms: C_9  and  N_10
REMARK    6  A    between atoms: N_10  and  C_11
REMARK    7  A    between atoms: C_11  and  C_12
REMARK                            x       y       z     vdW  Elec       q    Type
REMARK                         _______ _______ _______ _____ _____    ______ ____
ROOT
ATOM      1  C   UNL     1      49.112   6.711  15.578  0.00  0.00    +0.000 C 
ENDROOT
BRANCH   1   2
ATOM      2  C   UNL     1      49.464   8.176  15.882  0.00  0.00    +0.000 C 
ATOM      3  C   UNL     1      50.658   8.317  16.837  0.00  0.00    +0.000 C 
ATOM      4  C   UNL     1      50.318   7.870  18.258  0.00  0.00    +0.000 C 
ATOM      5  N   UNL     1      49.160   8.610  18.796  0.00  0.00    +0.000 NA
ATOM      6  C   UNL     1      47.980   8.442  17.932  0.00  0.00    +0.000 C 
ATOM      7  C   UNL     1      48.262   8.903  16.495  0.00  0.00    +0.000 C 
BRANCH   5   8
ATOM      8  C   UNL     1      48.854   8.169  20.157  0.00  0.00    +0.000 C 
BRANCH   8   9
ATOM      9  N   UNL     1      47.819   7.158  20.065  0.00  0.00    +0.000 NA
ATOM     10  H   UNL     1      47.429   7.191  19.127  0.00  0.00    +0.000 HD
BRANCH   9  11
ATOM     11  C   UNL     1      48.320   5.824  20.360  0.00  0.00    +0.000 C 
BRANCH  11  12
ATOM     12  C   UNL     1      48.315   4.948  19.127  0.00  0.00    +0.000 A 
ATOM     13  C   UNL     1      49.435   4.174  18.790  0.00  0.00    +0.000 A 
ATOM     14  C   UNL     1      49.414   3.343  17.666  0.00  0.00    +0.000 A 
ATOM     15  C   UNL     1      48.274   3.274  16.868  0.00  0.00    +0.000 A 
ATOM     16  C   UNL     1      47.155   4.040  17.188  0.00  0.00    +0.000 A 
ATOM     17  C   UNL     1      47.175   4.872  18.310  0.00  0.00    +0.000 A 
ENDBRANCH  11  12
ENDBRANCH   9  11
ENDBRANCH   8   9
ENDBRANCH   5   8
ENDBRANCH   1   2
BRANCH   1  20
ATOM     18  O   UNL     1      48.987   6.208  12.808  0.00  0.00    +0.000 OA
ATOM     19  C   UNL     1      47.941   6.309  13.443  0.00  0.00    +0.000 C 
ATOM     20  N   UNL     1      47.913   6.605  14.783  0.00  0.00    +0.000 N 
ATOM     21  H   UNL     1      47.051   6.447  15.295  0.00  0.00    +0.000 HD
BRANCH  19  22
ATOM     22  C   UNL     1      46.635   6.181  12.792  0.00  0.00    +0.000 A 
ATOM     23  C   UNL     1      46.026   7.295  12.234  0.00  0.00    +0.000 A 
ATOM     24  S   UNL     1      44.503   6.960  11.541  0.00  0.00    +0.000 S 
ATOM     25  C   UNL     1      44.626   5.308  11.933  0.00  0.00    +0.000 A 
ATOM     26  N   UNL     1      43.643   4.431  11.590  0.00  0.00    +0.000 NA
ATOM     27  C   UNL     1      43.886   3.205  11.918  0.00  0.00    +0.000 A 
ATOM     28  N   UNL     1      45.016   2.778  12.565  0.00  0.00    +0.000 N 
ATOM     29  C   UNL     1      46.008   3.633  12.973  0.00  0.00    +0.000 A 
ATOM     30  O   UNL     1      46.962   3.227  13.630  0.00  0.00    +0.000 OA
ATOM     31  C   UNL     1      45.803   5.022  12.600  0.00  0.00    +0.000 A 
ATOM     32  H   UNL     1      45.132   1.807  12.818  0.00  0.00    +0.000 HD
ENDBRANCH  19  22
ENDBRANCH   1  20
TORSDOF 7
ENDMDL
MODEL 7
REMARK VINA RESULT:    -7.070      2.353      3.263
REMARK INTER + INTRA:         -10.865
REMARK INTER:                  -9.924
REMARK INTRA:                  -0.941
REMARK UNBOUND:                -0.902
REMARK  Name = 
REMARK  7 active torsions:
REMARK  status: ('A' for Active; 'I' for Inactive)
REMARK    1  A    between atoms: C_2  and  C_20
REMARK    2  A    between atoms: N_3  and  C_4
REMARK    3  A    between atoms: C_4  and  C_5
REMARK    4  A    between atoms: N_8  and  C_9
REMARK    5  A    between atoms: C_9  and  N_10
REMARK    6  A    between atoms: N_10  and  C_11
REMARK    7  A    between atoms: C_11  and  C_12
REMARK                            x       y       z     vdW  Elec       q    Type
REMARK                         _______ _______ _______ _____ _____    ______ ____
ROOT
ATOM      1  C   UNL     1      47.393   8.588  13.693  0.00  0.00    +0.000 C 
ENDROOT
BRANCH   1   2
ATOM      2  C   UNL     1      48.116   7.300  13.266  0.00  0.00    +0.000 C 
ATOM      3  C   UNL     1      48.123   7.096  11.745  0.00  0.00    +0.000 C 
ATOM      4  C   UNL     1      46.735   6.763  11.200  0.00  0.00    +0.000 C 
ATOM      5  N   UNL     1      46.164   5.573  11.859  0.00  0.00    +0.000 NA
ATOM      6  C   UNL     1      46.088   5.766  13.317  0.00  0.00    +0.000 C 
ATOM      7  C   UNL     1      47.464   6.076  13.919  0.00  0.00    +0.000 C 
BRANCH   5   8
ATOM      8  C   UNL     1      44.838   5.271  11.321  0.00  0.00    +0.000 C 
BRANCH   8   9
ATOM      9  N   UNL     1      44.693   3.829  11.301  0.00  0.00    +0.000 NA
ATOM     10  H   UNL     1      44.144   3.556  12.111  0.00  0.00    +0.000 HD
BRANCH   9  11
ATOM     11  C   UNL     1      44.066   3.352  10.078  0.00  0.00    +0.000 C 
BRANCH  11  12
ATOM     12  C   UNL     1      45.094   3.056   9.009  0.00  0.00    +0.000 A 
ATOM     13  C   UNL     1      45.640   4.087   8.231  0.00  0.00    +0.000 A 
ATOM     14  C   UNL     1      46.613   3.812   7.266  0.00  0.00    +0.000 A 
ATOM     15  C   UNL     1      47.053   2.505   7.068  0.00  0.00    +0.000 A 
ATOM     16  C   UNL     1      46.517   1.469   7.832  0.00  0.00    +0.000 A 
ATOM     17  C   UNL     1      45.544   1.743   8.796  0.00  0.00    +0.000 A 
ENDBRANCH  11  12
ENDBRANCH   9  11
ENDBRANCH   8   9
ENDBRANCH   5   8
ENDBRANCH   1   2
BRANCH   1  20
ATOM     18  O   UNL     1      49.334   9.833  15.312  0.00  0.00    +0.000 OA
ATOM     19  C   UNL     1      48.316   9.390  15.836  0.00  0.00    +0.000 C 
ATOM     20  N   UNL     1      47.347   8.724  15.128  0.00  0.00    +0.000 N 
ATOM     21  H   UNL     1      46.438   8.590  15.560  0.00  0.00    +0.000 HD
BRANCH  19  22
ATOM     22  C   UNL     1      48.093   9.488  17.281  0.00  0.00    +0.000 A 
ATOM     23  C   UNL     1      47.826  10.720  17.860  0.00  0.00    +0.000 A 
ATOM     24  S   UNL     1      47.615  10.644  19.551  0.00  0.00    +0.000 S 
ATOM     25  C   UNL     1      47.838   8.956  19.559  0.00  0.00    +0.000 A 
ATOM     26  N   UNL     1      47.756   8.244  20.715  0.00  0.00    +0.000 NA
ATOM     27  C   UNL     1      47.910   6.970  20.567  0.00  0.00    +0.000 A 
ATOM     28  N   UNL     1      48.146   6.345  19.371  0.00  0.00    +0.000 N 
ATOM     29  C   UNL     1      48.286   7.027  18.189  0.00  0.00    +0.000 A 
ATOM     30  O   UNL     1      48.588   6.444  17.153  0.00  0.00    +0.000 OA
ATOM     31  C   UNL     1      48.089   8.463  18.292  0.00  0.00    +0.000 A 
ATOM     32  H   UNL     1      48.285   5.345  19.327  0.00  0.00    +0.000 HD
ENDBRANCH  19  22
ENDBRANCH   1  20
TORSDOF 7
ENDMDL
MODEL 8
REMARK VINA RESULT:    -6.728      4.022      8.755
REMARK INTER + INTRA:         -10.384
REMARK INTER:                  -8.738
REMARK INTRA:                  -1.646
REMARK UNBOUND:                -0.902
REMARK  Name = 
REMARK  7 active torsions:
REMARK  status: ('A' for Active; 'I' for Inactive)
REMARK    1  A    between atoms: C_2  and  C_20
REMARK    2  A    between atoms: N_3  and  C_4
REMARK    3  A    between atoms: C_4  and  C_5
REMARK    4  A    between atoms: N_8  and  C_9
REMARK    5  A    between atoms: C_9  and  N_10
REMARK    6  A    between atoms: N_10  and  C_11
REMARK    7  A    between atoms: C_11  and  C_12
REMARK                            x       y       z     vdW  Elec       q    Type
REMARK                         _______ _______ _______ _____ _____    ______ ____
ROOT
ATOM      1  C   UNL     1      47.589   4.748  18.006  0.00  0.00    +0.000 C 
ENDROOT
BRANCH   1   2
ATOM      2  C   UNL     1      47.416   5.893  19.016  0.00  0.00    +0.000 C 
ATOM      3  C   UNL     1      48.081   7.199  18.557  0.00  0.00    +0.000 C 
ATOM      4  C   UNL     1      49.606   7.110  18.580  0.00  0.00    +0.000 C 
ATOM      5  N   UNL     1      50.108   6.739  19.918  0.00  0.00    +0.000 NA
ATOM      6  C   UNL     1      49.533   5.457  20.357  0.00  0.00    +0.000 C 
ATOM      7  C   UNL     1      47.999   5.502  20.378  0.00  0.00    +0.000 C 
BRANCH   5   8
ATOM      8  C   UNL     1      51.569   6.662  19.918  0.00  0.00    +0.000 C 
BRANCH   8   9
ATOM      9  N   UNL     1      51.975   6.079  18.654  0.00  0.00    +0.000 NA
ATOM     10  H   UNL     1      52.367   6.819  18.078  0.00  0.00    +0.000 HD
BRANCH   9  11
ATOM     11  C   UNL     1      52.939   5.003  18.825  0.00  0.00    +0.000 C 
BRANCH  11  12
ATOM     12  C   UNL     1      52.409   3.696  18.281  0.00  0.00    +0.000 A 
ATOM     13  C   UNL     1      53.199   2.538  18.293  0.00  0.00    +0.000 A 
ATOM     14  C   UNL     1      52.693   1.325  17.817  0.00  0.00    +0.000 A 
ATOM     15  C   UNL     1      51.391   1.254  17.325  0.00  0.00    +0.000 A 
ATOM     16  C   UNL     1      50.595   2.398  17.302  0.00  0.00    +0.000 A 
ATOM     17  C   UNL     1      51.100   3.611  17.777  0.00  0.00    +0.000 A 
ENDBRANCH  11  12
ENDBRANCH   9  11
ENDBRANCH   8   9
ENDBRANCH   5   8
ENDBRANCH   1   2
BRANCH   1  20
ATOM     18  O   UNL     1      47.627   3.132  15.697  0.00  0.00    +0.000 OA
ATOM     19  C   UNL     1      47.316   4.315  15.591  0.00  0.00    +0.000 C 
ATOM     20  N   UNL     1      47.324   5.181  16.655  0.00  0.00    +0.000 N 
ATOM     21  H   UNL     1      46.842   6.070  16.559  0.00  0.00    +0.000 HD
BRANCH  19  22
ATOM     22  C   UNL     1      46.973   4.904  14.294  0.00  0.00    +0.000 A 
ATOM     23  C   UNL     1      45.864   4.448  13.597  0.00  0.00    +0.000 A 
ATOM     24  S   UNL     1      45.632   5.234  12.100  0.00  0.00    +0.000 S 
ATOM     25  C   UNL     1      46.986   6.235  12.354  0.00  0.00    +0.000 A 
ATOM     26  N   UNL     1      47.340   7.179  11.440  0.00  0.00    +0.000 NA
ATOM     27  C   UNL     1      48.365   7.889  11.779  0.00  0.00    +0.000 A 
ATOM     28  N   UNL     1      49.072   7.736  12.943  0.00  0.00    +0.000 N 
ATOM     29  C   UNL     1      48.781   6.766  13.869  0.00  0.00    +0.000 A 
ATOM     30  O   UNL     1      49.491   6.599  14.855  0.00  0.00    +0.000 OA
ATOM     31  C   UNL     1      47.615   5.958  13.554  0.00  0.00    +0.000 A 
ATOM     32  H   UNL     1      49.882   8.307  13.137  0.00  0.00    +0.000 HD
ENDBRANCH  19  22
ENDBRANCH   1  20
TORSDOF 7
ENDMDL
MODEL 9
REMARK VINA RESULT:    -6.664      3.791      8.824
REMARK INTER + INTRA:         -10.293
REMARK INTER:                  -9.431
REMARK INTRA:                  -0.862
REMARK UNBOUND:                -0.902
REMARK  Name = 
REMARK  7 active torsions:
REMARK  status: ('A' for Active; 'I' for Inactive)
REMARK    1  A    between atoms: C_2  and  C_20
REMARK    2  A    between atoms: N_3  and  C_4
REMARK    3  A    between atoms: C_4  and  C_5
REMARK    4  A    between atoms: N_8  and  C_9
REMARK    5  A    between atoms: C_9  and  N_10
REMARK    6  A    between atoms: N_10  and  C_11
REMARK    7  A    between atoms: C_11  and  C_12
REMARK                            x       y       z     vdW  Elec       q    Type
REMARK                         _______ _______ _______ _____ _____    ______ ____
ROOT
ATOM      1  C   UNL     1      47.495   3.574  16.310  0.00  0.00    +0.000 C 
ENDROOT
BRANCH   1   2
ATOM      2  C   UNL     1      47.352   3.991  17.782  0.00  0.00    +0.000 C 
ATOM      3  C   UNL     1      47.578   5.493  18.001  0.00  0.00    +0.000 C 
ATOM      4  C   UNL     1      49.038   5.894  17.797  0.00  0.00    +0.000 C 
ATOM      5  N   UNL     1      49.940   5.122  18.673  0.00  0.00    +0.000 NA
ATOM      6  C   UNL     1      49.790   3.677  18.440  0.00  0.00    +0.000 C 
ATOM      7  C   UNL     1      48.342   3.216  18.659  0.00  0.00    +0.000 C 
BRANCH   5   8
ATOM      8  C   UNL     1      51.332   5.524  18.463  0.00  0.00    +0.000 C 
BRANCH   8   9
ATOM      9  N   UNL     1      51.943   4.539  17.592  0.00  0.00    +0.000 NA
ATOM     10  H   UNL     1      51.821   4.850  16.631  0.00  0.00    +0.000 HD
BRANCH   9  11
ATOM     11  C   UNL     1      53.353   4.340  17.886  0.00  0.00    +0.000 C 
BRANCH  11  12
ATOM     12  C   UNL     1      53.763   2.900  17.669  0.00  0.00    +0.000 A 
ATOM     13  C   UNL     1      52.864   1.852  17.912  0.00  0.00    +0.000 A 
ATOM     14  C   UNL     1      53.238   0.525  17.680  0.00  0.00    +0.000 A 
ATOM     15  C   UNL     1      54.513   0.230  17.202  0.00  0.00    +0.000 A 
ATOM     16  C   UNL     1      55.419   1.261  16.961  0.00  0.00    +0.000 A 
ATOM     17  C   UNL     1      55.047   2.588  17.192  0.00  0.00    +0.000 A 
ENDBRANCH  11  12
ENDBRANCH   9  11
ENDBRANCH   8   9
ENDBRANCH   5   8
ENDBRANCH   1   2
BRANCH   1  20
ATOM     18  O   UNL     1      47.425   3.434  13.496  0.00  0.00    +0.000 OA
ATOM     19  C   UNL     1      46.820   4.340  14.063  0.00  0.00    +0.000 C 
ATOM     20  N   UNL     1      46.847   4.511  15.424  0.00  0.00    +0.000 N 
ATOM     21  H   UNL     1      46.155   5.120  15.849  0.00  0.00    +0.000 HD
BRANCH  19  22
ATOM     22  C   UNL     1      46.072   5.350  13.310  0.00  0.00    +0.000 A 
ATOM     23  C   UNL     1      46.624   6.604  13.095  0.00  0.00    +0.000 A 
ATOM     24  S   UNL     1      45.603   7.654  12.219  0.00  0.00    +0.000 S 
ATOM     25  C   UNL     1      44.405   6.454  12.069  0.00  0.00    +0.000 A 
ATOM     26  N   UNL     1      43.251   6.697  11.391  0.00  0.00    +0.000 NA
ATOM     27  C   UNL     1      42.449   5.686  11.326  0.00  0.00    +0.000 A 
ATOM     28  N   UNL     1      42.693   4.458  11.883  0.00  0.00    +0.000 N 
ATOM     29  C   UNL     1      43.819   4.183  12.617  0.00  0.00    +0.000 A 
ATOM     30  O   UNL     1      43.961   3.102  13.179  0.00  0.00    +0.000 OA
ATOM     31  C   UNL     1      44.773   5.277  12.695  0.00  0.00    +0.000 A 
ATOM     32  H   UNL     1      42.011   3.715  11.820  0.00  0.00    +0.000 HD
ENDBRANCH  19  22
ENDBRANCH   1  20
TORSDOF 7
ENDMDL
