MODEL 1
REMARK VINA RESULT:    -8.759      0.000      0.000
REMARK INTER + INTRA:         -15.072
REMARK INTER:                 -13.624
REMARK INTRA:                  -1.448
REMARK UNBOUND:                -1.448
REMARK  Name = 
REMARK  10 active torsions:
REMARK  status: ('A' for Active; 'I' for Inactive)
REMARK    1  A    between atoms: N_1  and  C_2
REMARK    2  A    between atoms: C_2  and  C_3
REMARK    3  A    between atoms: C_2  and  C_32
REMARK    4  A    between atoms: C_3  and  N_4
REMARK    5  A    between atoms: C_7  and  C_8
REMARK    6  A    between atoms: C_8  and  O_9
REMARK    7  A    between atoms: O_9  and  C_10
REMARK    8  A    between atoms: C_13  and  C_14
REMARK    9  A    between atoms: C_14  and  N_15
REMARK   10  A    between atoms: C_16  and  C_18
REMARK                            x       y       z     vdW  Elec       q    Type
REMARK                         _______ _______ _______ _____ _____    ______ ____
ROOT
ATOM      1  C   UNL     1      47.261   4.369  15.728  0.00  0.00    +0.000 A 
ATOM      2  C   UNL     1      47.148   3.445  16.760  0.00  0.00    +0.000 A 
ATOM      3  C   UNL     1      47.885   3.629  17.930  0.00  0.00    +0.000 A 
ATOM      4  C   UNL     1      48.722   4.738  18.026  0.00  0.00    +0.000 A 
ATOM      5  N   UNL     1      48.804   5.679  17.055  0.00  0.00    +0.000 NA
ATOM      6  C   UNL     1      48.063   5.482  15.943  0.00  0.00    +0.000 A 
ENDROOT
BRANCH   1   7
ATOM      7  O   UNL     1      46.576   4.107  14.575  0.00  0.00    +0.000 OA
BRANCH   7   8
ATOM      8  C   UNL     1      46.919   4.973  13.486  0.00  0.00    +0.000 C 
BRANCH   8  12
ATOM      9  N   UNL     1      44.479   4.957  10.699  0.00  0.00    +0.000 NA
ATOM     10  C   UNL     1      44.306   4.221  11.956  0.00  0.00    +0.000 C 
ATOM     11  C   UNL     1      44.412   5.166  13.150  0.00  0.00    +0.000 C 
ATOM     12  C   UNL     1      45.751   5.913  13.167  0.00  0.00    +0.000 C 
ATOM     13  C   UNL     1      45.963   6.597  11.808  0.00  0.00    +0.000 C 
ATOM     14  C   UNL     1      45.776   5.637  10.625  0.00  0.00    +0.000 C 
BRANCH   9  15
ATOM     15  C   UNL     1      44.247   4.097   9.517  0.00  0.00    +0.000 C 
BRANCH  15  16
ATOM     16  C   UNL     1      44.890   2.676   9.602  0.00  0.00    +0.000 C 
BRANCH  16  17
ATOM     17  C   UNL     1      45.771   2.440   8.382  0.00  0.00    +0.000 A 
ATOM     18  C   UNL     1      45.937   3.459   7.445  0.00  0.00    +0.000 A 
ATOM     19  C   UNL     1      46.741   3.226   6.337  0.00  0.00    +0.000 A 
ATOM     20  C   UNL     1      47.354   1.989   6.188  0.00  0.00    +0.000 A 
ATOM     21  C   UNL     1      47.135   1.028   7.159  0.00  0.00    +0.000 A 
ATOM     22  N   UNL     1      46.357   1.219   8.247  0.00  0.00    +0.000 NA
ENDBRANCH  16  17
BRANCH  16  23
ATOM     23  N   UNL     1      43.873   1.613   9.767  0.00  0.00    +0.000 NA
ATOM     24  H   UNL     1      42.959   2.021   9.574  0.00  0.00    +0.000 HD
ATOM     25  H   UNL     1      43.849   1.394  10.764  0.00  0.00    +0.000 HD
ENDBRANCH  16  23
ENDBRANCH  15  16
ENDBRANCH   9  15
ENDBRANCH   8  12
ENDBRANCH   7   8
ENDBRANCH   1   7
BRANCH   4  26
ATOM     26  C   UNL     1      49.569   4.969  19.251  0.00  0.00    +0.000 C 
BRANCH  26  27
ATOM     27  N   UNL     1      50.725   4.106  19.272  0.00  0.00    +0.000 N 
ATOM     28  C   UNL     1      51.944   4.508  18.805  0.00  0.00    +0.000 C 
ATOM     29  O   UNL     1      52.127   5.632  18.344  0.00  0.00    +0.000 OA
ATOM     30  H   UNL     1      50.531   3.116  19.397  0.00  0.00    +0.000 HD
BRANCH  28  31
ATOM     31  C   UNL     1      53.047   3.555  18.962  0.00  0.00    +0.000 A 
ATOM     32  C   UNL     1      54.159   3.914  19.711  0.00  0.00    +0.000 A 
ATOM     33  S   UNL     1      55.327   2.679  19.836  0.00  0.00    +0.000 S 
ATOM     34  C   UNL     1      54.408   1.635  18.856  0.00  0.00    +0.000 A 
ATOM     35  N   UNL     1      54.863   0.393  18.541  0.00  0.00    +0.000 NA
ATOM     36  C   UNL     1      54.079  -0.282  17.764  0.00  0.00    +0.000 A 
ATOM     37  N   UNL     1      52.878   0.173  17.284  0.00  0.00    +0.000 N 
ATOM     38  C   UNL     1      52.354   1.397  17.624  0.00  0.00    +0.000 A 
ATOM     39  O   UNL     1      51.230   1.730  17.258  0.00  0.00    +0.000 OA
ATOM     40  C   UNL     1      53.212   2.210  18.461  0.00  0.00    +0.000 A 
ATOM     41  H   UNL     1      52.298  -0.413  16.701  0.00  0.00    +0.000 HD
ENDBRANCH  28  31
ENDBRANCH  26  27
ENDBRANCH   4  26
TORSDOF 10
ENDMDL
MODEL 2
REMARK VINA RESULT:    -7.293      4.334      9.943
REMARK INTER + INTRA:         -12.791
REMARK INTER:                 -10.872
REMARK INTRA:                  -1.920
REMARK UNBOUND:                -1.448
REMARK  Name = 
REMARK  10 active torsions:
REMARK  status: ('A' for Active; 'I' for Inactive)
REMARK    1  A    between atoms: N_1  and  C_2
REMARK    2  A    between atoms: C_2  and  C_3
REMARK    3  A    between atoms: C_2  and  C_32
REMARK    4  A    between atoms: C_3  and  N_4
REMARK    5  A    between atoms: C_7  and  C_8
REMARK    6  A    between atoms: C_8  and  O_9
REMARK    7  A    between atoms: O_9  and  C_10
REMARK    8  A    between atoms: C_13  and  C_14
REMARK    9  A    between atoms: C_14  and  N_15
REMARK   10  A    between atoms: C_16  and  C_18
REMARK                            x       y       z     vdW  Elec       q    Type
REMARK                         _______ _______ _______ _____ _____    ______ ____
ROOT
ATOM      1  C   UNL     1      48.950   9.883  15.533  0.00  0.00    +0.000 A 
ATOM      2  C   UNL     1      48.608   8.537  15.487  0.00  0.00    +0.000 A 
ATOM      3  C   UNL     1      48.311   7.945  14.260  0.00  0.00    +0.000 A 
ATOM      4  C   UNL     1      48.361   8.729  13.109  0.00  0.00    +0.000 A 
ATOM      5  N   UNL     1      48.746  10.027  13.124  0.00  0.00    +0.000 NA
ATOM      6  C   UNL     1      49.047  10.565  14.327  0.00  0.00    +0.000 A 
ENDROOT
BRANCH   1   7
ATOM      7  O   UNL     1      49.161  10.435  16.765  0.00  0.00    +0.000 OA
BRANCH   7   8
ATOM      8  C   UNL     1      49.810   9.554  17.691  0.00  0.00    +0.000 C 
BRANCH   8  12
ATOM      9  N   UNL     1      47.926   7.360  20.006  0.00  0.00    +0.000 NA
ATOM     10  C   UNL     1      49.389   7.399  19.908  0.00  0.00    +0.000 C 
ATOM     11  C   UNL     1      49.903   8.820  20.118  0.00  0.00    +0.000 C 
ATOM     12  C   UNL     1      49.290   9.801  19.112  0.00  0.00    +0.000 C 
ATOM     13  C   UNL     1      47.759   9.678  19.157  0.00  0.00    +0.000 C 
ATOM     14  C   UNL     1      47.277   8.227  19.019  0.00  0.00    +0.000 C 
BRANCH   9  15
ATOM     15  C   UNL     1      47.403   5.976  19.943  0.00  0.00    +0.000 C 
BRANCH  15  16
ATOM     16  C   UNL     1      48.486   4.875  19.717  0.00  0.00    +0.000 C 
BRANCH  16  17
ATOM     17  C   UNL     1      48.268   4.214  18.361  0.00  0.00    +0.000 A 
ATOM     18  C   UNL     1      48.981   3.061  18.035  0.00  0.00    +0.000 A 
ATOM     19  C   UNL     1      48.772   2.473  16.795  0.00  0.00    +0.000 A 
ATOM     20  C   UNL     1      47.868   3.048  15.912  0.00  0.00    +0.000 A 
ATOM     21  C   UNL     1      47.205   4.196  16.308  0.00  0.00    +0.000 A 
ATOM     22  N   UNL     1      47.385   4.795  17.505  0.00  0.00    +0.000 NA
ENDBRANCH  16  17
BRANCH  16  23
ATOM     23  N   UNL     1      48.513   3.885  20.819  0.00  0.00    +0.000 NA
ATOM     24  H   UNL     1      48.927   4.335  21.634  0.00  0.00    +0.000 HD
ATOM     25  H   UNL     1      49.195   3.175  20.546  0.00  0.00    +0.000 HD
ENDBRANCH  16  23
ENDBRANCH  15  16
ENDBRANCH   9  15
ENDBRANCH   8  12
ENDBRANCH   7   8
ENDBRANCH   1   7
BRANCH   4  26
ATOM     26  C   UNL     1      48.015   8.153  11.761  0.00  0.00    +0.000 C 
BRANCH  26  27
ATOM     27  N   UNL     1      47.174   6.986  11.877  0.00  0.00    +0.000 N 
ATOM     28  C   UNL     1      45.823   7.039  11.682  0.00  0.00    +0.000 C 
ATOM     29  O   UNL     1      45.246   8.084  11.392  0.00  0.00    +0.000 OA
ATOM     30  H   UNL     1      47.586   6.195  12.365  0.00  0.00    +0.000 HD
BRANCH  28  31
ATOM     31  C   UNL     1      45.105   5.762  11.755  0.00  0.00    +0.000 A 
ATOM     32  C   UNL     1      44.426   5.426  12.918  0.00  0.00    +0.000 A 
ATOM     33  S   UNL     1      43.605   3.935  12.823  0.00  0.00    +0.000 S 
ATOM     34  C   UNL     1      44.166   3.664  11.241  0.00  0.00    +0.000 A 
ATOM     35  N   UNL     1      43.842   2.526  10.570  0.00  0.00    +0.000 NA
ATOM     36  C   UNL     1      44.361   2.436   9.389  0.00  0.00    +0.000 A 
ATOM     37  N   UNL     1      45.166   3.386   8.816  0.00  0.00    +0.000 N 
ATOM     38  C   UNL     1      45.470   4.575   9.435  0.00  0.00    +0.000 A 
ATOM     39  O   UNL     1      46.110   5.448   8.852  0.00  0.00    +0.000 OA
ATOM     40  C   UNL     1      44.946   4.710  10.778  0.00  0.00    +0.000 A 
ATOM     41  H   UNL     1      45.520   3.269   7.879  0.00  0.00    +0.000 HD
ENDBRANCH  28  31
ENDBRANCH  26  27
ENDBRANCH   4  26
TORSDOF 10
ENDMDL
MODEL 3
REMARK VINA RESULT:    -7.023      6.278      7.759
REMARK INTER + INTRA:         -12.371
REMARK INTER:                 -12.053
REMARK INTRA:                  -0.318
REMARK UNBOUND:                -1.448
REMARK  Name = 
REMARK  10 active torsions:
REMARK  status: ('A' for Active; 'I' for Inactive)
REMARK    1  A    between atoms: N_1  and  C_2
REMARK    2  A    between atoms: C_2  and  C_3
REMARK    3  A    between atoms: C_2  and  C_32
REMARK    4  A    between atoms: C_3  and  N_4
REMARK    5  A    between atoms: C_7  and  C_8
REMARK    6  A    between atoms: C_8  and  O_9
REMARK    7  A    between atoms: O_9  and  C_10
REMARK    8  A    between atoms: C_13  and  C_14
REMARK    9  A    between atoms: C_14  and  N_15
REMARK   10  A    between atoms: C_16  and  C_18
REMARK                            x       y       z     vdW  Elec       q    Type
REMARK                         _______ _______ _______ _____ _____    ______ ____
ROOT
ATOM      1  C   UNL     1      47.122   7.268  12.955  0.00  0.00    +0.000 A 
ATOM      2  C   UNL     1      47.591   8.331  13.718  0.00  0.00    +0.000 A 
ATOM      3  C   UNL     1      48.766   8.981  13.342  0.00  0.00    +0.000 A 
ATOM      4  C   UNL     1      49.441   8.538  12.206  0.00  0.00    +0.000 A 
ATOM      5  N   UNL     1      48.972   7.542  11.417  0.00  0.00    +0.000 NA
ATOM      6  C   UNL     1      47.821   6.946  11.799  0.00  0.00    +0.000 A 
ENDROOT
BRANCH   1   7
ATOM      7  O   UNL     1      46.008   6.617  13.405  0.00  0.00    +0.000 OA
BRANCH   7   8
ATOM      8  C   UNL     1      44.856   6.797  12.572  0.00  0.00    +0.000 C 
BRANCH   8  12
ATOM      9  N   UNL     1      44.027   3.631  10.837  0.00  0.00    +0.000 NA
ATOM     10  C   UNL     1      45.049   3.760  11.881  0.00  0.00    +0.000 C 
ATOM     11  C   UNL     1      44.448   4.360  13.149  0.00  0.00    +0.000 C 
ATOM     12  C   UNL     1      43.804   5.725  12.882  0.00  0.00    +0.000 C 
ATOM     13  C   UNL     1      42.807   5.593  11.721  0.00  0.00    +0.000 C 
ATOM     14  C   UNL     1      43.421   4.918  10.486  0.00  0.00    +0.000 C 
BRANCH   9  15
ATOM     15  C   UNL     1      44.543   2.928   9.640  0.00  0.00    +0.000 C 
BRANCH  15  16
ATOM     16  C   UNL     1      44.997   3.862   8.475  0.00  0.00    +0.000 C 
BRANCH  16  17
ATOM     17  C   UNL     1      45.992   3.124   7.587  0.00  0.00    +0.000 A 
ATOM     18  C   UNL     1      46.444   1.860   7.963  0.00  0.00    +0.000 A 
ATOM     19  C   UNL     1      47.352   1.202   7.143  0.00  0.00    +0.000 A 
ATOM     20  C   UNL     1      47.790   1.819   5.979  0.00  0.00    +0.000 A 
ATOM     21  C   UNL     1      47.299   3.078   5.680  0.00  0.00    +0.000 A 
ATOM     22  N   UNL     1      46.417   3.747   6.454  0.00  0.00    +0.000 NA
ENDBRANCH  16  17
BRANCH  16  23
ATOM     23  N   UNL     1      45.541   5.147   8.970  0.00  0.00    +0.000 NA
ATOM     24  H   UNL     1      44.755   5.745   9.218  0.00  0.00    +0.000 HD
ATOM     25  H   UNL     1      45.966   5.605   8.163  0.00  0.00    +0.000 HD
ENDBRANCH  16  23
ENDBRANCH  15  16
ENDBRANCH   9  15
ENDBRANCH   8  12
ENDBRANCH   7   8
ENDBRANCH   1   7
BRANCH   4  26
ATOM     26  C   UNL     1      50.734   9.179  11.772  0.00  0.00    +0.000 C 
BRANCH  26  27
ATOM     27  N   UNL     1      51.299   8.518  10.621  0.00  0.00    +0.000 N 
ATOM     28  C   UNL     1      52.605   8.118  10.577  0.00  0.00    +0.000 C 
ATOM     29  O   UNL     1      53.373   8.295  11.520  0.00  0.00    +0.000 OA
ATOM     30  H   UNL     1      50.766   8.604   9.760  0.00  0.00    +0.000 HD
BRANCH  28  31
ATOM     31  C   UNL     1      53.021   7.388   9.375  0.00  0.00    +0.000 A 
ATOM     32  C   UNL     1      53.344   6.042   9.472  0.00  0.00    +0.000 A 
ATOM     33  S   UNL     1      53.759   5.330   7.980  0.00  0.00    +0.000 S 
ATOM     34  C   UNL     1      53.566   6.807   7.159  0.00  0.00    +0.000 A 
ATOM     35  N   UNL     1      53.800   6.899   5.822  0.00  0.00    +0.000 NA
ATOM     36  C   UNL     1      53.645   8.086   5.333  0.00  0.00    +0.000 A 
ATOM     37  N   UNL     1      53.268   9.186   6.060  0.00  0.00    +0.000 N 
ATOM     38  C   UNL     1      52.966   9.125   7.399  0.00  0.00    +0.000 A 
ATOM     39  O   UNL     1      52.533  10.108   7.997  0.00  0.00    +0.000 OA
ATOM     40  C   UNL     1      53.162   7.825   8.006  0.00  0.00    +0.000 A 
ATOM     41  H   UNL     1      53.139  10.081   5.615  0.00  0.00    +0.000 HD
ENDBRANCH  28  31
ENDBRANCH  26  27
ENDBRANCH   4  26
TORSDOF 10
ENDMDL
MODEL 4
REMARK VINA RESULT:    -6.810      3.759     10.224
REMARK INTER + INTRA:         -12.040
REMARK INTER:                 -10.365
REMARK INTRA:                  -1.675
REMARK UNBOUND:                -1.448
REMARK  Name = 
REMARK  10 active torsions:
REMARK  status: ('A' for Active; 'I' for Inactive)
REMARK    1  A    between atoms: N_1  and  C_2
REMARK    2  A    between atoms: C_2  and  C_3
REMARK    3  A    between atoms: C_2  and  C_32
REMARK    4  A    between atoms: C_3  and  N_4
REMARK    5  A    between atoms: C_7  and  C_8
REMARK    6  A    between atoms: C_8  and  O_9
REMARK    7  A    between atoms: O_9  and  C_10
REMARK    8  A    between atoms: C_13  and  C_14
REMARK    9  A    between atoms: C_14  and  N_15
REMARK   10  A    between atoms: C_16  and  C_18
REMARK                            x       y       z     vdW  Elec       q    Type
REMARK                         _______ _______ _______ _____ _____    ______ ____
ROOT
ATOM      1  C   UNL     1      50.913   8.030  14.071  0.00  0.00    +0.000 A 
ATOM      2  C   UNL     1      49.749   7.637  14.722  0.00  0.00    +0.000 A 
ATOM      3  C   UNL     1      48.537   7.654  14.034  0.00  0.00    +0.000 A 
ATOM      4  C   UNL     1      48.528   8.072  12.704  0.00  0.00    +0.000 A 
ATOM      5  N   UNL     1      49.658   8.404  12.035  0.00  0.00    +0.000 NA
ATOM      6  C   UNL     1      50.818   8.359  12.725  0.00  0.00    +0.000 A 
ENDROOT
BRANCH   1   7
ATOM      7  O   UNL     1      52.062   8.066  14.808  0.00  0.00    +0.000 OA
BRANCH   7   8
ATOM      8  C   UNL     1      51.850   8.332  16.200  0.00  0.00    +0.000 C 
BRANCH   8  12
ATOM      9  N   UNL     1      52.705   5.563  18.508  0.00  0.00    +0.000 NA
ATOM     10  C   UNL     1      52.905   5.522  17.056  0.00  0.00    +0.000 C 
ATOM     11  C   UNL     1      53.755   6.704  16.598  0.00  0.00    +0.000 C 
ATOM     12  C   UNL     1      53.128   8.044  16.997  0.00  0.00    +0.000 C 
ATOM     13  C   UNL     1      52.835   8.034  18.505  0.00  0.00    +0.000 C 
ATOM     14  C   UNL     1      52.043   6.795  18.947  0.00  0.00    +0.000 C 
BRANCH   9  15
ATOM     15  C   UNL     1      52.000   4.360  19.005  0.00  0.00    +0.000 C 
BRANCH  15  16
ATOM     16  C   UNL     1      51.674   3.293  17.914  0.00  0.00    +0.000 C 
BRANCH  16  17
ATOM     17  C   UNL     1      50.188   3.343  17.577  0.00  0.00    +0.000 A 
ATOM     18  C   UNL     1      49.398   4.364  18.104  0.00  0.00    +0.000 A 
ATOM     19  C   UNL     1      48.046   4.395  17.790  0.00  0.00    +0.000 A 
ATOM     20  C   UNL     1      47.515   3.409  16.968  0.00  0.00    +0.000 A 
ATOM     21  C   UNL     1      48.365   2.426  16.490  0.00  0.00    +0.000 A 
ATOM     22  N   UNL     1      49.683   2.365  16.778  0.00  0.00    +0.000 NA
ENDBRANCH  16  17
BRANCH  16  23
ATOM     23  N   UNL     1      52.106   1.935  18.315  0.00  0.00    +0.000 NA
ATOM     24  H   UNL     1      52.427   1.448  17.479  0.00  0.00    +0.000 HD
ATOM     25  H   UNL     1      51.259   1.436  18.591  0.00  0.00    +0.000 HD
ENDBRANCH  16  23
ENDBRANCH  15  16
ENDBRANCH   9  15
ENDBRANCH   8  12
ENDBRANCH   7   8
ENDBRANCH   1   7
BRANCH   4  26
ATOM     26  C   UNL     1      47.243   8.145  11.921  0.00  0.00    +0.000 C 
BRANCH  26  27
ATOM     27  N   UNL     1      46.605   6.855  11.818  0.00  0.00    +0.000 N 
ATOM     28  C   UNL     1      45.259   6.721  11.628  0.00  0.00    +0.000 C 
ATOM     29  O   UNL     1      44.514   7.694  11.529  0.00  0.00    +0.000 OA
ATOM     30  H   UNL     1      47.150   6.067  12.157  0.00  0.00    +0.000 HD
BRANCH  28  31
ATOM     31  C   UNL     1      44.759   5.353  11.463  0.00  0.00    +0.000 A 
ATOM     32  C   UNL     1      44.019   4.768  12.482  0.00  0.00    +0.000 A 
ATOM     33  S   UNL     1      43.472   3.196  12.114  0.00  0.00    +0.000 S 
ATOM     34  C   UNL     1      44.242   3.224  10.598  0.00  0.00    +0.000 A 
ATOM     35  N   UNL     1      44.187   2.148   9.767  0.00  0.00    +0.000 NA
ATOM     36  C   UNL     1      44.841   2.293   8.661  0.00  0.00    +0.000 A 
ATOM     37  N   UNL     1      45.536   3.421   8.309  0.00  0.00    +0.000 N 
ATOM     38  C   UNL     1      45.569   4.550   9.091  0.00  0.00    +0.000 A 
ATOM     39  O   UNL     1      46.116   5.578   8.699  0.00  0.00    +0.000 OA
ATOM     40  C   UNL     1      44.884   4.427  10.361  0.00  0.00    +0.000 A 
ATOM     41  H   UNL     1      46.006   3.483   7.418  0.00  0.00    +0.000 HD
ENDBRANCH  28  31
ENDBRANCH  26  27
ENDBRANCH   4  26
TORSDOF 10
ENDMDL
MODEL 5
REMARK VINA RESULT:    -5.900      4.058     10.267
REMARK INTER + INTRA:         -10.624
REMARK INTER:                  -9.113
REMARK INTRA:                  -1.511
REMARK UNBOUND:                -1.448
REMARK  Name = 
REMARK  10 active torsions:
REMARK  status: ('A' for Active; 'I' for Inactive)
REMARK    1  A    between atoms: N_1  and  C_2
REMARK    2  A    between atoms: C_2  and  C_3
REMARK    3  A    between atoms: C_2  and  C_32
REMARK    4  A    between atoms: C_3  and  N_4
REMARK    5  A    between atoms: C_7  and  C_8
REMARK    6  A    between atoms: C_8  and  O_9
REMARK    7  A    between atoms: O_9  and  C_10
REMARK    8  A    between atoms: C_13  and  C_14
REMARK    9  A    between atoms: C_14  and  N_15
REMARK   10  A    between atoms: C_16  and  C_18
REMARK                            x       y       z     vdW  Elec       q    Type
REMARK                         _______ _______ _______ _____ _____    ______ ____
ROOT
ATOM      1  C   UNL     1      47.658   8.493  13.205  0.00  0.00    +0.000 A 
ATOM      2  C   UNL     1      47.911   7.135  13.052  0.00  0.00    +0.000 A 
ATOM      3  C   UNL     1      46.910   6.303  12.552  0.00  0.00    +0.000 A 
ATOM      4  C   UNL     1      45.676   6.861  12.225  0.00  0.00    +0.000 A 
ATOM      5  N   UNL     1      45.428   8.190  12.314  0.00  0.00    +0.000 NA
ATOM      6  C   UNL     1      46.425   8.971  12.783  0.00  0.00    +0.000 A 
ENDROOT
BRANCH   1   7
ATOM      7  O   UNL     1      48.645   9.255  13.766  0.00  0.00    +0.000 OA
BRANCH   7   8
ATOM      8  C   UNL     1      48.477   9.479  15.171  0.00  0.00    +0.000 C 
BRANCH   8  12
ATOM      9  N   UNL     1      50.852   7.876  17.518  0.00  0.00    +0.000 NA
ATOM     10  C   UNL     1      50.912   7.742  16.059  0.00  0.00    +0.000 C 
ATOM     11  C   UNL     1      50.977   9.115  15.396  0.00  0.00    +0.000 C 
ATOM     12  C   UNL     1      49.783   9.992  15.788  0.00  0.00    +0.000 C 
ATOM     13  C   UNL     1      49.676  10.043  17.319  0.00  0.00    +0.000 C 
ATOM     14  C   UNL     1      49.688   8.648  17.961  0.00  0.00    +0.000 C 
BRANCH   9  15
ATOM     15  C   UNL     1      50.925   6.563  18.199  0.00  0.00    +0.000 C 
BRANCH  15  16
ATOM     16  C   UNL     1      50.964   5.329  17.243  0.00  0.00    +0.000 C 
BRANCH  16  17
ATOM     17  C   UNL     1      49.604   4.641  17.241  0.00  0.00    +0.000 A 
ATOM     18  C   UNL     1      49.347   3.623  18.158  0.00  0.00    +0.000 A 
ATOM     19  C   UNL     1      48.104   3.005  18.142  0.00  0.00    +0.000 A 
ATOM     20  C   UNL     1      47.154   3.409  17.213  0.00  0.00    +0.000 A 
ATOM     21  C   UNL     1      47.489   4.423  16.332  0.00  0.00    +0.000 A 
ATOM     22  N   UNL     1      48.688   5.044  16.319  0.00  0.00    +0.000 NA
ENDBRANCH  16  17
BRANCH  16  23
ATOM     23  N   UNL     1      52.059   4.393  17.584  0.00  0.00    +0.000 NA
ATOM     24  H   UNL     1      52.745   4.424  16.831  0.00  0.00    +0.000 HD
ATOM     25  H   UNL     1      51.660   3.455  17.527  0.00  0.00    +0.000 HD
ENDBRANCH  16  23
ENDBRANCH  15  16
ENDBRANCH   9  15
ENDBRANCH   8  12
ENDBRANCH   7   8
ENDBRANCH   1   7
BRANCH   4  26
ATOM     26  C   UNL     1      44.546   6.005  11.716  0.00  0.00    +0.000 C 
BRANCH  26  27
ATOM     27  N   UNL     1      45.022   4.944  10.861  0.00  0.00    +0.000 N 
ATOM     28  C   UNL     1      44.204   3.943  10.417  0.00  0.00    +0.000 C 
ATOM     29  O   UNL     1      43.014   3.892  10.718  0.00  0.00    +0.000 OA
ATOM     30  H   UNL     1      46.031   4.828  10.825  0.00  0.00    +0.000 HD
BRANCH  28  31
ATOM     31  C   UNL     1      44.803   2.977   9.491  0.00  0.00    +0.000 A 
ATOM     32  C   UNL     1      44.431   1.642   9.562  0.00  0.00    +0.000 A 
ATOM     33  S   UNL     1      45.180   0.660   8.387  0.00  0.00    +0.000 S 
ATOM     34  C   UNL     1      46.062   1.977   7.770  0.00  0.00    +0.000 A 
ATOM     35  N   UNL     1      46.937   1.811   6.742  0.00  0.00    +0.000 NA
ATOM     36  C   UNL     1      47.562   2.888   6.393  0.00  0.00    +0.000 A 
ATOM     37  N   UNL     1      47.383   4.116   6.975  0.00  0.00    +0.000 N 
ATOM     38  C   UNL     1      46.469   4.340   7.976  0.00  0.00    +0.000 A 
ATOM     39  O   UNL     1      46.262   5.473   8.405  0.00  0.00    +0.000 OA
ATOM     40  C   UNL     1      45.769   3.157   8.432  0.00  0.00    +0.000 A 
ATOM     41  H   UNL     1      47.883   4.926   6.640  0.00  0.00    +0.000 HD
ENDBRANCH  28  31
ENDBRANCH  26  27
ENDBRANCH   4  26
TORSDOF 10
ENDMDL
