MODEL 1
REMARK VINA RESULT:    -7.824      0.000      0.000
REMARK INTER + INTRA:         -11.092
REMARK INTER:                 -10.111
REMARK INTRA:                  -0.981
REMARK UNBOUND:                -0.981
REMARK  Name = 
REMARK  6 active torsions:
REMARK  status: ('A' for Active; 'I' for Inactive)
REMARK    1  A    between atoms: C_1  and  C_2
REMARK    2  A    between atoms: N_9  and  C_10
REMARK    3  A    between atoms: C_10  and  C_11
REMARK    4  A    between atoms: C_14  and  C_15
REMARK    5  A    between atoms: C_15  and  N_16
REMARK    6  A    between atoms: C_17  and  C_19
REMARK                            x       y       z     vdW  Elec       q    Type
REMARK                         _______ _______ _______ _____ _____    ______ ____
ROOT
ATOM      1  C   UNL     1      47.748   8.067  13.710  0.00  0.00    +0.000 A 
ATOM      2  C   UNL     1      47.920   6.827  13.138  0.00  0.00    +0.000 A 
ATOM      3  C   UNL     1      46.991   6.316  12.255  0.00  0.00    +0.000 A 
ATOM      4  C   UNL     1      45.880   7.031  11.878  0.00  0.00    +0.000 A 
ATOM      5  C   UNL     1      45.687   8.234  12.517  0.00  0.00    +0.000 A 
ATOM      6  C   UNL     1      46.671   8.818  13.295  0.00  0.00    +0.000 A 
ENDROOT
BRANCH   1   7
ATOM      7  C   UNL     1      48.686   8.534  14.775  0.00  0.00    +0.000 C 
BRANCH   7  16
ATOM      8  C   UNL     1      47.509   4.467  17.756  0.00  0.00    +0.000 C 
ATOM      9  C   UNL     1      47.717   5.662  18.568  0.00  0.00    +0.000 A 
ATOM     10  C   UNL     1      47.371   5.847  19.885  0.00  0.00    +0.000 A 
ATOM     11  C   UNL     1      47.758   7.119  20.255  0.00  0.00    +0.000 A 
ATOM     12  C   UNL     1      48.320   7.694  19.154  0.00  0.00    +0.000 A 
ATOM     13  N   UNL     1      48.304   6.826  18.085  0.00  0.00    +0.000 N 
ATOM     14  C   UNL     1      48.815   7.097  16.785  0.00  0.00    +0.000 C 
ATOM     15  O   UNL     1      49.712   6.404  16.336  0.00  0.00    +0.000 OA
ATOM     16  N   UNL     1      48.250   8.158  16.106  0.00  0.00    +0.000 N 
ATOM     17  H   UNL     1      47.508   8.713  16.480  0.00  0.00    +0.000 HD
ENDBRANCH   7  16
ENDBRANCH   1   7
BRANCH   4  18
ATOM     18  C   UNL     1      44.946   6.547  10.805  0.00  0.00    +0.000 C 
BRANCH  18  19
ATOM     19  N   UNL     1      45.371   5.287  10.196  0.00  0.00    +0.000 N 
ATOM     20  C   UNL     1      44.477   4.277   9.865  0.00  0.00    +0.000 C 
ATOM     21  O   UNL     1      43.273   4.409  10.078  0.00  0.00    +0.000 OA
ATOM     22  H   UNL     1      46.362   5.185   9.999  0.00  0.00    +0.000 HD
BRANCH  20  23
ATOM     23  C   UNL     1      44.990   3.042   9.231  0.00  0.00    +0.000 A 
ATOM     24  C   UNL     1      44.535   1.753   9.535  0.00  0.00    +0.000 A 
ATOM     25  O   UNL     1      45.176   0.822   8.756  0.00  0.00    +0.000 OA
ATOM     26  C   UNL     1      46.050   1.460   7.933  0.00  0.00    +0.000 A 
ATOM     27  N   UNL     1      46.875   0.892   7.022  0.00  0.00    +0.000 NA
ATOM     28  C   UNL     1      47.513   1.777   6.466  0.00  0.00    +0.000 A 
ATOM     29  N   UNL     1      48.168   2.670   5.890  0.00  0.00    +0.000 N 
ATOM     30  C   UNL     1      47.062   3.602   7.177  0.00  0.00    +0.000 A 
ATOM     31  O   UNL     1      46.826   4.767   7.575  0.00  0.00    +0.000 OA
ATOM     32  C   UNL     1      46.010   2.802   8.141  0.00  0.00    +0.000 A 
ATOM     33  H   UNL     1      48.667   1.687   5.290  0.00  0.00    +0.000 HD
ENDBRANCH  20  23
ENDBRANCH  18  19
ENDBRANCH   4  18
TORSDOF 5
ENDMDL
MODEL 2
REMARK VINA RESULT:    -7.392      5.546      7.859
REMARK INTER + INTRA:         -10.534
REMARK INTER:                  -9.834
REMARK INTRA:                  -0.700
REMARK UNBOUND:                -0.981
REMARK  Name = 
REMARK  6 active torsions:
REMARK  status: ('A' for Active; 'I' for Inactive)
REMARK    1  A    between atoms: C_1  and  C_2
REMARK    2  A    between atoms: N_9  and  C_10
REMARK    3  A    between atoms: C_10  and  C_11
REMARK    4  A    between atoms: C_14  and  C_15
REMARK    5  A    between atoms: C_15  and  N_16
REMARK    6  A    between atoms: C_17  and  C_19
REMARK                            x       y       z     vdW  Elec       q    Type
REMARK                         _______ _______ _______ _____ _____    ______ ____
ROOT
ATOM      1  C   UNL     1      51.464   3.302  17.785  0.00  0.00    +0.000 A 
ATOM      2  C   UNL     1      50.807   2.198  17.291  0.00  0.00    +0.000 A 
ATOM      3  C   UNL     1      49.436   2.198  17.135  0.00  0.00    +0.000 A 
ATOM      4  C   UNL     1      48.674   3.302  17.426  0.00  0.00    +0.000 A 
ATOM      5  C   UNL     1      49.337   4.368  17.988  0.00  0.00    +0.000 A 
ATOM      6  C   UNL     1      50.719   4.435  18.023  0.00  0.00    +0.000 A 
ENDROOT
BRANCH   1   7
ATOM      7  C   UNL     1      52.925   3.227  18.087  0.00  0.00    +0.000 C 
BRANCH   7  16
ATOM      8  C   UNL     1      54.776  -1.201  16.143  0.00  0.00    +0.000 C 
ATOM      9  C   UNL     1      54.952  -1.157  17.592  0.00  0.00    +0.000 A 
ATOM     10  C   UNL     1      55.262  -2.204  18.427  0.00  0.00    +0.000 A 
ATOM     11  C   UNL     1      55.339  -1.715  19.714  0.00  0.00    +0.000 A 
ATOM     12  C   UNL     1      55.061  -0.382  19.646  0.00  0.00    +0.000 A 
ATOM     13  N   UNL     1      54.806  -0.000  18.348  0.00  0.00    +0.000 N 
ATOM     14  C   UNL     1      54.490   1.318  17.914  0.00  0.00    +0.000 C 
ATOM     15  O   UNL     1      55.219   1.878  17.114  0.00  0.00    +0.000 OA
ATOM     16  N   UNL     1      53.352   1.889  18.450  0.00  0.00    +0.000 N 
ATOM     17  H   UNL     1      52.756   1.416  19.097  0.00  0.00    +0.000 HD
ENDBRANCH   7  16
ENDBRANCH   1   7
BRANCH   4  18
ATOM     18  C   UNL     1      47.204   3.362  17.116  0.00  0.00    +0.000 C 
BRANCH  18  19
ATOM     19  N   UNL     1      46.873   4.342  16.082  0.00  0.00    +0.000 N 
ATOM     20  C   UNL     1      46.999   4.069  14.725  0.00  0.00    +0.000 C 
ATOM     21  O   UNL     1      47.403   2.973  14.339  0.00  0.00    +0.000 OA
ATOM     22  H   UNL     1      46.518   5.239  16.397  0.00  0.00    +0.000 HD
BRANCH  20  23
ATOM     23  C   UNL     1      46.621   5.110  13.745  0.00  0.00    +0.000 A 
ATOM     24  C   UNL     1      47.488   6.107  13.279  0.00  0.00    +0.000 A 
ATOM     25  O   UNL     1      46.856   6.896  12.351  0.00  0.00    +0.000 OA
ATOM     26  C   UNL     1      45.583   6.450  12.182  0.00  0.00    +0.000 A 
ATOM     27  N   UNL     1      44.640   6.967  11.360  0.00  0.00    +0.000 NA
ATOM     28  C   UNL     1      43.617   6.303  11.470  0.00  0.00    +0.000 A 
ATOM     29  N   UNL     1      42.569   5.631  11.572  0.00  0.00    +0.000 N 
ATOM     30  C   UNL     1      43.816   4.817  12.809  0.00  0.00    +0.000 A 
ATOM     31  O   UNL     1      43.875   3.871  13.631  0.00  0.00    +0.000 OA
ATOM     32  C   UNL     1      45.345   5.373  12.975  0.00  0.00    +0.000 A 
ATOM     33  H   UNL     1      42.150   6.467  10.734  0.00  0.00    +0.000 HD
ENDBRANCH  20  23
ENDBRANCH  18  19
ENDBRANCH   4  18
TORSDOF 5
ENDMDL
MODEL 3
REMARK VINA RESULT:    -7.253      1.935      9.722
REMARK INTER + INTRA:         -10.354
REMARK INTER:                  -9.439
REMARK INTRA:                  -0.916
REMARK UNBOUND:                -0.981
REMARK  Name = 
REMARK  6 active torsions:
REMARK  status: ('A' for Active; 'I' for Inactive)
REMARK    1  A    between atoms: C_1  and  C_2
REMARK    2  A    between atoms: N_9  and  C_10
REMARK    3  A    between atoms: C_10  and  C_11
REMARK    4  A    between atoms: C_14  and  C_15
REMARK    5  A    between atoms: C_15  and  N_16
REMARK    6  A    between atoms: C_17  and  C_19
REMARK                            x       y       z     vdW  Elec       q    Type
REMARK                         _______ _______ _______ _____ _____    ______ ____
ROOT
ATOM      1  C   UNL     1      45.174   5.445  11.275  0.00  0.00    +0.000 A 
ATOM      2  C   UNL     1      46.176   5.072  12.140  0.00  0.00    +0.000 A 
ATOM      3  C   UNL     1      46.852   6.011  12.893  0.00  0.00    +0.000 A 
ATOM      4  C   UNL     1      46.532   7.345  12.843  0.00  0.00    +0.000 A 
ATOM      5  C   UNL     1      45.581   7.708  11.918  0.00  0.00    +0.000 A 
ATOM      6  C   UNL     1      44.803   6.771  11.260  0.00  0.00    +0.000 A 
ENDROOT
BRANCH   1   7
ATOM      7  C   UNL     1      44.562   4.433  10.362  0.00  0.00    +0.000 C 
BRANCH   7  16
ATOM      8  C   UNL     1      46.749   0.431   7.909  0.00  0.00    +0.000 C 
ATOM      9  C   UNL     1      46.808   1.638   7.089  0.00  0.00    +0.000 A 
ATOM     10  C   UNL     1      47.576   1.848   5.968  0.00  0.00    +0.000 A 
ATOM     11  C   UNL     1      47.316   3.121   5.504  0.00  0.00    +0.000 A 
ATOM     12  C   UNL     1      46.404   3.671   6.357  0.00  0.00    +0.000 A 
ATOM     13  N   UNL     1      46.072   2.786   7.358  0.00  0.00    +0.000 N 
ATOM     14  C   UNL     1      45.146   3.028   8.411  0.00  0.00    +0.000 C 
ATOM     15  O   UNL     1      44.162   2.317   8.520  0.00  0.00    +0.000 OA
ATOM     16  N   UNL     1      45.430   4.085   9.252  0.00  0.00    +0.000 N 
ATOM     17  H   UNL     1      46.245   4.656   9.159  0.00  0.00    +0.000 HD
ENDBRANCH   7  16
ENDBRANCH   1   7
BRANCH   4  18
ATOM     18  C   UNL     1      47.157   8.351  13.768  0.00  0.00    +0.000 C 
BRANCH  18  19
ATOM     19  N   UNL     1      47.894   7.738  14.873  0.00  0.00    +0.000 N 
ATOM     20  C   UNL     1      49.268   7.543  14.839  0.00  0.00    +0.000 C 
ATOM     21  O   UNL     1      49.927   7.884  13.858  0.00  0.00    +0.000 OA
ATOM     22  H   UNL     1      47.355   7.476  15.693  0.00  0.00    +0.000 HD
BRANCH  20  23
ATOM     23  C   UNL     1      49.938   6.935  16.010  0.00  0.00    +0.000 A 
ATOM     24  C   UNL     1      51.111   7.429  16.593  0.00  0.00    +0.000 A 
ATOM     25  O   UNL     1      51.462   6.672  17.682  0.00  0.00    +0.000 OA
ATOM     26  C   UNL     1      50.547   5.679  17.844  0.00  0.00    +0.000 A 
ATOM     27  N   UNL     1      50.546   4.720  18.800  0.00  0.00    +0.000 NA
ATOM     28  C   UNL     1      49.566   4.003  18.635  0.00  0.00    +0.000 A 
ATOM     29  N   UNL     1      48.570   3.267  18.477  0.00  0.00    +0.000 N 
ATOM     30  C   UNL     1      48.474   4.565  17.043  0.00  0.00    +0.000 A 
ATOM     31  O   UNL     1      47.748   4.863  16.065  0.00  0.00    +0.000 OA
ATOM     32  C   UNL     1      49.585   5.754  16.888  0.00  0.00    +0.000 A 
ATOM     33  H   UNL     1      49.056   2.678  19.473  0.00  0.00    +0.000 HD
ENDBRANCH  20  23
ENDBRANCH  18  19
ENDBRANCH   4  18
TORSDOF 5
ENDMDL
MODEL 4
REMARK VINA RESULT:    -7.134      1.817      2.359
REMARK INTER + INTRA:         -10.199
REMARK INTER:                  -9.193
REMARK INTRA:                  -1.007
REMARK UNBOUND:                -0.981
REMARK  Name = 
REMARK  6 active torsions:
REMARK  status: ('A' for Active; 'I' for Inactive)
REMARK    1  A    between atoms: C_1  and  C_2
REMARK    2  A    between atoms: N_9  and  C_10
REMARK    3  A    between atoms: C_10  and  C_11
REMARK    4  A    between atoms: C_14  and  C_15
REMARK    5  A    between atoms: C_15  and  N_16
REMARK    6  A    between atoms: C_17  and  C_19
REMARK                            x       y       z     vdW  Elec       q    Type
REMARK                         _______ _______ _______ _____ _____    ______ ____
ROOT
ATOM      1  C   UNL     1      49.243   7.958  14.920  0.00  0.00    +0.000 A 
ATOM      2  C   UNL     1      49.073   6.955  13.994  0.00  0.00    +0.000 A 
ATOM      3  C   UNL     1      47.970   6.932  13.165  0.00  0.00    +0.000 A 
ATOM      4  C   UNL     1      47.017   7.920  13.200  0.00  0.00    +0.000 A 
ATOM      5  C   UNL     1      47.164   8.871  14.183  0.00  0.00    +0.000 A 
ATOM      6  C   UNL     1      48.327   8.986  14.924  0.00  0.00    +0.000 A 
ENDROOT
BRANCH   1   7
ATOM      7  C   UNL     1      50.363   7.881  15.906  0.00  0.00    +0.000 C 
BRANCH   7  16
ATOM      8  C   UNL     1      48.099   3.757  18.070  0.00  0.00    +0.000 C 
ATOM      9  C   UNL     1      48.797   4.553  19.075  0.00  0.00    +0.000 A 
ATOM     10  C   UNL     1      48.668   4.471  20.441  0.00  0.00    +0.000 A 
ATOM     11  C   UNL     1      49.517   5.399  21.007  0.00  0.00    +0.000 A 
ATOM     12  C   UNL     1      50.139   6.041  19.978  0.00  0.00    +0.000 A 
ATOM     13  N   UNL     1      49.712   5.552  18.764  0.00  0.00    +0.000 N 
ATOM     14  C   UNL     1      50.161   5.987  17.485  0.00  0.00    +0.000 C 
ATOM     15  O   UNL     1      50.703   5.193  16.737  0.00  0.00    +0.000 OA
ATOM     16  N   UNL     1      49.951   7.317  17.177  0.00  0.00    +0.000 N 
ATOM     17  H   UNL     1      49.495   7.957  17.795  0.00  0.00    +0.000 HD
ENDBRANCH   7  16
ENDBRANCH   1   7
BRANCH   4  18
ATOM     18  C   UNL     1      45.896   7.983  12.202  0.00  0.00    +0.000 C 
BRANCH  18  19
ATOM     19  N   UNL     1      45.609   6.693  11.575  0.00  0.00    +0.000 N 
ATOM     20  C   UNL     1      44.652   5.817  12.069  0.00  0.00    +0.000 C 
ATOM     21  O   UNL     1      44.000   6.099  13.074  0.00  0.00    +0.000 OA
ATOM     22  H   UNL     1      46.130   6.467  10.733  0.00  0.00    +0.000 HD
BRANCH  20  23
ATOM     23  C   UNL     1      44.410   4.541  11.361  0.00  0.00    +0.000 A 
ATOM     24  C   UNL     1      43.624   3.496  11.863  0.00  0.00    +0.000 A 
ATOM     25  O   UNL     1      43.561   2.466  10.959  0.00  0.00    +0.000 OA
ATOM     26  C   UNL     1      44.287   2.797   9.858  0.00  0.00    +0.000 A 
ATOM     27  N   UNL     1      44.478   2.043   8.750  0.00  0.00    +0.000 NA
ATOM     28  C   UNL     1      45.182   2.668   7.967  0.00  0.00    +0.000 A 
ATOM     29  N   UNL     1      45.899   3.297   7.160  0.00  0.00    +0.000 N 
ATOM     30  C   UNL     1      45.730   4.458   8.700  0.00  0.00    +0.000 A 
ATOM     31  O   UNL     1      46.105   5.587   9.098  0.00  0.00    +0.000 OA
ATOM     32  C   UNL     1      44.836   4.032  10.001  0.00  0.00    +0.000 A 
ATOM     33  H   UNL     1      45.753   2.255   6.476  0.00  0.00    +0.000 HD
ENDBRANCH  20  23
ENDBRANCH  18  19
ENDBRANCH   4  18
TORSDOF 5
ENDMDL
MODEL 5
REMARK VINA RESULT:    -6.959      2.221      9.865
REMARK INTER + INTRA:          -9.974
REMARK INTER:                  -9.035
REMARK INTRA:                  -0.939
REMARK UNBOUND:                -0.981
REMARK  Name = 
REMARK  6 active torsions:
REMARK  status: ('A' for Active; 'I' for Inactive)
REMARK    1  A    between atoms: C_1  and  C_2
REMARK    2  A    between atoms: N_9  and  C_10
REMARK    3  A    between atoms: C_10  and  C_11
REMARK    4  A    between atoms: C_14  and  C_15
REMARK    5  A    between atoms: C_15  and  N_16
REMARK    6  A    between atoms: C_17  and  C_19
REMARK                            x       y       z     vdW  Elec       q    Type
REMARK                         _______ _______ _______ _____ _____    ______ ____
ROOT
ATOM      1  C   UNL     1      45.066   4.918  11.573  0.00  0.00    +0.000 A 
ATOM      2  C   UNL     1      45.904   5.050  12.656  0.00  0.00    +0.000 A 
ATOM      3  C   UNL     1      46.216   6.294  13.167  0.00  0.00    +0.000 A 
ATOM      4  C   UNL     1      45.679   7.446  12.647  0.00  0.00    +0.000 A 
ATOM      5  C   UNL     1      44.905   7.300  11.519  0.00  0.00    +0.000 A 
ATOM      6  C   UNL     1      44.474   6.059  11.081  0.00  0.00    +0.000 A 
ENDROOT
BRANCH   1   7
ATOM      7  C   UNL     1      44.865   3.578  10.945  0.00  0.00    +0.000 C 
BRANCH   7  16
ATOM      8  C   UNL     1      46.859   0.044   7.728  0.00  0.00    +0.000 C 
ATOM      9  C   UNL     1      46.794   1.353   7.085  0.00  0.00    +0.000 A 
ATOM     10  C   UNL     1      47.424   1.747   5.929  0.00  0.00    +0.000 A 
ATOM     11  C   UNL     1      47.082   3.060   5.681  0.00  0.00    +0.000 A 
ATOM     12  C   UNL     1      46.259   3.450   6.696  0.00  0.00    +0.000 A 
ATOM     13  N   UNL     1      46.065   2.422   7.592  0.00  0.00    +0.000 N 
ATOM     14  C   UNL     1      45.258   2.480   8.763  0.00  0.00    +0.000 C 
ATOM     15  O   UNL     1      44.312   1.721   8.878  0.00  0.00    +0.000 OA
ATOM     16  N   UNL     1      45.609   3.422   9.710  0.00  0.00    +0.000 N 
ATOM     17  H   UNL     1      46.394   4.032   9.610  0.00  0.00    +0.000 HD
ENDBRANCH   7  16
ENDBRANCH   1   7
BRANCH   4  18
ATOM     18  C   UNL     1      45.891   8.787  13.290  0.00  0.00    +0.000 C 
BRANCH  18  19
ATOM     19  N   UNL     1      47.052   8.822  14.178  0.00  0.00    +0.000 N 
ATOM     20  C   UNL     1      48.215   9.514  13.864  0.00  0.00    +0.000 C 
ATOM     21  O   UNL     1      48.311  10.132  12.805  0.00  0.00    +0.000 OA
ATOM     22  H   UNL     1      46.967   8.332  15.063  0.00  0.00    +0.000 HD
BRANCH  20  23
ATOM     23  C   UNL     1      49.335   9.516  14.830  0.00  0.00    +0.000 A 
ATOM     24  C   UNL     1      50.166  10.617  15.073  0.00  0.00    +0.000 A 
ATOM     25  O   UNL     1      51.084  10.319  16.048  0.00  0.00    +0.000 OA
ATOM     26  C   UNL     1      50.886   9.041  16.467  0.00  0.00    +0.000 A 
ATOM     27  N   UNL     1      51.593   8.373  17.410  0.00  0.00    +0.000 NA
ATOM     28  C   UNL     1      51.127   7.246  17.525  0.00  0.00    +0.000 A 
ATOM     29  N   UNL     1      50.659   6.096  17.651  0.00  0.00    +0.000 N 
ATOM     30  C   UNL     1      49.593   6.927  16.264  0.00  0.00    +0.000 A 
ATOM     31  O   UNL     1      48.631   6.663  15.505  0.00  0.00    +0.000 OA
ATOM     32  C   UNL     1      49.851   8.472  15.796  0.00  0.00    +0.000 A 
ATOM     33  H   UNL     1      51.580   5.994  18.497  0.00  0.00    +0.000 HD
ENDBRANCH  20  23
ENDBRANCH  18  19
ENDBRANCH   4  18
TORSDOF 5
ENDMDL
MODEL 6
REMARK VINA RESULT:    -6.945      3.578      9.283
REMARK INTER + INTRA:          -9.955
REMARK INTER:                  -9.166
REMARK INTRA:                  -0.789
REMARK UNBOUND:                -0.981
REMARK  Name = 
REMARK  6 active torsions:
REMARK  status: ('A' for Active; 'I' for Inactive)
REMARK    1  A    between atoms: C_1  and  C_2
REMARK    2  A    between atoms: N_9  and  C_10
REMARK    3  A    between atoms: C_10  and  C_11
REMARK    4  A    between atoms: C_14  and  C_15
REMARK    5  A    between atoms: C_15  and  N_16
REMARK    6  A    between atoms: C_17  and  C_19
REMARK                            x       y       z     vdW  Elec       q    Type
REMARK                         _______ _______ _______ _____ _____    ______ ____
ROOT
ATOM      1  C   UNL     1      47.269   7.446  13.217  0.00  0.00    +0.000 A 
ATOM      2  C   UNL     1      47.445   6.167  13.694  0.00  0.00    +0.000 A 
ATOM      3  C   UNL     1      48.153   5.931  14.855  0.00  0.00    +0.000 A 
ATOM      4  C   UNL     1      48.678   6.955  15.603  0.00  0.00    +0.000 A 
ATOM      5  C   UNL     1      48.558   8.219  15.073  0.00  0.00    +0.000 A 
ATOM      6  C   UNL     1      47.738   8.485  13.990  0.00  0.00    +0.000 A 
ENDROOT
BRANCH   1   7
ATOM      7  C   UNL     1      46.633   7.664  11.884  0.00  0.00    +0.000 C 
BRANCH   7  16
ATOM      8  C   UNL     1      43.902   3.272  12.143  0.00  0.00    +0.000 C 
ATOM      9  C   UNL     1      44.415   3.485  10.792  0.00  0.00    +0.000 A 
ATOM     10  C   UNL     1      44.479   2.570   9.770  0.00  0.00    +0.000 A 
ATOM     11  C   UNL     1      45.025   3.196   8.668  0.00  0.00    +0.000 A 
ATOM     12  C   UNL     1      45.298   4.479   9.041  0.00  0.00    +0.000 A 
ATOM     13  N   UNL     1      44.943   4.694  10.354  0.00  0.00    +0.000 N 
ATOM     14  C   UNL     1      45.082   5.920  11.064  0.00  0.00    +0.000 C 
ATOM     15  O   UNL     1      44.092   6.465  11.519  0.00  0.00    +0.000 OA
ATOM     16  N   UNL     1      46.362   6.423  11.184  0.00  0.00    +0.000 N 
ATOM     17  H   UNL     1      47.168   5.962  10.816  0.00  0.00    +0.000 HD
ENDBRANCH   7  16
ENDBRANCH   1   7
BRANCH   4  18
ATOM     18  C   UNL     1      49.316   6.719  16.943  0.00  0.00    +0.000 C 
BRANCH  18  19
ATOM     19  N   UNL     1      50.113   5.494  16.993  0.00  0.00    +0.000 N 
ATOM     20  C   UNL     1      49.656   4.328  17.593  0.00  0.00    +0.000 C 
ATOM     21  O   UNL     1      48.544   4.284  18.116  0.00  0.00    +0.000 OA
ATOM     22  H   UNL     1      51.023   5.521  16.543  0.00  0.00    +0.000 HD
BRANCH  20  23
ATOM     23  C   UNL     1      50.519   3.126  17.580  0.00  0.00    +0.000 A 
ATOM     24  C   UNL     1      50.175   1.915  16.966  0.00  0.00    +0.000 A 
ATOM     25  O   UNL     1      51.196   1.006  17.093  0.00  0.00    +0.000 OA
ATOM     26  C   UNL     1      52.220   1.583  17.778  0.00  0.00    +0.000 A 
ATOM     27  N   UNL     1      53.400   1.010  18.114  0.00  0.00    +0.000 NA
ATOM     28  C   UNL     1      54.074   1.832  18.723  0.00  0.00    +0.000 A 
ATOM     29  N   UNL     1      54.771   2.662  19.343  0.00  0.00    +0.000 N 
ATOM     30  C   UNL     1      53.114   3.583  18.952  0.00  0.00    +0.000 A 
ATOM     31  O   UNL     1      52.572   4.700  19.128  0.00  0.00    +0.000 OA
ATOM     32  C   UNL     1      51.910   2.862  18.113  0.00  0.00    +0.000 A 
ATOM     33  H   UNL     1      55.579   1.702  19.385  0.00  0.00    +0.000 HD
ENDBRANCH  20  23
ENDBRANCH  18  19
ENDBRANCH   4  18
TORSDOF 5
ENDMDL
MODEL 7
REMARK VINA RESULT:    -6.899      5.726      8.331
REMARK INTER + INTRA:          -9.896
REMARK INTER:                  -8.930
REMARK INTRA:                  -0.966
REMARK UNBOUND:                -0.981
REMARK  Name = 
REMARK  6 active torsions:
REMARK  status: ('A' for Active; 'I' for Inactive)
REMARK    1  A    between atoms: C_1  and  C_2
REMARK    2  A    between atoms: N_9  and  C_10
REMARK    3  A    between atoms: C_10  and  C_11
REMARK    4  A    between atoms: C_14  and  C_15
REMARK    5  A    between atoms: C_15  and  N_16
REMARK    6  A    between atoms: C_17  and  C_19
REMARK                            x       y       z     vdW  Elec       q    Type
REMARK                         _______ _______ _______ _____ _____    ______ ____
ROOT
ATOM      1  C   UNL     1      51.468   2.776  17.746  0.00  0.00    +0.000 A 
ATOM      2  C   UNL     1      50.643   1.840  17.165  0.00  0.00    +0.000 A 
ATOM      3  C   UNL     1      49.315   2.121  16.914  0.00  0.00    +0.000 A 
ATOM      4  C   UNL     1      48.769   3.349  17.195  0.00  0.00    +0.000 A 
ATOM      5  C   UNL     1      49.588   4.245  17.843  0.00  0.00    +0.000 A 
ATOM      6  C   UNL     1      50.948   4.031  17.975  0.00  0.00    +0.000 A 
ENDROOT
BRANCH   1   7
ATOM      7  C   UNL     1      52.857   2.400  18.145  0.00  0.00    +0.000 C 
BRANCH   7  16
ATOM      8  C   UNL     1      55.632  -1.372  15.935  0.00  0.00    +0.000 C 
ATOM      9  C   UNL     1      54.993  -1.847  17.160  0.00  0.00    +0.000 A 
ATOM     10  C   UNL     1      54.841  -3.149  17.570  0.00  0.00    +0.000 A 
ATOM     11  C   UNL     1      54.190  -3.141  18.787  0.00  0.00    +0.000 A 
ATOM     12  C   UNL     1      53.944  -1.835  19.091  0.00  0.00    +0.000 A 
ATOM     13  N   UNL     1      54.418  -1.003  18.102  0.00  0.00    +0.000 N 
ATOM     14  C   UNL     1      54.337   0.418  18.100  0.00  0.00    +0.000 C 
ATOM     15  O   UNL     1      55.362   1.077  18.068  0.00  0.00    +0.000 OA
ATOM     16  N   UNL     1      53.070   0.965  18.143  0.00  0.00    +0.000 N 
ATOM     17  H   UNL     1      52.236   0.415  18.158  0.00  0.00    +0.000 HD
ENDBRANCH   7  16
ENDBRANCH   1   7
BRANCH   4  18
ATOM     18  C   UNL     1      47.369   3.712  16.786  0.00  0.00    +0.000 C 
BRANCH  18  19
ATOM     19  N   UNL     1      47.320   4.746  15.753  0.00  0.00    +0.000 N 
ATOM     20  C   UNL     1      47.221   4.447  14.400  0.00  0.00    +0.000 C 
ATOM     21  O   UNL     1      47.173   3.280  14.016  0.00  0.00    +0.000 OA
ATOM     22  H   UNL     1      47.337   5.710  16.069  0.00  0.00    +0.000 HD
BRANCH  20  23
ATOM     23  C   UNL     1      47.155   5.555  13.422  0.00  0.00    +0.000 A 
ATOM     24  C   UNL     1      46.167   5.681  12.437  0.00  0.00    +0.000 A 
ATOM     25  O   UNL     1      46.356   6.830  11.712  0.00  0.00    +0.000 OA
ATOM     26  C   UNL     1      47.450   7.481  12.190  0.00  0.00    +0.000 A 
ATOM     27  N   UNL     1      47.968   8.647  11.736  0.00  0.00    +0.000 NA
ATOM     28  C   UNL     1      48.950   8.928  12.412  0.00  0.00    +0.000 A 
ATOM     29  N   UNL     1      49.952   9.227  13.095  0.00  0.00    +0.000 N 
ATOM     30  C   UNL     1      49.329   7.541  13.817  0.00  0.00    +0.000 A 
ATOM     31  O   UNL     1      49.620   6.715  14.714  0.00  0.00    +0.000 OA
ATOM     32  C   UNL     1      48.000   6.795  13.225  0.00  0.00    +0.000 A 
ATOM     33  H   UNL     1      49.984  10.210  12.316  0.00  0.00    +0.000 HD
ENDBRANCH  20  23
ENDBRANCH  18  19
ENDBRANCH   4  18
TORSDOF 5
ENDMDL
MODEL 8
REMARK VINA RESULT:    -6.768      2.637      3.304
REMARK INTER + INTRA:          -9.727
REMARK INTER:                  -8.927
REMARK INTRA:                  -0.800
REMARK UNBOUND:                -0.981
REMARK  Name = 
REMARK  6 active torsions:
REMARK  status: ('A' for Active; 'I' for Inactive)
REMARK    1  A    between atoms: C_1  and  C_2
REMARK    2  A    between atoms: N_9  and  C_10
REMARK    3  A    between atoms: C_10  and  C_11
REMARK    4  A    between atoms: C_14  and  C_15
REMARK    5  A    between atoms: C_15  and  N_16
REMARK    6  A    between atoms: C_17  and  C_19
REMARK                            x       y       z     vdW  Elec       q    Type
REMARK                         _______ _______ _______ _____ _____    ______ ____
ROOT
ATOM      1  C   UNL     1      49.291   8.125  14.494  0.00  0.00    +0.000 A 
ATOM      2  C   UNL     1      49.120   7.198  13.491  0.00  0.00    +0.000 A 
ATOM      3  C   UNL     1      47.946   7.142  12.767  0.00  0.00    +0.000 A 
ATOM      4  C   UNL     1      46.918   8.024  12.986  0.00  0.00    +0.000 A 
ATOM      5  C   UNL     1      47.076   8.893  14.041  0.00  0.00    +0.000 A 
ATOM      6  C   UNL     1      48.292   9.053  14.682  0.00  0.00    +0.000 A 
ENDROOT
BRANCH   1   7
ATOM      7  C   UNL     1      50.504   8.068  15.362  0.00  0.00    +0.000 C 
BRANCH   7  16
ATOM      8  C   UNL     1      53.987   5.262  17.972  0.00  0.00    +0.000 C 
ATOM      9  C   UNL     1      52.743   4.517  17.801  0.00  0.00    +0.000 A 
ATOM     10  C   UNL     1      52.544   3.171  17.993  0.00  0.00    +0.000 A 
ATOM     11  C   UNL     1      51.219   2.892  17.728  0.00  0.00    +0.000 A 
ATOM     12  C   UNL     1      50.635   4.070  17.365  0.00  0.00    +0.000 A 
ATOM     13  N   UNL     1      51.550   5.099  17.389  0.00  0.00    +0.000 N 
ATOM     14  C   UNL     1      51.280   6.461  17.076  0.00  0.00    +0.000 C 
ATOM     15  O   UNL     1      51.459   7.318  17.923  0.00  0.00    +0.000 OA
ATOM     16  N   UNL     1      50.816   6.721  15.802  0.00  0.00    +0.000 N 
ATOM     17  H   UNL     1      50.683   6.011  15.112  0.00  0.00    +0.000 HD
ENDBRANCH   7  16
ENDBRANCH   1   7
BRANCH   4  18
ATOM     18  C   UNL     1      45.702   8.068  12.103  0.00  0.00    +0.000 C 
BRANCH  18  19
ATOM     19  N   UNL     1      45.414   6.788  11.456  0.00  0.00    +0.000 N 
ATOM     20  C   UNL     1      44.673   5.788  12.073  0.00  0.00    +0.000 C 
ATOM     21  O   UNL     1      44.227   5.945  13.208  0.00  0.00    +0.000 OA
ATOM     22  H   UNL     1      45.762   6.664  10.511  0.00  0.00    +0.000 HD
BRANCH  20  23
ATOM     23  C   UNL     1      44.409   4.531  11.338  0.00  0.00    +0.000 A 
ATOM     24  C   UNL     1      43.598   3.494  11.815  0.00  0.00    +0.000 A 
ATOM     25  O   UNL     1      43.520   2.483  10.891  0.00  0.00    +0.000 OA
ATOM     26  C   UNL     1      44.261   2.819   9.802  0.00  0.00    +0.000 A 
ATOM     27  N   UNL     1      44.444   2.082   8.681  0.00  0.00    +0.000 NA
ATOM     28  C   UNL     1      45.168   2.707   7.915  0.00  0.00    +0.000 A 
ATOM     29  N   UNL     1      45.904   3.335   7.126  0.00  0.00    +0.000 N 
ATOM     30  C   UNL     1      45.748   4.471   8.686  0.00  0.00    +0.000 A 
ATOM     31  O   UNL     1      46.144   5.583   9.108  0.00  0.00    +0.000 OA
ATOM     32  C   UNL     1      44.835   4.039   9.972  0.00  0.00    +0.000 A 
ATOM     33  H   UNL     1      45.741   2.310   6.420  0.00  0.00    +0.000 HD
ENDBRANCH  20  23
ENDBRANCH  18  19
ENDBRANCH   4  18
TORSDOF 5
ENDMDL
MODEL 9
REMARK VINA RESULT:    -6.671      4.042      5.703
REMARK INTER + INTRA:          -9.602
REMARK INTER:                  -8.690
REMARK INTRA:                  -0.912
REMARK UNBOUND:                -0.981
REMARK  Name = 
REMARK  6 active torsions:
REMARK  status: ('A' for Active; 'I' for Inactive)
REMARK    1  A    between atoms: C_1  and  C_2
REMARK    2  A    between atoms: N_9  and  C_10
REMARK    3  A    between atoms: C_10  and  C_11
REMARK    4  A    between atoms: C_14  and  C_15
REMARK    5  A    between atoms: C_15  and  N_16
REMARK    6  A    between atoms: C_17  and  C_19
REMARK                            x       y       z     vdW  Elec       q    Type
REMARK                         _______ _______ _______ _____ _____    ______ ____
ROOT
ATOM      1  C   UNL     1      49.879   8.814  13.282  0.00  0.00    +0.000 A 
ATOM      2  C   UNL     1      49.227   9.168  12.123  0.00  0.00    +0.000 A 
ATOM      3  C   UNL     1      47.923   8.779  11.893  0.00  0.00    +0.000 A 
ATOM      4  C   UNL     1      47.208   8.059  12.818  0.00  0.00    +0.000 A 
ATOM      5  C   UNL     1      47.899   7.650  13.935  0.00  0.00    +0.000 A 
ATOM      6  C   UNL     1      49.154   8.145  14.243  0.00  0.00    +0.000 A 
ENDROOT
BRANCH   1   7
ATOM      7  C   UNL     1      51.333   9.115  13.442  0.00  0.00    +0.000 C 
BRANCH   7  16
ATOM      8  C   UNL     1      52.545   7.079   8.838  0.00  0.00    +0.000 C 
ATOM      9  C   UNL     1      53.556   6.743   9.836  0.00  0.00    +0.000 A 
ATOM     10  C   UNL     1      54.540   5.788   9.739  0.00  0.00    +0.000 A 
ATOM     11  C   UNL     1      55.277   5.813  10.905  0.00  0.00    +0.000 A 
ATOM     12  C   UNL     1      54.722   6.773  11.700  0.00  0.00    +0.000 A 
ATOM     13  N   UNL     1      53.647   7.365  11.076  0.00  0.00    +0.000 N 
ATOM     14  C   UNL     1      52.844   8.409  11.614  0.00  0.00    +0.000 C 
ATOM     15  O   UNL     1      52.778   9.477  11.032  0.00  0.00    +0.000 OA
ATOM     16  N   UNL     1      52.182   8.133  12.794  0.00  0.00    +0.000 N 
ATOM     17  H   UNL     1      52.234   7.250  13.258  0.00  0.00    +0.000 HD
ENDBRANCH   7  16
ENDBRANCH   1   7
BRANCH   4  18
ATOM     18  C   UNL     1      45.745   7.764  12.642  0.00  0.00    +0.000 C 
BRANCH  18  19
ATOM     19  N   UNL     1      45.492   6.511  11.930  0.00  0.00    +0.000 N 
ATOM     20  C   UNL     1      44.513   5.610  12.327  0.00  0.00    +0.000 C 
ATOM     21  O   UNL     1      43.812   5.836  13.312  0.00  0.00    +0.000 OA
ATOM     22  H   UNL     1      46.055   6.332  11.105  0.00  0.00    +0.000 HD
BRANCH  20  23
ATOM     23  C   UNL     1      44.309   4.376  11.537  0.00  0.00    +0.000 A 
ATOM     24  C   UNL     1      43.559   3.276  11.972  0.00  0.00    +0.000 A 
ATOM     25  O   UNL     1      43.525   2.305  11.002  0.00  0.00    +0.000 OA
ATOM     26  C   UNL     1      44.235   2.731   9.924  0.00  0.00    +0.000 A 
ATOM     27  N   UNL     1      44.444   2.057   8.768  0.00  0.00    +0.000 NA
ATOM     28  C   UNL     1      45.125   2.755   8.026  0.00  0.00    +0.000 A 
ATOM     29  N   UNL     1      45.818   3.457   7.261  0.00  0.00    +0.000 N 
ATOM     30  C   UNL     1      45.618   4.510   8.874  0.00  0.00    +0.000 A 
ATOM     31  O   UNL     1      45.960   5.621   9.343  0.00  0.00    +0.000 OA
ATOM     32  C   UNL     1      44.744   3.970  10.146  0.00  0.00    +0.000 A 
ATOM     33  H   UNL     1      45.702   2.458   6.509  0.00  0.00    +0.000 HD
ENDBRANCH  20  23
ENDBRANCH  18  19
ENDBRANCH   4  18
TORSDOF 5
ENDMDL
