MODEL 1
REMARK VINA RESULT:    -8.465      0.000      0.000
REMARK INTER + INTRA:         -10.436
REMARK INTER:                 -10.445
REMARK INTRA:                   0.009
REMARK UNBOUND:                 0.009
REMARK  Name = 
REMARK  5 active torsions:
REMARK  status: ('A' for Active; 'I' for Inactive)
REMARK    1  A    between atoms: C_1  and  C_2
REMARK    2  A    between atoms: C_5  and  C_6
REMARK    3  A    between atoms: C_6  and  N_7
REMARK    4  A    between atoms: N_7  and  C_8
REMARK    5  A    between atoms: C_11  and  C_12
REMARK                            x       y       z     vdW  Elec       q    Type
REMARK                         _______ _______ _______ _____ _____    ______ ____
ROOT
ATOM      1  N   UNL     1      43.784   4.733  10.013  0.00  0.00    +0.000 N 
ATOM      2  H   UNL     1      42.846   4.437   9.747  0.00  0.00    +0.000 HD
ENDROOT
BRANCH   1   3
ATOM      3  C   UNL     1      44.756   3.999   9.301  0.00  0.00    +0.000 A 
ATOM      4  C   UNL     1      45.649   4.561   8.385  0.00  0.00    +0.000 A 
ATOM      5  C   UNL     1      46.493   3.746   7.615  0.00  0.00    +0.000 A 
ATOM      6  C   UNL     1      46.452   2.352   7.747  0.00  0.00    +0.000 A 
ATOM      7  C   UNL     1      45.549   1.778   8.643  0.00  0.00    +0.000 A 
ATOM      8  C   UNL     1      44.707   2.598   9.399  0.00  0.00    +0.000 A 
BRANCH   6   9
ATOM      9  C   UNL     1      47.333   1.517   6.885  0.00  0.00    +0.000 C 
ATOM     10  N   UNL     1      48.389   2.138   6.274  0.00  0.00    +0.000 N 
ATOM     11  O   UNL     1      47.118   0.326   6.704  0.00  0.00    +0.000 OA
ATOM     12  H   UNL     1      48.471   3.141   6.205  0.00  0.00    +0.000 HD
ATOM     13  H   UNL     1      48.928   1.576   5.628  0.00  0.00    +0.000 HD
ENDBRANCH   6   9
ENDBRANCH   1   3
BRANCH   1  14
ATOM     14  C   UNL     1      43.861   5.026  11.472  0.00  0.00    +0.000 C 
ATOM     15  C   UNL     1      42.626   5.292  12.311  0.00  0.00    +0.000 C 
ATOM     16  C   UNL     1      43.241   3.932  12.346  0.00  0.00    +0.000 C 
BRANCH  14  21
ATOM     17  C   UNL     1      49.068   6.955  13.015  0.00  0.00    +0.000 C 
ATOM     18  C   UNL     1      47.706   6.467  12.664  0.00  0.00    +0.000 A 
ATOM     19  C   UNL     1      47.134   5.352  13.233  0.00  0.00    +0.000 A 
ATOM     20  N   UNL     1      45.918   4.878  12.899  0.00  0.00    +0.000 NA
ATOM     21  C   UNL     1      45.232   5.550  11.949  0.00  0.00    +0.000 A 
ATOM     22  N   UNL     1      45.707   6.673  11.352  0.00  0.00    +0.000 NA
ATOM     23  C   UNL     1      46.927   7.098  11.721  0.00  0.00    +0.000 A 
ENDBRANCH  14  21
ENDBRANCH   1  14
TORSDOF 4
ENDMDL
MODEL 2
REMARK VINA RESULT:    -7.377      3.266      6.621
REMARK INTER + INTRA:          -9.093
REMARK INTER:                  -8.810
REMARK INTRA:                  -0.283
REMARK UNBOUND:                 0.009
REMARK  Name = 
REMARK  5 active torsions:
REMARK  status: ('A' for Active; 'I' for Inactive)
REMARK    1  A    between atoms: C_1  and  C_2
REMARK    2  A    between atoms: C_5  and  C_6
REMARK    3  A    between atoms: C_6  and  N_7
REMARK    4  A    between atoms: N_7  and  C_8
REMARK    5  A    between atoms: C_11  and  C_12
REMARK                            x       y       z     vdW  Elec       q    Type
REMARK                         _______ _______ _______ _____ _____    ______ ____
ROOT
ATOM      1  N   UNL     1      44.594   5.986  10.705  0.00  0.00    +0.000 N 
ATOM      2  H   UNL     1      44.535   6.335   9.748  0.00  0.00    +0.000 HD
ENDROOT
BRANCH   1   3
ATOM      3  C   UNL     1      45.491   6.770  11.462  0.00  0.00    +0.000 A 
ATOM      4  C   UNL     1      46.806   6.399  11.751  0.00  0.00    +0.000 A 
ATOM      5  C   UNL     1      47.591   7.167  12.625  0.00  0.00    +0.000 A 
ATOM      6  C   UNL     1      47.068   8.318  13.228  0.00  0.00    +0.000 A 
ATOM      7  C   UNL     1      45.748   8.686  12.965  0.00  0.00    +0.000 A 
ATOM      8  C   UNL     1      44.972   7.911  12.099  0.00  0.00    +0.000 A 
BRANCH   6   9
ATOM      9  C   UNL     1      47.916   9.085  14.181  0.00  0.00    +0.000 C 
ATOM     10  N   UNL     1      47.565   9.054  15.503  0.00  0.00    +0.000 N 
ATOM     11  O   UNL     1      48.879   9.740  13.805  0.00  0.00    +0.000 OA
ATOM     12  H   UNL     1      46.666   8.727  15.826  0.00  0.00    +0.000 HD
ATOM     13  H   UNL     1      48.102   9.646  16.125  0.00  0.00    +0.000 HD
ENDBRANCH   6   9
ENDBRANCH   1   3
BRANCH   1  14
ATOM     14  C   UNL     1      44.551   4.498  10.738  0.00  0.00    +0.000 C 
ATOM     15  C   UNL     1      44.385   3.720  12.029  0.00  0.00    +0.000 C 
ATOM     16  C   UNL     1      43.190   3.937  11.162  0.00  0.00    +0.000 C 
BRANCH  14  21
ATOM     17  C   UNL     1      47.117   1.832   6.319  0.00  0.00    +0.000 C 
ATOM     18  C   UNL     1      46.418   2.537   7.428  0.00  0.00    +0.000 A 
ATOM     19  C   UNL     1      46.276   3.905   7.483  0.00  0.00    +0.000 A 
ATOM     20  N   UNL     1      45.678   4.558   8.498  0.00  0.00    +0.000 NA
ATOM     21  C   UNL     1      45.192   3.811   9.513  0.00  0.00    +0.000 A 
ATOM     22  N   UNL     1      45.263   2.455   9.531  0.00  0.00    +0.000 NA
ATOM     23  C   UNL     1      45.875   1.857   8.495  0.00  0.00    +0.000 A 
ENDBRANCH  14  21
ENDBRANCH   1  14
TORSDOF 4
ENDMDL
MODEL 3
REMARK VINA RESULT:    -6.964      3.120      6.195
REMARK INTER + INTRA:          -8.583
REMARK INTER:                  -8.157
REMARK INTRA:                  -0.426
REMARK UNBOUND:                 0.009
REMARK  Name = 
REMARK  5 active torsions:
REMARK  status: ('A' for Active; 'I' for Inactive)
REMARK    1  A    between atoms: C_1  and  C_2
REMARK    2  A    between atoms: C_5  and  C_6
REMARK    3  A    between atoms: C_6  and  N_7
REMARK    4  A    between atoms: N_7  and  C_8
REMARK    5  A    between atoms: C_11  and  C_12
REMARK                            x       y       z     vdW  Elec       q    Type
REMARK                         _______ _______ _______ _____ _____    ______ ____
ROOT
ATOM      1  N   UNL     1      44.949   5.654  11.545  0.00  0.00    +0.000 N 
ATOM      2  H   UNL     1      44.771   6.326  10.799  0.00  0.00    +0.000 HD
ENDROOT
BRANCH   1   3
ATOM      3  C   UNL     1      46.157   5.956  12.207  0.00  0.00    +0.000 A 
ATOM      4  C   UNL     1      46.494   5.488  13.480  0.00  0.00    +0.000 A 
ATOM      5  C   UNL     1      47.653   5.944  14.127  0.00  0.00    +0.000 A 
ATOM      6  C   UNL     1      48.491   6.881  13.511  0.00  0.00    +0.000 A 
ATOM      7  C   UNL     1      48.154   7.372  12.249  0.00  0.00    +0.000 A 
ATOM      8  C   UNL     1      46.994   6.918  11.616  0.00  0.00    +0.000 A 
BRANCH   6   9
ATOM      9  C   UNL     1      49.690   7.372  14.244  0.00  0.00    +0.000 C 
ATOM     10  N   UNL     1      50.822   7.610  13.513  0.00  0.00    +0.000 N 
ATOM     11  O   UNL     1      49.682   7.538  15.457  0.00  0.00    +0.000 OA
ATOM     12  H   UNL     1      50.948   7.274  12.570  0.00  0.00    +0.000 HD
ATOM     13  H   UNL     1      51.650   7.864  14.037  0.00  0.00    +0.000 HD
ENDBRANCH   6   9
ENDBRANCH   1   3
BRANCH   1  14
ATOM     14  C   UNL     1      44.539   4.280  11.138  0.00  0.00    +0.000 C 
ATOM     15  C   UNL     1      43.989   3.272  12.129  0.00  0.00    +0.000 C 
ATOM     16  C   UNL     1      43.033   4.031  11.269  0.00  0.00    +0.000 C 
BRANCH  14  21
ATOM     17  C   UNL     1      46.731   2.549   6.098  0.00  0.00    +0.000 C 
ATOM     18  C   UNL     1      46.205   2.975   7.424  0.00  0.00    +0.000 A 
ATOM     19  C   UNL     1      45.808   2.089   8.399  0.00  0.00    +0.000 A 
ATOM     20  N   UNL     1      45.298   2.460   9.589  0.00  0.00    +0.000 NA
ATOM     21  C   UNL     1      45.175   3.785   9.823  0.00  0.00    +0.000 A 
ATOM     22  N   UNL     1      45.564   4.731   8.930  0.00  0.00    +0.000 NA
ATOM     23  C   UNL     1      46.063   4.303   7.757  0.00  0.00    +0.000 A 
ENDBRANCH  14  21
ENDBRANCH   1  14
TORSDOF 4
ENDMDL
MODEL 4
REMARK VINA RESULT:    -6.471      2.849      4.729
REMARK INTER + INTRA:          -7.975
REMARK INTER:                  -7.928
REMARK INTRA:                  -0.048
REMARK UNBOUND:                 0.009
REMARK  Name = 
REMARK  5 active torsions:
REMARK  status: ('A' for Active; 'I' for Inactive)
REMARK    1  A    between atoms: C_1  and  C_2
REMARK    2  A    between atoms: C_5  and  C_6
REMARK    3  A    between atoms: C_6  and  N_7
REMARK    4  A    between atoms: N_7  and  C_8
REMARK    5  A    between atoms: C_11  and  C_12
REMARK                            x       y       z     vdW  Elec       q    Type
REMARK                         _______ _______ _______ _____ _____    ______ ____
ROOT
ATOM      1  N   UNL     1      46.069   6.086  13.537  0.00  0.00    +0.000 N 
ATOM      2  H   UNL     1      45.456   6.007  14.348  0.00  0.00    +0.000 HD
ENDROOT
BRANCH   1   3
ATOM      3  C   UNL     1      45.588   5.294  12.473  0.00  0.00    +0.000 A 
ATOM      4  C   UNL     1      45.154   3.973  12.612  0.00  0.00    +0.000 A 
ATOM      5  C   UNL     1      44.819   3.207  11.484  0.00  0.00    +0.000 A 
ATOM      6  C   UNL     1      44.919   3.751  10.198  0.00  0.00    +0.000 A 
ATOM      7  C   UNL     1      45.373   5.062  10.045  0.00  0.00    +0.000 A 
ATOM      8  C   UNL     1      45.710   5.815  11.173  0.00  0.00    +0.000 A 
BRANCH   6   9
ATOM      9  C   UNL     1      44.594   2.896   9.023  0.00  0.00    +0.000 C 
ATOM     10  N   UNL     1      44.305   3.529   7.844  0.00  0.00    +0.000 N 
ATOM     11  O   UNL     1      44.562   1.676   9.102  0.00  0.00    +0.000 OA
ATOM     12  H   UNL     1      44.094   4.514   7.787  0.00  0.00    +0.000 HD
ATOM     13  H   UNL     1      44.007   2.938   7.079  0.00  0.00    +0.000 HD
ENDBRANCH   6   9
ENDBRANCH   1   3
BRANCH   1  14
ATOM     14  C   UNL     1      47.499   6.154  13.949  0.00  0.00    +0.000 C 
ATOM     15  C   UNL     1      48.605   6.529  12.980  0.00  0.00    +0.000 C 
ATOM     16  C   UNL     1      48.078   7.571  13.910  0.00  0.00    +0.000 C 
BRANCH  14  21
ATOM     17  C   UNL     1      48.548   3.186  18.776  0.00  0.00    +0.000 C 
ATOM     18  C   UNL     1      48.321   3.934  17.509  0.00  0.00    +0.000 A 
ATOM     19  C   UNL     1      49.148   4.942  17.069  0.00  0.00    +0.000 A 
ATOM     20  N   UNL     1      48.934   5.651  15.943  0.00  0.00    +0.000 NA
ATOM     21  C   UNL     1      47.840   5.340  15.215  0.00  0.00    +0.000 A 
ATOM     22  N   UNL     1      46.983   4.344  15.559  0.00  0.00    +0.000 NA
ATOM     23  C   UNL     1      47.243   3.673  16.694  0.00  0.00    +0.000 A 
ENDBRANCH  14  21
ENDBRANCH   1  14
TORSDOF 4
ENDMDL
MODEL 5
REMARK VINA RESULT:    -6.132      3.167      5.297
REMARK INTER + INTRA:          -7.557
REMARK INTER:                  -7.084
REMARK INTRA:                  -0.473
REMARK UNBOUND:                 0.009
REMARK  Name = 
REMARK  5 active torsions:
REMARK  status: ('A' for Active; 'I' for Inactive)
REMARK    1  A    between atoms: C_1  and  C_2
REMARK    2  A    between atoms: C_5  and  C_6
REMARK    3  A    between atoms: C_6  and  N_7
REMARK    4  A    between atoms: N_7  and  C_8
REMARK    5  A    between atoms: C_11  and  C_12
REMARK                            x       y       z     vdW  Elec       q    Type
REMARK                         _______ _______ _______ _____ _____    ______ ____
ROOT
ATOM      1  N   UNL     1      46.362   7.608  13.142  0.00  0.00    +0.000 N 
ATOM      2  H   UNL     1      45.953   7.970  14.003  0.00  0.00    +0.000 HD
ENDROOT
BRANCH   1   3
ATOM      3  C   UNL     1      45.689   6.438  12.729  0.00  0.00    +0.000 A 
ATOM      4  C   UNL     1      45.743   5.219  13.409  0.00  0.00    +0.000 A 
ATOM      5  C   UNL     1      45.159   4.067  12.861  0.00  0.00    +0.000 A 
ATOM      6  C   UNL     1      44.515   4.116  11.619  0.00  0.00    +0.000 A 
ATOM      7  C   UNL     1      44.474   5.323  10.919  0.00  0.00    +0.000 A 
ATOM      8  C   UNL     1      45.065   6.464  11.470  0.00  0.00    +0.000 A 
BRANCH   6   9
ATOM      9  C   UNL     1      43.943   2.865  11.050  0.00  0.00    +0.000 C 
ATOM     10  N   UNL     1      44.538   2.352   9.930  0.00  0.00    +0.000 N 
ATOM     11  O   UNL     1      42.964   2.321  11.542  0.00  0.00    +0.000 OA
ATOM     12  H   UNL     1      45.187   2.877   9.362  0.00  0.00    +0.000 HD
ATOM     13  H   UNL     1      44.088   1.549   9.509  0.00  0.00    +0.000 HD
ENDBRANCH   6   9
ENDBRANCH   1   3
BRANCH   1  14
ATOM     14  C   UNL     1      47.844   7.764  13.144  0.00  0.00    +0.000 C 
ATOM     15  C   UNL     1      48.692   7.455  11.926  0.00  0.00    +0.000 C 
ATOM     16  C   UNL     1      48.340   8.876  12.215  0.00  0.00    +0.000 C 
BRANCH  14  21
ATOM     17  C   UNL     1      50.133   7.463  18.424  0.00  0.00    +0.000 C 
ATOM     18  C   UNL     1      49.570   7.583  17.051  0.00  0.00    +0.000 A 
ATOM     19  C   UNL     1      48.769   8.629  16.653  0.00  0.00    +0.000 A 
ATOM     20  N   UNL     1      48.223   8.733  15.426  0.00  0.00    +0.000 NA
ATOM     21  C   UNL     1      48.488   7.742  14.546  0.00  0.00    +0.000 A 
ATOM     22  N   UNL     1      49.287   6.686  14.843  0.00  0.00    +0.000 NA
ATOM     23  C   UNL     1      49.801   6.632  16.084  0.00  0.00    +0.000 A 
ENDBRANCH  14  21
ENDBRANCH   1  14
TORSDOF 4
ENDMDL
MODEL 6
REMARK VINA RESULT:    -6.094      4.765      6.718
REMARK INTER + INTRA:          -7.510
REMARK INTER:                  -7.443
REMARK INTRA:                  -0.066
REMARK UNBOUND:                 0.009
REMARK  Name = 
REMARK  5 active torsions:
REMARK  status: ('A' for Active; 'I' for Inactive)
REMARK    1  A    between atoms: C_1  and  C_2
REMARK    2  A    between atoms: C_5  and  C_6
REMARK    3  A    between atoms: C_6  and  N_7
REMARK    4  A    between atoms: N_7  and  C_8
REMARK    5  A    between atoms: C_11  and  C_12
REMARK                            x       y       z     vdW  Elec       q    Type
REMARK                         _______ _______ _______ _____ _____    ______ ____
ROOT
ATOM      1  N   UNL     1      47.652   3.066  14.975  0.00  0.00    +0.000 N 
ATOM      2  H   UNL     1      48.439   2.578  14.548  0.00  0.00    +0.000 HD
ENDROOT
BRANCH   1   3
ATOM      3  C   UNL     1      47.027   3.914  14.036  0.00  0.00    +0.000 A 
ATOM      4  C   UNL     1      47.179   5.303  14.010  0.00  0.00    +0.000 A 
ATOM      5  C   UNL     1      46.417   6.090  13.132  0.00  0.00    +0.000 A 
ATOM      6  C   UNL     1      45.487   5.498  12.270  0.00  0.00    +0.000 A 
ATOM      7  C   UNL     1      45.310   4.114  12.302  0.00  0.00    +0.000 A 
ATOM      8  C   UNL     1      46.068   3.339  13.185  0.00  0.00    +0.000 A 
BRANCH   6   9
ATOM      9  C   UNL     1      44.668   6.368  11.381  0.00  0.00    +0.000 C 
ATOM     10  N   UNL     1      43.671   5.770  10.659  0.00  0.00    +0.000 N 
ATOM     11  O   UNL     1      44.883   7.568  11.276  0.00  0.00    +0.000 OA
ATOM     12  H   UNL     1      43.605   4.770  10.536  0.00  0.00    +0.000 HD
ATOM     13  H   UNL     1      43.178   6.359  10.000  0.00  0.00    +0.000 HD
ENDBRANCH   6   9
ENDBRANCH   1   3
BRANCH   1  14
ATOM     14  C   UNL     1      47.959   3.455  16.379  0.00  0.00    +0.000 C 
ATOM     15  C   UNL     1      47.194   4.547  17.103  0.00  0.00    +0.000 C 
ATOM     16  C   UNL     1      46.834   3.122  17.364  0.00  0.00    +0.000 C 
BRANCH  14  21
ATOM     17  C   UNL     1      53.356   2.219  17.980  0.00  0.00    +0.000 C 
ATOM     18  C   UNL     1      51.945   2.507  17.603  0.00  0.00    +0.000 A 
ATOM     19  C   UNL     1      51.092   1.557  17.088  0.00  0.00    +0.000 A 
ATOM     20  N   UNL     1      49.824   1.811  16.710  0.00  0.00    +0.000 NA
ATOM     21  C   UNL     1      49.379   3.079  16.852  0.00  0.00    +0.000 A 
ATOM     22  N   UNL     1      50.141   4.074  17.374  0.00  0.00    +0.000 NA
ATOM     23  C   UNL     1      51.400   3.764  17.731  0.00  0.00    +0.000 A 
ENDBRANCH  14  21
ENDBRANCH   1  14
TORSDOF 4
ENDMDL
MODEL 7
REMARK VINA RESULT:    -5.801      4.945      7.386
REMARK INTER + INTRA:          -7.148
REMARK INTER:                  -6.892
REMARK INTRA:                  -0.256
REMARK UNBOUND:                 0.009
REMARK  Name = 
REMARK  5 active torsions:
REMARK  status: ('A' for Active; 'I' for Inactive)
REMARK    1  A    between atoms: C_1  and  C_2
REMARK    2  A    between atoms: C_5  and  C_6
REMARK    3  A    between atoms: C_6  and  N_7
REMARK    4  A    between atoms: N_7  and  C_8
REMARK    5  A    between atoms: C_11  and  C_12
REMARK                            x       y       z     vdW  Elec       q    Type
REMARK                         _______ _______ _______ _____ _____    ______ ____
ROOT
ATOM      1  N   UNL     1      46.661   4.671  15.490  0.00  0.00    +0.000 N 
ATOM      2  H   UNL     1      46.194   5.475  15.910  0.00  0.00    +0.000 HD
ENDROOT
BRANCH   1   3
ATOM      3  C   UNL     1      47.804   4.317  16.238  0.00  0.00    +0.000 A 
ATOM      4  C   UNL     1      48.750   5.231  16.708  0.00  0.00    +0.000 A 
ATOM      5  C   UNL     1      49.929   4.788  17.325  0.00  0.00    +0.000 A 
ATOM      6  C   UNL     1      50.183   3.420  17.477  0.00  0.00    +0.000 A 
ATOM      7  C   UNL     1      49.256   2.496  16.992  0.00  0.00    +0.000 A 
ATOM      8  C   UNL     1      48.087   2.947  16.373  0.00  0.00    +0.000 A 
BRANCH   6   9
ATOM      9  C   UNL     1      51.463   2.985  18.101  0.00  0.00    +0.000 C 
ATOM     10  N   UNL     1      51.727   1.643  18.129  0.00  0.00    +0.000 N 
ATOM     11  O   UNL     1      52.247   3.787  18.592  0.00  0.00    +0.000 OA
ATOM     12  H   UNL     1      51.024   0.941  17.952  0.00  0.00    +0.000 HD
ATOM     13  H   UNL     1      52.560   1.359  18.628  0.00  0.00    +0.000 HD
ENDBRANCH   6   9
ENDBRANCH   1   3
BRANCH   1  14
ATOM     14  C   UNL     1      46.624   4.746  14.003  0.00  0.00    +0.000 C 
ATOM     15  C   UNL     1      46.429   3.517  13.135  0.00  0.00    +0.000 C 
ATOM     16  C   UNL     1      45.256   4.398  13.410  0.00  0.00    +0.000 C 
BRANCH  14  21
ATOM     17  C   UNL     1      48.987   9.411  11.581  0.00  0.00    +0.000 C 
ATOM     18  C   UNL     1      48.407   8.213  12.248  0.00  0.00    +0.000 A 
ATOM     19  C   UNL     1      49.135   7.079  12.530  0.00  0.00    +0.000 A 
ATOM     20  N   UNL     1      48.615   5.975  13.100  0.00  0.00    +0.000 NA
ATOM     21  C   UNL     1      47.300   5.998  13.407  0.00  0.00    +0.000 A 
ATOM     22  N   UNL     1      46.511   7.082  13.189  0.00  0.00    +0.000 NA
ATOM     23  C   UNL     1      47.082   8.154  12.613  0.00  0.00    +0.000 A 
ENDBRANCH  14  21
ENDBRANCH   1  14
TORSDOF 4
ENDMDL
MODEL 8
REMARK VINA RESULT:    -5.510      2.687      4.023
REMARK INTER + INTRA:          -6.789
REMARK INTER:                  -6.351
REMARK INTRA:                  -0.439
REMARK UNBOUND:                 0.009
REMARK  Name = 
REMARK  5 active torsions:
REMARK  status: ('A' for Active; 'I' for Inactive)
REMARK    1  A    between atoms: C_1  and  C_2
REMARK    2  A    between atoms: C_5  and  C_6
REMARK    3  A    between atoms: C_6  and  N_7
REMARK    4  A    between atoms: N_7  and  C_8
REMARK    5  A    between atoms: C_11  and  C_12
REMARK                            x       y       z     vdW  Elec       q    Type
REMARK                         _______ _______ _______ _____ _____    ______ ____
ROOT
ATOM      1  N   UNL     1      44.505   7.732  12.311  0.00  0.00    +0.000 N 
ATOM      2  H   UNL     1      44.648   7.522  13.298  0.00  0.00    +0.000 HD
ENDROOT
BRANCH   1   3
ATOM      3  C   UNL     1      44.637   6.563  11.531  0.00  0.00    +0.000 A 
ATOM      4  C   UNL     1      45.731   6.289  10.707  0.00  0.00    +0.000 A 
ATOM      5  C   UNL     1      45.726   5.171   9.858  0.00  0.00    +0.000 A 
ATOM      6  C   UNL     1      44.621   4.312   9.819  0.00  0.00    +0.000 A 
ATOM      7  C   UNL     1      43.513   4.588  10.621  0.00  0.00    +0.000 A 
ATOM      8  C   UNL     1      43.525   5.707  11.457  0.00  0.00    +0.000 A 
BRANCH   6   9
ATOM      9  C   UNL     1      44.634   3.159   8.877  0.00  0.00    +0.000 C 
ATOM     10  N   UNL     1      44.590   1.903   9.418  0.00  0.00    +0.000 N 
ATOM     11  O   UNL     1      44.704   3.316   7.665  0.00  0.00    +0.000 OA
ATOM     12  H   UNL     1      44.763   1.719  10.396  0.00  0.00    +0.000 HD
ATOM     13  H   UNL     1      44.683   1.131   8.770  0.00  0.00    +0.000 HD
ENDBRANCH   6   9
ENDBRANCH   1   3
BRANCH   1  14
ATOM     14  C   UNL     1      45.100   9.049  11.951  0.00  0.00    +0.000 C 
ATOM     15  C   UNL     1      44.649   9.837  10.735  0.00  0.00    +0.000 C 
ATOM     16  C   UNL     1      44.116  10.217  12.077  0.00  0.00    +0.000 C 
BRANCH  14  21
ATOM     17  C   UNL     1      50.434   9.906  13.957  0.00  0.00    +0.000 C 
ATOM     18  C   UNL     1      49.038   9.707  13.481  0.00  0.00    +0.000 A 
ATOM     19  C   UNL     1      48.131   8.892  14.120  0.00  0.00    +0.000 A 
ATOM     20  N   UNL     1      46.876   8.675  13.681  0.00  0.00    +0.000 NA
ATOM     21  C   UNL     1      46.501   9.303  12.545  0.00  0.00    +0.000 A 
ATOM     22  N   UNL     1      47.320  10.145  11.863  0.00  0.00    +0.000 NA
ATOM     23  C   UNL     1      48.562  10.320  12.345  0.00  0.00    +0.000 A 
ENDBRANCH  14  21
ENDBRANCH   1  14
TORSDOF 4
ENDMDL
