MODEL 1
REMARK VINA RESULT:    -7.762      0.000      0.000
REMARK INTER + INTRA:         -11.848
REMARK INTER:                 -10.938
REMARK INTRA:                  -0.910
REMARK UNBOUND:                -0.910
REMARK  Name = 
REMARK  7 active torsions:
REMARK  status: ('A' for Active; 'I' for Inactive)
REMARK    1  A    between atoms: C_2  and  C_4
REMARK    2  A    between atoms: C_7  and  O_8
REMARK    3  A    between atoms: O_8  and  C_9
REMARK    4  A    between atoms: C_9  and  C_10
REMARK    5  A    between atoms: C_10  and  C_11
REMARK    6  A    between atoms: C_15  and  S_16
REMARK    7  A    between atoms: S_16  and  C_17
REMARK                            x       y       z     vdW  Elec       q    Type
REMARK                         _______ _______ _______ _____ _____    ______ ____
ROOT
ATOM      1  C   UNL     1      43.492   4.580  10.949  0.00  0.00    +0.000 C 
ENDROOT
BRANCH   1   2
ATOM      2  O   UNL     1      43.449   3.235  10.452  0.00  0.00    +0.000 OA
BRANCH   2   6
ATOM      3  C   UNL     1      46.356   2.636   7.587  0.00  0.00    +0.000 A 
ATOM      4  C   UNL     1      45.821   3.912   7.771  0.00  0.00    +0.000 A 
ATOM      5  C   UNL     1      44.832   4.104   8.740  0.00  0.00    +0.000 A 
ATOM      6  C   UNL     1      44.419   3.012   9.489  0.00  0.00    +0.000 A 
ATOM      7  N   UNL     1      44.911   1.766   9.320  0.00  0.00    +0.000 NA
ATOM      8  C   UNL     1      45.860   1.603   8.368  0.00  0.00    +0.000 A 
BRANCH   3  10
ATOM      9  N   UNL     1      47.395   3.011   5.424  0.00  0.00    +0.000 N 
ATOM     10  C   UNL     1      47.409   2.318   6.603  0.00  0.00    +0.000 C 
ATOM     11  O   UNL     1      48.286   1.498   6.843  0.00  0.00    +0.000 OA
ATOM     12  H   UNL     1      48.197   2.871   4.820  0.00  0.00    +0.000 HD
ATOM     13  H   UNL     1      46.864   3.861   5.299  0.00  0.00    +0.000 HD
ENDBRANCH   3  10
ENDBRANCH   2   6
ENDBRANCH   1   2
BRANCH   1  14
ATOM     14  C   UNL     1      43.993   4.590  12.394  0.00  0.00    +0.000 C 
BRANCH  14  15
ATOM     15  C   UNL     1      45.364   5.220  12.483  0.00  0.00    +0.000 A 
ATOM     16  C   UNL     1      45.824   6.078  11.481  0.00  0.00    +0.000 A 
ATOM     17  C   UNL     1      47.041   6.747  11.630  0.00  0.00    +0.000 A 
ATOM     18  C   UNL     1      47.811   6.571  12.785  0.00  0.00    +0.000 A 
ATOM     19  C   UNL     1      47.370   5.713  13.795  0.00  0.00    +0.000 A 
ATOM     20  C   UNL     1      46.150   5.040  13.632  0.00  0.00    +0.000 A 
BRANCH  19  21
ATOM     21  S   UNL     1      48.186   5.575  15.372  0.00  0.00    +0.000 S 
BRANCH  21  22
ATOM     22  C   UNL     1      47.235   4.246  16.179  0.00  0.00    +0.000 C 
ATOM     23  C   UNL     1      47.132   4.328  17.703  0.00  0.00    +0.000 C 
ATOM     24  O   UNL     1      47.753   3.025  17.858  0.00  0.00    +0.000 OA
ATOM     25  C   UNL     1      48.134   3.030  16.460  0.00  0.00    +0.000 C 
ENDBRANCH  21  22
ENDBRANCH  19  21
ENDBRANCH  14  15
ENDBRANCH   1  14
TORSDOF 7
ENDMDL
MODEL 2
REMARK VINA RESULT:    -7.646      2.679      4.306
REMARK INTER + INTRA:         -11.685
REMARK INTER:                 -11.051
REMARK INTRA:                  -0.633
REMARK UNBOUND:                -0.910
REMARK  Name = 
REMARK  7 active torsions:
REMARK  status: ('A' for Active; 'I' for Inactive)
REMARK    1  A    between atoms: C_2  and  C_4
REMARK    2  A    between atoms: C_7  and  O_8
REMARK    3  A    between atoms: O_8  and  C_9
REMARK    4  A    between atoms: C_9  and  C_10
REMARK    5  A    between atoms: C_10  and  C_11
REMARK    6  A    between atoms: C_15  and  S_16
REMARK    7  A    between atoms: S_16  and  C_17
REMARK                            x       y       z     vdW  Elec       q    Type
REMARK                         _______ _______ _______ _____ _____    ______ ____
ROOT
ATOM      1  C   UNL     1      43.351   3.875  11.276  0.00  0.00    +0.000 C 
ENDROOT
BRANCH   1   2
ATOM      2  O   UNL     1      43.682   4.591  10.079  0.00  0.00    +0.000 OA
BRANCH   2   6
ATOM      3  C   UNL     1      46.375   2.477   7.777  0.00  0.00    +0.000 A 
ATOM      4  C   UNL     1      45.631   1.812   8.754  0.00  0.00    +0.000 A 
ATOM      5  C   UNL     1      44.726   2.539   9.533  0.00  0.00    +0.000 A 
ATOM      6  C   UNL     1      44.598   3.900   9.302  0.00  0.00    +0.000 A 
ATOM      7  N   UNL     1      45.316   4.567   8.374  0.00  0.00    +0.000 NA
ATOM      8  C   UNL     1      46.195   3.845   7.640  0.00  0.00    +0.000 A 
BRANCH   3  10
ATOM      9  N   UNL     1      48.436   2.544   6.493  0.00  0.00    +0.000 N 
ATOM     10  C   UNL     1      47.351   1.813   6.892  0.00  0.00    +0.000 C 
ATOM     11  O   UNL     1      47.223   0.641   6.559  0.00  0.00    +0.000 OA
ATOM     12  H   UNL     1      49.155   2.032   5.995  0.00  0.00    +0.000 HD
ATOM     13  H   UNL     1      48.710   3.403   6.949  0.00  0.00    +0.000 HD
ENDBRANCH   3  10
ENDBRANCH   2   6
ENDBRANCH   1   2
BRANCH   1  14
ATOM     14  C   UNL     1      43.265   4.841  12.459  0.00  0.00    +0.000 C 
BRANCH  14  15
ATOM     15  C   UNL     1      44.637   5.345  12.843  0.00  0.00    +0.000 A 
ATOM     16  C   UNL     1      45.613   4.469  13.325  0.00  0.00    +0.000 A 
ATOM     17  C   UNL     1      46.912   4.923  13.565  0.00  0.00    +0.000 A 
ATOM     18  C   UNL     1      47.253   6.258  13.319  0.00  0.00    +0.000 A 
ATOM     19  C   UNL     1      46.289   7.150  12.842  0.00  0.00    +0.000 A 
ATOM     20  C   UNL     1      44.986   6.685  12.612  0.00  0.00    +0.000 A 
BRANCH  19  21
ATOM     21  S   UNL     1      46.679   8.809  12.325  0.00  0.00    +0.000 S 
BRANCH  21  22
ATOM     22  C   UNL     1      45.029   9.578  12.236  0.00  0.00    +0.000 C 
ATOM     23  C   UNL     1      44.291   9.425  10.904  0.00  0.00    +0.000 C 
ATOM     24  O   UNL     1      44.204  10.863  10.738  0.00  0.00    +0.000 OA
ATOM     25  C   UNL     1      45.141  11.056  11.826  0.00  0.00    +0.000 C 
ENDBRANCH  21  22
ENDBRANCH  19  21
ENDBRANCH  14  15
ENDBRANCH   1  14
TORSDOF 7
ENDMDL
MODEL 3
REMARK VINA RESULT:    -7.602      2.662      3.681
REMARK INTER + INTRA:         -11.622
REMARK INTER:                 -10.831
REMARK INTRA:                  -0.791
REMARK UNBOUND:                -0.910
REMARK  Name = 
REMARK  7 active torsions:
REMARK  status: ('A' for Active; 'I' for Inactive)
REMARK    1  A    between atoms: C_2  and  C_4
REMARK    2  A    between atoms: C_7  and  O_8
REMARK    3  A    between atoms: O_8  and  C_9
REMARK    4  A    between atoms: C_9  and  C_10
REMARK    5  A    between atoms: C_10  and  C_11
REMARK    6  A    between atoms: C_15  and  S_16
REMARK    7  A    between atoms: S_16  and  C_17
REMARK                            x       y       z     vdW  Elec       q    Type
REMARK                         _______ _______ _______ _____ _____    ______ ____
ROOT
ATOM      1  C   UNL     1      43.316   3.959  11.146  0.00  0.00    +0.000 C 
ENDROOT
BRANCH   1   2
ATOM      2  O   UNL     1      43.742   4.678   9.980  0.00  0.00    +0.000 OA
BRANCH   2   6
ATOM      3  C   UNL     1      46.411   2.452   7.756  0.00  0.00    +0.000 A 
ATOM      4  C   UNL     1      45.628   1.823   8.727  0.00  0.00    +0.000 A 
ATOM      5  C   UNL     1      44.732   2.587   9.479  0.00  0.00    +0.000 A 
ATOM      6  C   UNL     1      44.651   3.949   9.230  0.00  0.00    +0.000 A 
ATOM      7  N   UNL     1      45.406   4.582   8.307  0.00  0.00    +0.000 NA
ATOM      8  C   UNL     1      46.276   3.823   7.599  0.00  0.00    +0.000 A 
BRANCH   3  10
ATOM      9  N   UNL     1      48.456   2.463   6.446  0.00  0.00    +0.000 N 
ATOM     10  C   UNL     1      47.382   1.747   6.898  0.00  0.00    +0.000 C 
ATOM     11  O   UNL     1      47.259   0.558   6.632  0.00  0.00    +0.000 OA
ATOM     12  H   UNL     1      49.173   1.929   5.968  0.00  0.00    +0.000 HD
ATOM     13  H   UNL     1      48.728   3.348   6.850  0.00  0.00    +0.000 HD
ENDBRANCH   3  10
ENDBRANCH   2   6
ENDBRANCH   1   2
BRANCH   1  14
ATOM     14  C   UNL     1      43.262   4.899  12.351  0.00  0.00    +0.000 C 
BRANCH  14  15
ATOM     15  C   UNL     1      44.654   5.270  12.807  0.00  0.00    +0.000 A 
ATOM     16  C   UNL     1      45.566   4.285  13.199  0.00  0.00    +0.000 A 
ATOM     17  C   UNL     1      46.885   4.627  13.505  0.00  0.00    +0.000 A 
ATOM     18  C   UNL     1      47.311   5.958  13.417  0.00  0.00    +0.000 A 
ATOM     19  C   UNL     1      46.413   6.956  13.033  0.00  0.00    +0.000 A 
ATOM     20  C   UNL     1      45.088   6.603  12.736  0.00  0.00    +0.000 A 
BRANCH  19  21
ATOM     21  S   UNL     1      46.913   8.636  12.713  0.00  0.00    +0.000 S 
BRANCH  21  22
ATOM     22  C   UNL     1      48.529   8.404  11.903  0.00  0.00    +0.000 C 
ATOM     23  C   UNL     1      49.747   8.402  12.829  0.00  0.00    +0.000 C 
ATOM     24  O   UNL     1      50.338   9.525  12.124  0.00  0.00    +0.000 OA
ATOM     25  C   UNL     1      49.092   9.752  11.420  0.00  0.00    +0.000 C 
ENDBRANCH  21  22
ENDBRANCH  19  21
ENDBRANCH  14  15
ENDBRANCH   1  14
TORSDOF 7
ENDMDL
MODEL 4
REMARK VINA RESULT:    -7.348      2.537      3.067
REMARK INTER + INTRA:         -11.264
REMARK INTER:                 -10.316
REMARK INTRA:                  -0.948
REMARK UNBOUND:                -0.910
REMARK  Name = 
REMARK  7 active torsions:
REMARK  status: ('A' for Active; 'I' for Inactive)
REMARK    1  A    between atoms: C_2  and  C_4
REMARK    2  A    between atoms: C_7  and  O_8
REMARK    3  A    between atoms: O_8  and  C_9
REMARK    4  A    between atoms: C_9  and  C_10
REMARK    5  A    between atoms: C_10  and  C_11
REMARK    6  A    between atoms: C_15  and  S_16
REMARK    7  A    between atoms: S_16  and  C_17
REMARK                            x       y       z     vdW  Elec       q    Type
REMARK                         _______ _______ _______ _____ _____    ______ ____
ROOT
ATOM      1  C   UNL     1      43.947   3.069  11.780  0.00  0.00    +0.000 C 
ENDROOT
BRANCH   1   2
ATOM      2  O   UNL     1      43.462   3.301  10.450  0.00  0.00    +0.000 OA
BRANCH   2   6
ATOM      3  C   UNL     1      46.407   2.693   7.625  0.00  0.00    +0.000 A 
ATOM      4  C   UNL     1      45.941   3.987   7.869  0.00  0.00    +0.000 A 
ATOM      5  C   UNL     1      44.938   4.181   8.823  0.00  0.00    +0.000 A 
ATOM      6  C   UNL     1      44.444   3.075   9.498  0.00  0.00    +0.000 A 
ATOM      7  N   UNL     1      44.869   1.814   9.270  0.00  0.00    +0.000 NA
ATOM      8  C   UNL     1      45.831   1.649   8.333  0.00  0.00    +0.000 A 
BRANCH   3  10
ATOM      9  N   UNL     1      47.492   3.092   5.489  0.00  0.00    +0.000 N 
ATOM     10  C   UNL     1      47.466   2.370   6.649  0.00  0.00    +0.000 C 
ATOM     11  O   UNL     1      48.316   1.519   6.882  0.00  0.00    +0.000 OA
ATOM     12  H   UNL     1      48.299   2.945   4.894  0.00  0.00    +0.000 HD
ATOM     13  H   UNL     1      46.987   3.960   5.378  0.00  0.00    +0.000 HD
ENDBRANCH   3  10
ENDBRANCH   2   6
ENDBRANCH   1   2
BRANCH   1  14
ATOM     14  C   UNL     1      43.616   4.266  12.674  0.00  0.00    +0.000 C 
BRANCH  14  15
ATOM     15  C   UNL     1      44.536   5.428  12.380  0.00  0.00    +0.000 A 
ATOM     16  C   UNL     1      44.085   6.530  11.647  0.00  0.00    +0.000 A 
ATOM     17  C   UNL     1      44.904   7.649  11.482  0.00  0.00    +0.000 A 
ATOM     18  C   UNL     1      46.182   7.684  12.053  0.00  0.00    +0.000 A 
ATOM     19  C   UNL     1      46.651   6.590  12.784  0.00  0.00    +0.000 A 
ATOM     20  C   UNL     1      45.823   5.467  12.937  0.00  0.00    +0.000 A 
BRANCH  19  21
ATOM     21  S   UNL     1      48.179   6.622  13.699  0.00  0.00    +0.000 S 
BRANCH  21  22
ATOM     22  C   UNL     1      49.047   8.032  12.940  0.00  0.00    +0.000 C 
ATOM     23  C   UNL     1      49.918   7.705  11.724  0.00  0.00    +0.000 C 
ATOM     24  O   UNL     1      51.104   8.224  12.379  0.00  0.00    +0.000 OA
ATOM     25  C   UNL     1      50.394   8.281  13.642  0.00  0.00    +0.000 C 
ENDBRANCH  21  22
ENDBRANCH  19  21
ENDBRANCH  14  15
ENDBRANCH   1  14
TORSDOF 7
ENDMDL
MODEL 5
REMARK VINA RESULT:    -6.626      3.179      3.719
REMARK INTER + INTRA:         -10.248
REMARK INTER:                  -9.705
REMARK INTRA:                  -0.544
REMARK UNBOUND:                -0.910
REMARK  Name = 
REMARK  7 active torsions:
REMARK  status: ('A' for Active; 'I' for Inactive)
REMARK    1  A    between atoms: C_2  and  C_4
REMARK    2  A    between atoms: C_7  and  O_8
REMARK    3  A    between atoms: O_8  and  C_9
REMARK    4  A    between atoms: C_9  and  C_10
REMARK    5  A    between atoms: C_10  and  C_11
REMARK    6  A    between atoms: C_15  and  S_16
REMARK    7  A    between atoms: S_16  and  C_17
REMARK                            x       y       z     vdW  Elec       q    Type
REMARK                         _______ _______ _______ _____ _____    ______ ____
ROOT
ATOM      1  C   UNL     1      44.612   5.399  11.101  0.00  0.00    +0.000 C 
ENDROOT
BRANCH   1   2
ATOM      2  O   UNL     1      43.922   4.736  10.033  0.00  0.00    +0.000 OA
BRANCH   2   6
ATOM      3  C   UNL     1      46.458   2.487   7.681  0.00  0.00    +0.000 A 
ATOM      4  C   UNL     1      45.635   1.851   8.612  0.00  0.00    +0.000 A 
ATOM      5  C   UNL     1      44.783   2.622   9.408  0.00  0.00    +0.000 A 
ATOM      6  C   UNL     1      44.788   3.999   9.241  0.00  0.00    +0.000 A 
ATOM      7  N   UNL     1      45.584   4.638   8.358  0.00  0.00    +0.000 NA
ATOM      8  C   UNL     1      46.409   3.871   7.606  0.00  0.00    +0.000 A 
BRANCH   3  10
ATOM      9  N   UNL     1      48.435   2.490   6.271  0.00  0.00    +0.000 N 
ATOM     10  C   UNL     1      47.388   1.776   6.782  0.00  0.00    +0.000 C 
ATOM     11  O   UNL     1      47.255   0.584   6.535  0.00  0.00    +0.000 OA
ATOM     12  H   UNL     1      49.130   1.953   5.763  0.00  0.00    +0.000 HD
ATOM     13  H   UNL     1      48.725   3.379   6.652  0.00  0.00    +0.000 HD
ENDBRANCH   3  10
ENDBRANCH   2   6
ENDBRANCH   1   2
BRANCH   1  14
ATOM     14  C   UNL     1      43.792   6.593  11.594  0.00  0.00    +0.000 C 
BRANCH  14  15
ATOM     15  C   UNL     1      44.663   7.819  11.744  0.00  0.00    +0.000 A 
ATOM     16  C   UNL     1      44.280   9.042  11.187  0.00  0.00    +0.000 A 
ATOM     17  C   UNL     1      45.031  10.194  11.430  0.00  0.00    +0.000 A 
ATOM     18  C   UNL     1      46.173  10.138  12.239  0.00  0.00    +0.000 A 
ATOM     19  C   UNL     1      46.574   8.923  12.799  0.00  0.00    +0.000 A 
ATOM     20  C   UNL     1      45.817   7.771  12.542  0.00  0.00    +0.000 A 
BRANCH  19  21
ATOM     21  S   UNL     1      47.896   8.796  13.986  0.00  0.00    +0.000 S 
BRANCH  21  22
ATOM     22  C   UNL     1      49.107   7.763  13.099  0.00  0.00    +0.000 C 
ATOM     23  C   UNL     1      50.578   8.123  13.314  0.00  0.00    +0.000 C 
ATOM     24  O   UNL     1      50.775   8.348  11.894  0.00  0.00    +0.000 OA
ATOM     25  C   UNL     1      49.343   8.303  11.678  0.00  0.00    +0.000 C 
ENDBRANCH  21  22
ENDBRANCH  19  21
ENDBRANCH  14  15
ENDBRANCH   1  14
TORSDOF 7
ENDMDL
MODEL 6
REMARK VINA RESULT:    -6.552      3.593      7.983
REMARK INTER + INTRA:         -10.143
REMARK INTER:                  -9.354
REMARK INTRA:                  -0.790
REMARK UNBOUND:                -0.910
REMARK  Name = 
REMARK  7 active torsions:
REMARK  status: ('A' for Active; 'I' for Inactive)
REMARK    1  A    between atoms: C_2  and  C_4
REMARK    2  A    between atoms: C_7  and  O_8
REMARK    3  A    between atoms: O_8  and  C_9
REMARK    4  A    between atoms: C_9  and  C_10
REMARK    5  A    between atoms: C_10  and  C_11
REMARK    6  A    between atoms: C_15  and  S_16
REMARK    7  A    between atoms: S_16  and  C_17
REMARK                            x       y       z     vdW  Elec       q    Type
REMARK                         _______ _______ _______ _____ _____    ______ ____
ROOT
ATOM      1  C   UNL     1      45.928   6.965  12.768  0.00  0.00    +0.000 C 
ENDROOT
BRANCH   1   2
ATOM      2  O   UNL     1      47.177   6.261  12.770  0.00  0.00    +0.000 OA
BRANCH   2   6
ATOM      3  C   UNL     1      48.032   4.641  16.467  0.00  0.00    +0.000 A 
ATOM      4  C   UNL     1      47.117   4.001  15.628  0.00  0.00    +0.000 A 
ATOM      5  C   UNL     1      46.829   4.562  14.380  0.00  0.00    +0.000 A 
ATOM      6  C   UNL     1      47.470   5.737  14.019  0.00  0.00    +0.000 A 
ATOM      7  N   UNL     1      48.348   6.381  14.818  0.00  0.00    +0.000 NA
ATOM      8  C   UNL     1      48.602   5.826  16.027  0.00  0.00    +0.000 A 
BRANCH   3  10
ATOM      9  N   UNL     1      47.677   4.556  18.868  0.00  0.00    +0.000 N 
ATOM     10  C   UNL     1      48.419   4.137  17.799  0.00  0.00    +0.000 C 
ATOM     11  O   UNL     1      49.339   3.342  17.942  0.00  0.00    +0.000 OA
ATOM     12  H   UNL     1      47.877   4.100  19.751  0.00  0.00    +0.000 HD
ATOM     13  H   UNL     1      46.769   4.987  18.764  0.00  0.00    +0.000 HD
ENDBRANCH   3  10
ENDBRANCH   2   6
ENDBRANCH   1   2
BRANCH   1  14
ATOM     14  C   UNL     1      45.280   6.878  11.384  0.00  0.00    +0.000 C 
BRANCH  14  15
ATOM     15  C   UNL     1      44.957   5.444  11.031  0.00  0.00    +0.000 A 
ATOM     16  C   UNL     1      44.197   4.648  11.893  0.00  0.00    +0.000 A 
ATOM     17  C   UNL     1      43.804   3.365  11.505  0.00  0.00    +0.000 A 
ATOM     18  C   UNL     1      44.161   2.864  10.248  0.00  0.00    +0.000 A 
ATOM     19  C   UNL     1      44.925   3.643   9.376  0.00  0.00    +0.000 A 
ATOM     20  C   UNL     1      45.321   4.928   9.778  0.00  0.00    +0.000 A 
BRANCH  19  21
ATOM     21  S   UNL     1      45.261   3.163   7.693  0.00  0.00    +0.000 S 
BRANCH  21  22
ATOM     22  C   UNL     1      46.882   2.346   7.848  0.00  0.00    +0.000 C 
ATOM     23  C   UNL     1      47.901   2.667   6.752  0.00  0.00    +0.000 C 
ATOM     24  O   UNL     1      48.011   1.268   6.383  0.00  0.00    +0.000 OA
ATOM     25  C   UNL     1      46.852   0.953   7.195  0.00  0.00    +0.000 C 
ENDBRANCH  21  22
ENDBRANCH  19  21
ENDBRANCH  14  15
ENDBRANCH   1  14
TORSDOF 7
ENDMDL
MODEL 7
REMARK VINA RESULT:    -6.544      2.366      2.783
REMARK INTER + INTRA:         -10.131
REMARK INTER:                  -9.469
REMARK INTRA:                  -0.662
REMARK UNBOUND:                -0.910
REMARK  Name = 
REMARK  7 active torsions:
REMARK  status: ('A' for Active; 'I' for Inactive)
REMARK    1  A    between atoms: C_2  and  C_4
REMARK    2  A    between atoms: C_7  and  O_8
REMARK    3  A    between atoms: O_8  and  C_9
REMARK    4  A    between atoms: C_9  and  C_10
REMARK    5  A    between atoms: C_10  and  C_11
REMARK    6  A    between atoms: C_15  and  S_16
REMARK    7  A    between atoms: S_16  and  C_17
REMARK                            x       y       z     vdW  Elec       q    Type
REMARK                         _______ _______ _______ _____ _____    ______ ____
ROOT
ATOM      1  C   UNL     1      44.607   4.610  11.619  0.00  0.00    +0.000 C 
ENDROOT
BRANCH   1   2
ATOM      2  O   UNL     1      44.186   4.756  10.257  0.00  0.00    +0.000 OA
BRANCH   2   6
ATOM      3  C   UNL     1      46.497   2.503   7.687  0.00  0.00    +0.000 A 
ATOM      4  C   UNL     1      45.693   1.863   8.632  0.00  0.00    +0.000 A 
ATOM      5  C   UNL     1      44.918   2.636   9.502  0.00  0.00    +0.000 A 
ATOM      6  C   UNL     1      44.977   4.017   9.392  0.00  0.00    +0.000 A 
ATOM      7  N   UNL     1      45.757   4.658   8.496  0.00  0.00    +0.000 NA
ATOM      8  C   UNL     1      46.508   3.889   7.672  0.00  0.00    +0.000 A 
BRANCH   3  10
ATOM      9  N   UNL     1      48.352   2.505   6.119  0.00  0.00    +0.000 N 
ATOM     10  C   UNL     1      47.348   1.792   6.714  0.00  0.00    +0.000 C 
ATOM     11  O   UNL     1      47.193   0.601   6.476  0.00  0.00    +0.000 OA
ATOM     12  H   UNL     1      49.001   1.968   5.555  0.00  0.00    +0.000 HD
ATOM     13  H   UNL     1      48.674   3.393   6.477  0.00  0.00    +0.000 HD
ENDBRANCH   3  10
ENDBRANCH   2   6
ENDBRANCH   1   2
BRANCH   1  14
ATOM     14  C   UNL     1      44.781   5.986  12.265  0.00  0.00    +0.000 C 
BRANCH  14  15
ATOM     15  C   UNL     1      46.245   6.327  12.419  0.00  0.00    +0.000 A 
ATOM     16  C   UNL     1      46.966   6.888  11.360  0.00  0.00    +0.000 A 
ATOM     17  C   UNL     1      48.284   7.308  11.548  0.00  0.00    +0.000 A 
ATOM     18  C   UNL     1      48.898   7.179  12.799  0.00  0.00    +0.000 A 
ATOM     19  C   UNL     1      48.196   6.615  13.868  0.00  0.00    +0.000 A 
ATOM     20  C   UNL     1      46.874   6.190  13.666  0.00  0.00    +0.000 A 
BRANCH  19  21
ATOM     21  S   UNL     1      48.829   6.586  15.533  0.00  0.00    +0.000 S 
BRANCH  21  22
ATOM     22  C   UNL     1      48.601   8.317  16.056  0.00  0.00    +0.000 C 
ATOM     23  C   UNL     1      49.846   9.204  15.991  0.00  0.00    +0.000 C 
ATOM     24  O   UNL     1      49.767   9.495  17.410  0.00  0.00    +0.000 OA
ATOM     25  C   UNL     1      48.778   8.450  17.579  0.00  0.00    +0.000 C 
ENDBRANCH  21  22
ENDBRANCH  19  21
ENDBRANCH  14  15
ENDBRANCH   1  14
TORSDOF 7
ENDMDL
MODEL 8
REMARK VINA RESULT:    -6.277      3.894      8.686
REMARK INTER + INTRA:          -9.755
REMARK INTER:                  -9.387
REMARK INTRA:                  -0.368
REMARK UNBOUND:                -0.910
REMARK  Name = 
REMARK  7 active torsions:
REMARK  status: ('A' for Active; 'I' for Inactive)
REMARK    1  A    between atoms: C_2  and  C_4
REMARK    2  A    between atoms: C_7  and  O_8
REMARK    3  A    between atoms: O_8  and  C_9
REMARK    4  A    between atoms: C_9  and  C_10
REMARK    5  A    between atoms: C_10  and  C_11
REMARK    6  A    between atoms: C_15  and  S_16
REMARK    7  A    between atoms: S_16  and  C_17
REMARK                            x       y       z     vdW  Elec       q    Type
REMARK                         _______ _______ _______ _____ _____    ______ ____
ROOT
ATOM      1  C   UNL     1      47.171   4.071  13.863  0.00  0.00    +0.000 C 
ENDROOT
BRANCH   1   2
ATOM      2  O   UNL     1      47.515   3.030  14.787  0.00  0.00    +0.000 OA
BRANCH   2   6
ATOM      3  C   UNL     1      48.689   4.486  18.464  0.00  0.00    +0.000 A 
ATOM      4  C   UNL     1      48.090   3.227  18.380  0.00  0.00    +0.000 A 
ATOM      5  C   UNL     1      47.690   2.746  17.130  0.00  0.00    +0.000 A 
ATOM      6  C   UNL     1      47.907   3.540  16.014  0.00  0.00    +0.000 A 
ATOM      7  N   UNL     1      48.471   4.765  16.072  0.00  0.00    +0.000 NA
ATOM      8  C   UNL     1      48.839   5.216  17.295  0.00  0.00    +0.000 A 
BRANCH   3  10
ATOM      9  N   UNL     1      50.119   4.415  20.426  0.00  0.00    +0.000 N 
ATOM     10  C   UNL     1      49.159   5.091  19.726  0.00  0.00    +0.000 C 
ATOM     11  O   UNL     1      48.740   6.175  20.112  0.00  0.00    +0.000 OA
ATOM     12  H   UNL     1      50.518   4.908  21.217  0.00  0.00    +0.000 HD
ATOM     13  H   UNL     1      50.668   3.673  20.018  0.00  0.00    +0.000 HD
ENDBRANCH   3  10
ENDBRANCH   2   6
ENDBRANCH   1   2
BRANCH   1  14
ATOM     14  C   UNL     1      45.810   4.667  14.227  0.00  0.00    +0.000 C 
BRANCH  14  15
ATOM     15  C   UNL     1      44.849   4.565  13.065  0.00  0.00    +0.000 A 
ATOM     16  C   UNL     1      43.814   5.491  12.907  0.00  0.00    +0.000 A 
ATOM     17  C   UNL     1      43.006   5.458  11.768  0.00  0.00    +0.000 A 
ATOM     18  C   UNL     1      43.227   4.503  10.769  0.00  0.00    +0.000 A 
ATOM     19  C   UNL     1      44.253   3.566  10.912  0.00  0.00    +0.000 A 
ATOM     20  C   UNL     1      45.054   3.603  12.064  0.00  0.00    +0.000 A 
BRANCH  19  21
ATOM     21  S   UNL     1      44.724   2.442   9.613  0.00  0.00    +0.000 S 
BRANCH  21  22
ATOM     22  C   UNL     1      44.916   3.564   8.190  0.00  0.00    +0.000 C 
ATOM     23  C   UNL     1      45.979   3.168   7.164  0.00  0.00    +0.000 C 
ATOM     24  O   UNL     1      46.692   4.417   7.356  0.00  0.00    +0.000 OA
ATOM     25  C   UNL     1      45.890   4.706   8.528  0.00  0.00    +0.000 C 
ENDBRANCH  21  22
ENDBRANCH  19  21
ENDBRANCH  14  15
ENDBRANCH   1  14
TORSDOF 7
ENDMDL
MODEL 9
REMARK VINA RESULT:    -6.136      4.076      7.582
REMARK INTER + INTRA:          -9.557
REMARK INTER:                  -8.672
REMARK INTRA:                  -0.885
REMARK UNBOUND:                -0.910
REMARK  Name = 
REMARK  7 active torsions:
REMARK  status: ('A' for Active; 'I' for Inactive)
REMARK    1  A    between atoms: C_2  and  C_4
REMARK    2  A    between atoms: C_7  and  O_8
REMARK    3  A    between atoms: O_8  and  C_9
REMARK    4  A    between atoms: C_9  and  C_10
REMARK    5  A    between atoms: C_10  and  C_11
REMARK    6  A    between atoms: C_15  and  S_16
REMARK    7  A    between atoms: S_16  and  C_17
REMARK                            x       y       z     vdW  Elec       q    Type
REMARK                         _______ _______ _______ _____ _____    ______ ____
ROOT
ATOM      1  C   UNL     1      49.506   7.352  13.234  0.00  0.00    +0.000 C 
ENDROOT
BRANCH   1   2
ATOM      2  O   UNL     1      49.306   7.756  14.595  0.00  0.00    +0.000 OA
BRANCH   2   6
ATOM      3  C   UNL     1      48.071   4.649  17.013  0.00  0.00    +0.000 A 
ATOM      4  C   UNL     1      48.917   5.632  17.531  0.00  0.00    +0.000 A 
ATOM      5  C   UNL     1      49.335   6.677  16.701  0.00  0.00    +0.000 A 
ATOM      6  C   UNL     1      48.888   6.699  15.389  0.00  0.00    +0.000 A 
ATOM      7  N   UNL     1      48.082   5.754  14.862  0.00  0.00    +0.000 NA
ATOM      8  C   UNL     1      47.700   4.745  15.680  0.00  0.00    +0.000 A 
BRANCH   3  10
ATOM      9  N   UNL     1      48.239   3.173  18.934  0.00  0.00    +0.000 N 
ATOM     10  C   UNL     1      47.559   3.507  17.796  0.00  0.00    +0.000 C 
ATOM     11  O   UNL     1      46.544   2.907  17.467  0.00  0.00    +0.000 OA
ATOM     12  H   UNL     1      47.799   2.473  19.522  0.00  0.00    +0.000 HD
ATOM     13  H   UNL     1      48.905   3.793  19.371  0.00  0.00    +0.000 HD
ENDBRANCH   3  10
ENDBRANCH   2   6
ENDBRANCH   1   2
BRANCH   1  14
ATOM     14  C   UNL     1      48.882   8.378  12.286  0.00  0.00    +0.000 C 
BRANCH  14  15
ATOM     15  C   UNL     1      47.406   8.111  12.101  0.00  0.00    +0.000 A 
ATOM     16  C   UNL     1      46.465   9.127  12.292  0.00  0.00    +0.000 A 
ATOM     17  C   UNL     1      45.117   8.902  12.004  0.00  0.00    +0.000 A 
ATOM     18  C   UNL     1      44.693   7.660  11.516  0.00  0.00    +0.000 A 
ATOM     19  C   UNL     1      45.619   6.631  11.324  0.00  0.00    +0.000 A 
ATOM     20  C   UNL     1      46.969   6.865  11.623  0.00  0.00    +0.000 A 
BRANCH  19  21
ATOM     21  S   UNL     1      45.202   5.091  10.532  0.00  0.00    +0.000 S 
BRANCH  21  22
ATOM     22  C   UNL     1      43.773   4.533  11.515  0.00  0.00    +0.000 C 
ATOM     23  C   UNL     1      44.055   4.215  12.986  0.00  0.00    +0.000 C 
ATOM     24  O   UNL     1      43.593   2.849  12.824  0.00  0.00    +0.000 OA
ATOM     25  C   UNL     1      43.585   3.011  11.384  0.00  0.00    +0.000 C 
ENDBRANCH  21  22
ENDBRANCH  19  21
ENDBRANCH  14  15
ENDBRANCH   1  14
TORSDOF 7
ENDMDL
