MODEL 1
REMARK VINA RESULT:    -8.436      0.000      0.000
REMARK INTER + INTRA:         -11.430
REMARK INTER:                 -10.902
REMARK INTRA:                  -0.528
REMARK UNBOUND:                -0.528
REMARK  Name = 
REMARK  5 active torsions:
REMARK  status: ('A' for Active; 'I' for Inactive)
REMARK    1  A    between atoms: C_2  and  C_4
REMARK    2  A    between atoms: C_8  and  C_9
REMARK    3  A    between atoms: C_9  and  O_10
REMARK    4  A    between atoms: O_10  and  C_11
REMARK    5  A    between atoms: C_15  and  C_16
REMARK                            x       y       z     vdW  Elec       q    Type
REMARK                         _______ _______ _______ _____ _____    ______ ____
ROOT
ATOM      1  O   UNL     1      44.066   4.410  11.298  0.00  0.00    +0.000 OA
ENDROOT
BRANCH   1   2
ATOM      2  C   UNL     1      45.230   4.677  11.966  0.00  0.00    +0.000 A 
ATOM      3  C   UNL     1      45.626   3.749  12.916  0.00  0.00    +0.000 A 
ATOM      4  C   UNL     1      46.775   4.009  13.636  0.00  0.00    +0.000 A 
ATOM      5  N   UNL     1      47.534   5.116  13.471  0.00  0.00    +0.000 NA
ATOM      6  C   UNL     1      47.144   6.013  12.532  0.00  0.00    +0.000 A 
ATOM      7  C   UNL     1      46.018   5.800  11.744  0.00  0.00    +0.000 A 
BRANCH   6   8
ATOM      8  C   UNL     1      47.958   7.235  12.398  0.00  0.00    +0.000 A 
ATOM      9  C   UNL     1      49.353   7.200  12.559  0.00  0.00    +0.000 A 
ATOM     10  C   UNL     1      50.132   8.352  12.403  0.00  0.00    +0.000 A 
ATOM     11  C   UNL     1      49.529   9.566  12.086  0.00  0.00    +0.000 A 
ATOM     12  C   UNL     1      48.149   9.626  11.938  0.00  0.00    +0.000 A 
ATOM     13 CL   UNL     1      47.388  11.120  11.545  0.00  0.00    +0.000 Cl
ATOM     14  C   UNL     1      47.370   8.480  12.098  0.00  0.00    +0.000 A 
ENDBRANCH   6   8
ENDBRANCH   1   2
BRANCH   1  15
ATOM     15  C   UNL     1      44.012   3.123  10.675  0.00  0.00    +0.000 C 
BRANCH  15  20
ATOM     16  C   UNL     1      46.346   2.100   7.853  0.00  0.00    +0.000 A 
ATOM     17  C   UNL     1      46.474   3.337   7.236  0.00  0.00    +0.000 A 
ATOM     18  N   UNL     1      45.837   4.458   7.653  0.00  0.00    +0.000 NA
ATOM     19  C   UNL     1      45.047   4.336   8.741  0.00  0.00    +0.000 A 
ATOM     20  C   UNL     1      44.863   3.146   9.442  0.00  0.00    +0.000 A 
ATOM     21  C   UNL     1      45.538   2.008   8.988  0.00  0.00    +0.000 A 
BRANCH  16  23
ATOM     22  N   UNL     1      46.731  -0.298   7.743  0.00  0.00    +0.000 N 
ATOM     23  C   UNL     1      47.086   0.947   7.300  0.00  0.00    +0.000 C 
ATOM     24  O   UNL     1      47.958   1.093   6.455  0.00  0.00    +0.000 OA
ATOM     25  H   UNL     1      47.167  -1.078   7.266  0.00  0.00    +0.000 HD
ATOM     26  H   UNL     1      45.856  -0.476   8.215  0.00  0.00    +0.000 HD
ENDBRANCH  16  23
ENDBRANCH  15  20
ENDBRANCH   1  15
TORSDOF 5
ENDMDL
MODEL 2
REMARK VINA RESULT:    -8.348      3.711      7.133
REMARK INTER + INTRA:         -11.316
REMARK INTER:                 -10.679
REMARK INTRA:                  -0.638
REMARK UNBOUND:                -0.528
REMARK  Name = 
REMARK  5 active torsions:
REMARK  status: ('A' for Active; 'I' for Inactive)
REMARK    1  A    between atoms: C_2  and  C_4
REMARK    2  A    between atoms: C_8  and  C_9
REMARK    3  A    between atoms: C_9  and  O_10
REMARK    4  A    between atoms: O_10  and  C_11
REMARK    5  A    between atoms: C_15  and  C_16
REMARK                            x       y       z     vdW  Elec       q    Type
REMARK                         _______ _______ _______ _____ _____    ______ ____
ROOT
ATOM      1  O   UNL     1      44.724   6.725  12.066  0.00  0.00    +0.000 OA
ENDROOT
BRANCH   1   2
ATOM      2  C   UNL     1      44.439   5.527  11.469  0.00  0.00    +0.000 A 
ATOM      3  C   UNL     1      43.418   4.780  12.036  0.00  0.00    +0.000 A 
ATOM      4  C   UNL     1      43.132   3.548  11.481  0.00  0.00    +0.000 A 
ATOM      5  N   UNL     1      43.790   3.028  10.420  0.00  0.00    +0.000 NA
ATOM      6  C   UNL     1      44.779   3.771   9.866  0.00  0.00    +0.000 A 
ATOM      7  C   UNL     1      45.098   5.036  10.349  0.00  0.00    +0.000 A 
BRANCH   6   8
ATOM      8  C   UNL     1      45.515   3.169   8.739  0.00  0.00    +0.000 A 
ATOM      9  C   UNL     1      46.043   3.963   7.708  0.00  0.00    +0.000 A 
ATOM     10  C   UNL     1      46.766   3.397   6.653  0.00  0.00    +0.000 A 
ATOM     11  C   UNL     1      46.973   2.022   6.605  0.00  0.00    +0.000 A 
ATOM     12  C   UNL     1      46.446   1.215   7.607  0.00  0.00    +0.000 A 
ATOM     13 CL   UNL     1      46.694  -0.488   7.562  0.00  0.00    +0.000 Cl
ATOM     14  C   UNL     1      45.720   1.776   8.657  0.00  0.00    +0.000 A 
ENDBRANCH   6   8
ENDBRANCH   1   2
BRANCH   1  15
ATOM     15  C   UNL     1      46.063   7.190  11.872  0.00  0.00    +0.000 C 
BRANCH  15  20
ATOM     16  C   UNL     1      47.537   5.310  14.829  0.00  0.00    +0.000 A 
ATOM     17  C   UNL     1      48.346   6.321  15.330  0.00  0.00    +0.000 A 
ATOM     18  N   UNL     1      48.466   7.545  14.760  0.00  0.00    +0.000 NA
ATOM     19  C   UNL     1      47.734   7.768  13.648  0.00  0.00    +0.000 A 
ATOM     20  C   UNL     1      46.880   6.830  13.075  0.00  0.00    +0.000 A 
ATOM     21  C   UNL     1      46.776   5.577  13.689  0.00  0.00    +0.000 A 
BRANCH  16  23
ATOM     22  N   UNL     1      47.258   4.039  16.882  0.00  0.00    +0.000 N 
ATOM     23  C   UNL     1      47.495   4.013  15.536  0.00  0.00    +0.000 C 
ATOM     24  O   UNL     1      47.632   2.956  14.937  0.00  0.00    +0.000 OA
ATOM     25  H   UNL     1      47.115   3.138  17.323  0.00  0.00    +0.000 HD
ATOM     26  H   UNL     1      46.873   4.848  17.350  0.00  0.00    +0.000 HD
ENDBRANCH  16  23
ENDBRANCH  15  20
ENDBRANCH   1  15
TORSDOF 5
ENDMDL
MODEL 3
REMARK VINA RESULT:    -8.322      1.744      2.096
REMARK INTER + INTRA:         -11.283
REMARK INTER:                 -10.601
REMARK INTRA:                  -0.682
REMARK UNBOUND:                -0.528
REMARK  Name = 
REMARK  5 active torsions:
REMARK  status: ('A' for Active; 'I' for Inactive)
REMARK    1  A    between atoms: C_2  and  C_4
REMARK    2  A    between atoms: C_8  and  C_9
REMARK    3  A    between atoms: C_9  and  O_10
REMARK    4  A    between atoms: O_10  and  C_11
REMARK    5  A    between atoms: C_15  and  C_16
REMARK                            x       y       z     vdW  Elec       q    Type
REMARK                         _______ _______ _______ _____ _____    ______ ____
ROOT
ATOM      1  O   UNL     1      44.567   2.939  11.923  0.00  0.00    +0.000 OA
ENDROOT
BRANCH   1   2
ATOM      2  C   UNL     1      44.826   4.234  12.280  0.00  0.00    +0.000 A 
ATOM      3  C   UNL     1      43.726   5.056  12.471  0.00  0.00    +0.000 A 
ATOM      4  C   UNL     1      43.955   6.379  12.793  0.00  0.00    +0.000 A 
ATOM      5  N   UNL     1      45.187   6.920  12.929  0.00  0.00    +0.000 NA
ATOM      6  C   UNL     1      46.256   6.106  12.750  0.00  0.00    +0.000 A 
ATOM      7  C   UNL     1      46.102   4.754  12.460  0.00  0.00    +0.000 A 
BRANCH   6   8
ATOM      8  C   UNL     1      47.590   6.724  12.859  0.00  0.00    +0.000 A 
ATOM      9  C   UNL     1      48.156   7.426  11.781  0.00  0.00    +0.000 A 
ATOM     10  C   UNL     1      49.409   8.038  11.891  0.00  0.00    +0.000 A 
ATOM     11  C   UNL     1      50.125   7.957  13.082  0.00  0.00    +0.000 A 
ATOM     12  C   UNL     1      49.591   7.255  14.155  0.00  0.00    +0.000 A 
ATOM     13 CL   UNL     1      50.464   7.147  15.635  0.00  0.00    +0.000 Cl
ATOM     14  C   UNL     1      48.344   6.639  14.047  0.00  0.00    +0.000 A 
ENDBRANCH   6   8
ENDBRANCH   1   2
BRANCH   1  15
ATOM     15  C   UNL     1      43.785   2.787  10.735  0.00  0.00    +0.000 C 
BRANCH  15  20
ATOM     16  C   UNL     1      46.273   2.107   7.942  0.00  0.00    +0.000 A 
ATOM     17  C   UNL     1      46.359   3.393   7.427  0.00  0.00    +0.000 A 
ATOM     18  N   UNL     1      45.649   4.445   7.903  0.00  0.00    +0.000 NA
ATOM     19  C   UNL     1      44.826   4.199   8.944  0.00  0.00    +0.000 A 
ATOM     20  C   UNL     1      44.679   2.950   9.544  0.00  0.00    +0.000 A 
ATOM     21  C   UNL     1      45.429   1.886   9.032  0.00  0.00    +0.000 A 
BRANCH  16  23
ATOM     22  N   UNL     1      46.775  -0.253   7.649  0.00  0.00    +0.000 N 
ATOM     23  C   UNL     1      47.093   1.039   7.333  0.00  0.00    +0.000 C 
ATOM     24  O   UNL     1      47.997   1.296   6.551  0.00  0.00    +0.000 OA
ATOM     25  H   UNL     1      47.271  -0.970   7.131  0.00  0.00    +0.000 HD
ATOM     26  H   UNL     1      45.888  -0.510   8.057  0.00  0.00    +0.000 HD
ENDBRANCH  16  23
ENDBRANCH  15  20
ENDBRANCH   1  15
TORSDOF 5
ENDMDL
MODEL 4
REMARK VINA RESULT:    -8.161      1.626      2.152
REMARK INTER + INTRA:         -11.074
REMARK INTER:                 -10.367
REMARK INTRA:                  -0.708
REMARK UNBOUND:                -0.528
REMARK  Name = 
REMARK  5 active torsions:
REMARK  status: ('A' for Active; 'I' for Inactive)
REMARK    1  A    between atoms: C_2  and  C_4
REMARK    2  A    between atoms: C_8  and  C_9
REMARK    3  A    between atoms: C_9  and  O_10
REMARK    4  A    between atoms: O_10  and  C_11
REMARK    5  A    between atoms: C_15  and  C_16
REMARK                            x       y       z     vdW  Elec       q    Type
REMARK                         _______ _______ _______ _____ _____    ______ ____
ROOT
ATOM      1  O   UNL     1      43.809   4.336  10.537  0.00  0.00    +0.000 OA
ENDROOT
BRANCH   1   2
ATOM      2  C   UNL     1      44.710   4.838  11.435  0.00  0.00    +0.000 A 
ATOM      3  C   UNL     1      44.798   4.185  12.655  0.00  0.00    +0.000 A 
ATOM      4  C   UNL     1      45.669   4.690  13.599  0.00  0.00    +0.000 A 
ATOM      5  N   UNL     1      46.440   5.785  13.405  0.00  0.00    +0.000 NA
ATOM      6  C   UNL     1      46.355   6.410  12.205  0.00  0.00    +0.000 A 
ATOM      7  C   UNL     1      45.526   5.936  11.194  0.00  0.00    +0.000 A 
BRANCH   6   8
ATOM      8  C   UNL     1      47.169   7.627  12.029  0.00  0.00    +0.000 A 
ATOM      9  C   UNL     1      46.613   8.905  12.206  0.00  0.00    +0.000 A 
ATOM     10  C   UNL     1      47.390  10.060  12.068  0.00  0.00    +0.000 A 
ATOM     11  C   UNL     1      48.740   9.961  11.745  0.00  0.00    +0.000 A 
ATOM     12  C   UNL     1      49.306   8.707  11.549  0.00  0.00    +0.000 A 
ATOM     13 CL   UNL     1      50.975   8.568  11.149  0.00  0.00    +0.000 Cl
ATOM     14  C   UNL     1      48.533   7.554  11.681  0.00  0.00    +0.000 A 
ENDBRANCH   6   8
ENDBRANCH   1   2
BRANCH   1  15
ATOM     15  C   UNL     1      44.131   4.576   9.163  0.00  0.00    +0.000 C 
BRANCH  15  20
ATOM     16  C   UNL     1      46.618   2.512   7.163  0.00  0.00    +0.000 A 
ATOM     17  C   UNL     1      46.379   1.278   7.751  0.00  0.00    +0.000 A 
ATOM     18  N   UNL     1      45.498   1.082   8.762  0.00  0.00    +0.000 NA
ATOM     19  C   UNL     1      44.819   2.166   9.192  0.00  0.00    +0.000 A 
ATOM     20  C   UNL     1      44.972   3.444   8.659  0.00  0.00    +0.000 A 
ATOM     21  C   UNL     1      45.887   3.613   7.615  0.00  0.00    +0.000 A 
BRANCH  16  23
ATOM     22  N   UNL     1      48.929   2.465   6.410  0.00  0.00    +0.000 N 
ATOM     23  C   UNL     1      47.611   2.602   6.072  0.00  0.00    +0.000 C 
ATOM     24  O   UNL     1      47.269   2.758   4.908  0.00  0.00    +0.000 OA
ATOM     25  H   UNL     1      49.580   2.411   5.636  0.00  0.00    +0.000 HD
ATOM     26  H   UNL     1      49.225   2.068   7.290  0.00  0.00    +0.000 HD
ENDBRANCH  16  23
ENDBRANCH  15  20
ENDBRANCH   1  15
TORSDOF 5
ENDMDL
MODEL 5
REMARK VINA RESULT:    -8.013      3.700      7.150
REMARK INTER + INTRA:         -10.883
REMARK INTER:                 -10.102
REMARK INTRA:                  -0.782
REMARK UNBOUND:                -0.528
REMARK  Name = 
REMARK  5 active torsions:
REMARK  status: ('A' for Active; 'I' for Inactive)
REMARK    1  A    between atoms: C_2  and  C_4
REMARK    2  A    between atoms: C_8  and  C_9
REMARK    3  A    between atoms: C_9  and  O_10
REMARK    4  A    between atoms: O_10  and  C_11
REMARK    5  A    between atoms: C_15  and  C_16
REMARK                            x       y       z     vdW  Elec       q    Type
REMARK                         _______ _______ _______ _____ _____    ______ ____
ROOT
ATOM      1  O   UNL     1      44.385   6.839  11.898  0.00  0.00    +0.000 OA
ENDROOT
BRANCH   1   2
ATOM      2  C   UNL     1      44.216   5.583  11.382  0.00  0.00    +0.000 A 
ATOM      3  C   UNL     1      43.292   4.771  12.020  0.00  0.00    +0.000 A 
ATOM      4  C   UNL     1      43.127   3.483  11.548  0.00  0.00    +0.000 A 
ATOM      5  N   UNL     1      43.815   2.968  10.504  0.00  0.00    +0.000 NA
ATOM      6  C   UNL     1      44.709   3.774   9.880  0.00  0.00    +0.000 A 
ATOM      7  C   UNL     1      44.902   5.093  10.277  0.00  0.00    +0.000 A 
BRANCH   6   8
ATOM      8  C   UNL     1      45.481   3.182   8.773  0.00  0.00    +0.000 A 
ATOM      9  C   UNL     1      46.025   3.983   7.755  0.00  0.00    +0.000 A 
ATOM     10  C   UNL     1      46.783   3.427   6.719  0.00  0.00    +0.000 A 
ATOM     11  C   UNL     1      47.011   2.055   6.678  0.00  0.00    +0.000 A 
ATOM     12  C   UNL     1      46.470   1.241   7.666  0.00  0.00    +0.000 A 
ATOM     13 CL   UNL     1      46.743  -0.458   7.629  0.00  0.00    +0.000 Cl
ATOM     14  C   UNL     1      45.709   1.792   8.697  0.00  0.00    +0.000 A 
ENDBRANCH   6   8
ENDBRANCH   1   2
BRANCH   1  15
ATOM     15  C   UNL     1      45.417   6.951  12.883  0.00  0.00    +0.000 C 
BRANCH  15  20
ATOM     16  C   UNL     1      48.594   8.762  11.845  0.00  0.00    +0.000 A 
ATOM     17  C   UNL     1      48.080  10.050  11.770  0.00  0.00    +0.000 A 
ATOM     18  N   UNL     1      46.780  10.358  12.002  0.00  0.00    +0.000 NA
ATOM     19  C   UNL     1      45.965   9.334  12.334  0.00  0.00    +0.000 A 
ATOM     20  C   UNL     1      46.384   8.011  12.452  0.00  0.00    +0.000 A 
ATOM     21  C   UNL     1      47.731   7.726  12.210  0.00  0.00    +0.000 A 
BRANCH  16  23
ATOM     22  N   UNL     1      50.518   7.283  11.722  0.00  0.00    +0.000 N 
ATOM     23  C   UNL     1      50.028   8.550  11.562  0.00  0.00    +0.000 C 
ATOM     24  O   UNL     1      50.743   9.461  11.169  0.00  0.00    +0.000 OA
ATOM     25  H   UNL     1      51.471   7.136  11.410  0.00  0.00    +0.000 HD
ATOM     26  H   UNL     1      49.919   6.472  11.773  0.00  0.00    +0.000 HD
ENDBRANCH  16  23
ENDBRANCH  15  20
ENDBRANCH   1  15
TORSDOF 5
ENDMDL
MODEL 6
REMARK VINA RESULT:    -7.859      2.172      2.614
REMARK INTER + INTRA:         -10.684
REMARK INTER:                 -10.606
REMARK INTRA:                  -0.078
REMARK UNBOUND:                -0.528
REMARK  Name = 
REMARK  5 active torsions:
REMARK  status: ('A' for Active; 'I' for Inactive)
REMARK    1  A    between atoms: C_2  and  C_4
REMARK    2  A    between atoms: C_8  and  C_9
REMARK    3  A    between atoms: C_9  and  O_10
REMARK    4  A    between atoms: O_10  and  C_11
REMARK    5  A    between atoms: C_15  and  C_16
REMARK                            x       y       z     vdW  Elec       q    Type
REMARK                         _______ _______ _______ _____ _____    ______ ____
ROOT
ATOM      1  O   UNL     1      43.206   4.039  11.099  0.00  0.00    +0.000 OA
ENDROOT
BRANCH   1   2
ATOM      2  C   UNL     1      44.023   4.975  11.672  0.00  0.00    +0.000 A 
ATOM      3  C   UNL     1      44.847   4.533  12.696  0.00  0.00    +0.000 A 
ATOM      4  C   UNL     1      45.654   5.462  13.323  0.00  0.00    +0.000 A 
ATOM      5  N   UNL     1      45.687   6.774  12.999  0.00  0.00    +0.000 NA
ATOM      6  C   UNL     1      44.886   7.194  11.989  0.00  0.00    +0.000 A 
ATOM      7  C   UNL     1      44.073   6.309  11.289  0.00  0.00    +0.000 A 
BRANCH   6   8
ATOM      8  C   UNL     1      44.903   8.636  11.680  0.00  0.00    +0.000 A 
ATOM      9  C   UNL     1      45.865   9.490  12.245  0.00  0.00    +0.000 A 
ATOM     10  C   UNL     1      45.901  10.852  11.931  0.00  0.00    +0.000 A 
ATOM     11  C   UNL     1      44.971  11.390  11.046  0.00  0.00    +0.000 A 
ATOM     12  C   UNL     1      44.000  10.567  10.488  0.00  0.00    +0.000 A 
ATOM     13 CL   UNL     1      42.843  11.219   9.392  0.00  0.00    +0.000 Cl
ATOM     14  C   UNL     1      43.959   9.209  10.804  0.00  0.00    +0.000 A 
ENDBRANCH   6   8
ENDBRANCH   1   2
BRANCH   1  15
ATOM     15  C   UNL     1      43.835   2.786  10.812  0.00  0.00    +0.000 C 
BRANCH  15  20
ATOM     16  C   UNL     1      46.218   2.096   7.931  0.00  0.00    +0.000 A 
ATOM     17  C   UNL     1      46.145   3.333   7.305  0.00  0.00    +0.000 A 
ATOM     18  N   UNL     1      45.359   4.351   7.735  0.00  0.00    +0.000 NA
ATOM     19  C   UNL     1      44.626   4.123   8.844  0.00  0.00    +0.000 A 
ATOM     20  C   UNL     1      44.640   2.925   9.556  0.00  0.00    +0.000 A 
ATOM     21  C   UNL     1      45.463   1.896   9.089  0.00  0.00    +0.000 A 
BRANCH  16  23
ATOM     22  N   UNL     1      46.826  -0.242   7.668  0.00  0.00    +0.000 N 
ATOM     23  C   UNL     1      47.106   1.061   7.364  0.00  0.00    +0.000 C 
ATOM     24  O   UNL     1      48.035   1.353   6.623  0.00  0.00    +0.000 OA
ATOM     25  H   UNL     1      47.372  -0.939   7.175  0.00  0.00    +0.000 HD
ATOM     26  H   UNL     1      45.931  -0.533   8.036  0.00  0.00    +0.000 HD
ENDBRANCH  16  23
ENDBRANCH  15  20
ENDBRANCH   1  15
TORSDOF 5
ENDMDL
MODEL 7
REMARK VINA RESULT:    -7.608      4.055      8.014
REMARK INTER + INTRA:         -10.359
REMARK INTER:                  -9.767
REMARK INTRA:                  -0.593
REMARK UNBOUND:                -0.528
REMARK  Name = 
REMARK  5 active torsions:
REMARK  status: ('A' for Active; 'I' for Inactive)
REMARK    1  A    between atoms: C_2  and  C_4
REMARK    2  A    between atoms: C_8  and  C_9
REMARK    3  A    between atoms: C_9  and  O_10
REMARK    4  A    between atoms: O_10  and  C_11
REMARK    5  A    between atoms: C_15  and  C_16
REMARK                            x       y       z     vdW  Elec       q    Type
REMARK                         _______ _______ _______ _____ _____    ______ ____
ROOT
ATOM      1  O   UNL     1      45.436   4.267  13.966  0.00  0.00    +0.000 OA
ENDROOT
BRANCH   1   2
ATOM      2  C   UNL     1      44.874   4.283  12.719  0.00  0.00    +0.000 A 
ATOM      3  C   UNL     1      43.568   4.740  12.634  0.00  0.00    +0.000 A 
ATOM      4  C   UNL     1      42.957   4.731  11.395  0.00  0.00    +0.000 A 
ATOM      5  N   UNL     1      43.558   4.301  10.262  0.00  0.00    +0.000 NA
ATOM      6  C   UNL     1      44.838   3.866  10.353  0.00  0.00    +0.000 A 
ATOM      7  C   UNL     1      45.528   3.879  11.561  0.00  0.00    +0.000 A 
BRANCH   6   8
ATOM      8  C   UNL     1      45.460   3.358   9.116  0.00  0.00    +0.000 A 
ATOM      9  C   UNL     1      45.824   4.229   8.076  0.00  0.00    +0.000 A 
ATOM     10  C   UNL     1      46.442   3.754   6.914  0.00  0.00    +0.000 A 
ATOM     11  C   UNL     1      46.704   2.396   6.767  0.00  0.00    +0.000 A 
ATOM     12  C   UNL     1      46.337   1.514   7.777  0.00  0.00    +0.000 A 
ATOM     13 CL   UNL     1      46.655  -0.170   7.609  0.00  0.00    +0.000 Cl
ATOM     14  C   UNL     1      45.717   1.984   8.934  0.00  0.00    +0.000 A 
ENDBRANCH   6   8
ENDBRANCH   1   2
BRANCH   1  15
ATOM     15  C   UNL     1      46.828   3.936  13.994  0.00  0.00    +0.000 C 
BRANCH  15  20
ATOM     16  C   UNL     1      48.155   5.322  17.276  0.00  0.00    +0.000 A 
ATOM     17  C   UNL     1      48.694   6.507  16.793  0.00  0.00    +0.000 A 
ATOM     18  N   UNL     1      48.681   6.865  15.486  0.00  0.00    +0.000 NA
ATOM     19  C   UNL     1      48.094   6.004  14.629  0.00  0.00    +0.000 A 
ATOM     20  C   UNL     1      47.509   4.799  15.012  0.00  0.00    +0.000 A 
ATOM     21  C   UNL     1      47.535   4.460  16.368  0.00  0.00    +0.000 A 
BRANCH  16  23
ATOM     22  N   UNL     1      47.102   5.224  19.464  0.00  0.00    +0.000 N 
ATOM     23  C   UNL     1      48.237   5.039  18.724  0.00  0.00    +0.000 C 
ATOM     24  O   UNL     1      49.266   4.623  19.236  0.00  0.00    +0.000 OA
ATOM     25  H   UNL     1      47.147   4.911  20.427  0.00  0.00    +0.000 HD
ATOM     26  H   UNL     1      46.186   5.295  19.045  0.00  0.00    +0.000 HD
ENDBRANCH  16  23
ENDBRANCH  15  20
ENDBRANCH   1  15
TORSDOF 5
ENDMDL
MODEL 8
REMARK VINA RESULT:    -7.559      2.843      4.103
REMARK INTER + INTRA:         -10.297
REMARK INTER:                  -9.548
REMARK INTRA:                  -0.748
REMARK UNBOUND:                -0.528
REMARK  Name = 
REMARK  5 active torsions:
REMARK  status: ('A' for Active; 'I' for Inactive)
REMARK    1  A    between atoms: C_2  and  C_4
REMARK    2  A    between atoms: C_8  and  C_9
REMARK    3  A    between atoms: C_9  and  O_10
REMARK    4  A    between atoms: O_10  and  C_11
REMARK    5  A    between atoms: C_15  and  C_16
REMARK                            x       y       z     vdW  Elec       q    Type
REMARK                         _______ _______ _______ _____ _____    ______ ____
ROOT
ATOM      1  O   UNL     1      44.864   5.072  11.345  0.00  0.00    +0.000 OA
ENDROOT
BRANCH   1   2
ATOM      2  C   UNL     1      45.894   5.529  12.121  0.00  0.00    +0.000 A 
ATOM      3  C   UNL     1      46.706   6.503  11.561  0.00  0.00    +0.000 A 
ATOM      4  C   UNL     1      47.778   6.958  12.302  0.00  0.00    +0.000 A 
ATOM      5  N   UNL     1      48.084   6.507  13.541  0.00  0.00    +0.000 NA
ATOM      6  C   UNL     1      47.278   5.563  14.084  0.00  0.00    +0.000 A 
ATOM      7  C   UNL     1      46.160   5.084  13.410  0.00  0.00    +0.000 A 
BRANCH   6   8
ATOM      8  C   UNL     1      47.653   5.051  15.415  0.00  0.00    +0.000 A 
ATOM      9  C   UNL     1      47.087   3.872  15.927  0.00  0.00    +0.000 A 
ATOM     10  C   UNL     1      47.463   3.369  17.177  0.00  0.00    +0.000 A 
ATOM     11  C   UNL     1      48.412   4.038  17.943  0.00  0.00    +0.000 A 
ATOM     12  C   UNL     1      48.974   5.215  17.463  0.00  0.00    +0.000 A 
ATOM     13 CL   UNL     1      50.149   6.054  18.400  0.00  0.00    +0.000 Cl
ATOM     14  C   UNL     1      48.597   5.722  16.220  0.00  0.00    +0.000 A 
ENDBRANCH   6   8
ENDBRANCH   1   2
BRANCH   1  15
ATOM     15  C   UNL     1      45.033   5.277   9.939  0.00  0.00    +0.000 C 
BRANCH  15  20
ATOM     16  C   UNL     1      46.423   2.595   7.632  0.00  0.00    +0.000 A 
ATOM     17  C   UNL     1      45.695   1.515   8.112  0.00  0.00    +0.000 A 
ATOM     18  N   UNL     1      44.817   1.595   9.142  0.00  0.00    +0.000 NA
ATOM     19  C   UNL     1      44.655   2.810   9.705  0.00  0.00    +0.000 A 
ATOM     20  C   UNL     1      45.323   3.959   9.289  0.00  0.00    +0.000 A 
ATOM     21  C   UNL     1      46.220   3.845   8.222  0.00  0.00    +0.000 A 
BRANCH  16  23
ATOM     22  N   UNL     1      47.170   3.139   5.384  0.00  0.00    +0.000 N 
ATOM     23  C   UNL     1      47.357   2.382   6.507  0.00  0.00    +0.000 C 
ATOM     24  O   UNL     1      48.282   1.586   6.587  0.00  0.00    +0.000 OA
ATOM     25  H   UNL     1      47.890   3.063   4.674  0.00  0.00    +0.000 HD
ATOM     26  H   UNL     1      46.609   3.979   5.383  0.00  0.00    +0.000 HD
ENDBRANCH  16  23
ENDBRANCH  15  20
ENDBRANCH   1  15
TORSDOF 5
ENDMDL
MODEL 9
REMARK VINA RESULT:    -7.471      3.672      7.837
REMARK INTER + INTRA:         -10.183
REMARK INTER:                  -9.481
REMARK INTRA:                  -0.702
REMARK UNBOUND:                -0.528
REMARK  Name = 
REMARK  5 active torsions:
REMARK  status: ('A' for Active; 'I' for Inactive)
REMARK    1  A    between atoms: C_2  and  C_4
REMARK    2  A    between atoms: C_8  and  C_9
REMARK    3  A    between atoms: C_9  and  O_10
REMARK    4  A    between atoms: O_10  and  C_11
REMARK    5  A    between atoms: C_15  and  C_16
REMARK                            x       y       z     vdW  Elec       q    Type
REMARK                         _______ _______ _______ _____ _____    ______ ____
ROOT
ATOM      1  O   UNL     1      45.265   7.077  11.132  0.00  0.00    +0.000 OA
ENDROOT
BRANCH   1   2
ATOM      2  C   UNL     1      44.918   5.831  10.687  0.00  0.00    +0.000 A 
ATOM      3  C   UNL     1      43.836   5.230  11.311  0.00  0.00    +0.000 A 
ATOM      4  C   UNL     1      43.485   3.955  10.912  0.00  0.00    +0.000 A 
ATOM      5  N   UNL     1      44.135   3.259   9.952  0.00  0.00    +0.000 NA
ATOM      6  C   UNL     1      45.185   3.860   9.341  0.00  0.00    +0.000 A 
ATOM      7  C   UNL     1      45.574   5.156   9.665  0.00  0.00    +0.000 A 
BRANCH   6   8
ATOM      8  C   UNL     1      45.910   3.069   8.329  0.00  0.00    +0.000 A 
ATOM      9  C   UNL     1      46.601   3.692   7.277  0.00  0.00    +0.000 A 
ATOM     10  C   UNL     1      47.314   2.946   6.333  0.00  0.00    +0.000 A 
ATOM     11  C   UNL     1      47.347   1.557   6.420  0.00  0.00    +0.000 A 
ATOM     12  C   UNL     1      46.657   0.919   7.443  0.00  0.00    +0.000 A 
ATOM     13 CL   UNL     1      46.689  -0.799   7.564  0.00  0.00    +0.000 Cl
ATOM     14  C   UNL     1      45.941   1.660   8.383  0.00  0.00    +0.000 A 
ENDBRANCH   6   8
ENDBRANCH   1   2
BRANCH   1  15
ATOM     15  C   UNL     1      45.170   7.259  12.548  0.00  0.00    +0.000 C 
BRANCH  15  20
ATOM     16  C   UNL     1      48.452   8.712  13.800  0.00  0.00    +0.000 A 
ATOM     17  C   UNL     1      49.120   7.521  14.051  0.00  0.00    +0.000 A 
ATOM     18  N   UNL     1      48.570   6.295  13.871  0.00  0.00    +0.000 NA
ATOM     19  C   UNL     1      47.302   6.262  13.410  0.00  0.00    +0.000 A 
ATOM     20  C   UNL     1      46.551   7.397  13.112  0.00  0.00    +0.000 A 
ATOM     21  C   UNL     1      47.148   8.647  13.305  0.00  0.00    +0.000 A 
BRANCH  16  23
ATOM     22  N   UNL     1      48.727  10.751  15.094  0.00  0.00    +0.000 N 
ATOM     23  C   UNL     1      49.155   9.989  14.043  0.00  0.00    +0.000 C 
ATOM     24  O   UNL     1      50.104  10.335  13.354  0.00  0.00    +0.000 OA
ATOM     25  H   UNL     1      49.296  11.560  15.314  0.00  0.00    +0.000 HD
ATOM     26  H   UNL     1      48.149  10.379  15.834  0.00  0.00    +0.000 HD
ENDBRANCH  16  23
ENDBRANCH  15  20
ENDBRANCH   1  15
TORSDOF 5
ENDMDL
