MODEL 1
REMARK VINA RESULT:    -8.680      0.000      0.000
REMARK INTER + INTRA:         -12.922
REMARK INTER:                 -12.232
REMARK INTRA:                  -0.690
REMARK UNBOUND:                -0.690
REMARK  Name = 
REMARK  8 active torsions:
REMARK  status: ('A' for Active; 'I' for Inactive)
REMARK    1  A    between atoms: C_1  and  N_2
REMARK    2  A    between atoms: C_4  and  O_5
REMARK    3  A    between atoms: O_5  and  C_6
REMARK    4  A    between atoms: C_10  and  C_11
REMARK    5  A    between atoms: C_11  and  C_12
REMARK    6  A    between atoms: C_12  and  N_13
REMARK    7  A    between atoms: N_13  and  C_14
REMARK    8  A    between atoms: C_17  and  C_18
REMARK                            x       y       z     vdW  Elec       q    Type
REMARK                         _______ _______ _______ _____ _____    ______ ____
ROOT
ATOM      1  C   UNL     1      43.253   4.434  11.152  0.00  0.00    +0.000 C 
ENDROOT
BRANCH   1   2
ATOM      2  N   UNL     1      43.742   4.899   9.854  0.00  0.00    +0.000 N 
ATOM      3  H   UNL     1      44.203   5.808   9.918  0.00  0.00    +0.000 HD
BRANCH   2   4
ATOM      4  C   UNL     1      44.531   3.960   9.164  0.00  0.00    +0.000 A 
ATOM      5  C   UNL     1      45.481   4.335   8.205  0.00  0.00    +0.000 A 
ATOM      6  C   UNL     1      46.294   3.392   7.596  0.00  0.00    +0.000 A 
ATOM      7  C   UNL     1      46.170   2.066   7.986  0.00  0.00    +0.000 A 
ATOM      8  N   UNL     1      45.282   1.639   8.929  0.00  0.00    +0.000 NA
ATOM      9  C   UNL     1      44.509   2.598   9.494  0.00  0.00    +0.000 A 
BRANCH   7  10
ATOM     10  C   UNL     1      47.073   1.038   7.388  0.00  0.00    +0.000 C 
ATOM     11  N   UNL     1      46.774  -0.257   7.676  0.00  0.00    +0.000 N 
ATOM     12  O   UNL     1      48.039   1.331   6.682  0.00  0.00    +0.000 OA
ATOM     13  H   UNL     1      45.991  -0.467   8.290  0.00  0.00    +0.000 HD
ATOM     14  H   UNL     1      47.375  -0.998   7.342  0.00  0.00    +0.000 HD
ENDBRANCH   7  10
ENDBRANCH   2   4
ENDBRANCH   1   2
BRANCH   1  15
ATOM     15  C   UNL     1      43.422   5.476  12.267  0.00  0.00    +0.000 C 
BRANCH  15  20
ATOM     16  C   UNL     1      46.827   4.797  13.885  0.00  0.00    +0.000 A 
ATOM     17  C   UNL     1      47.598   5.822  13.343  0.00  0.00    +0.000 A 
ATOM     18  C   UNL     1      47.010   6.786  12.536  0.00  0.00    +0.000 A 
ATOM     19  C   UNL     1      45.644   6.711  12.224  0.00  0.00    +0.000 A 
ATOM     20  C   UNL     1      44.864   5.648  12.719  0.00  0.00    +0.000 A 
ATOM     21  C   UNL     1      45.474   4.724  13.581  0.00  0.00    +0.000 A 
BRANCH  16  22
ATOM     22  O   UNL     1      47.352   3.776  14.645  0.00  0.00    +0.000 OA
BRANCH  22  26
ATOM     23  C   UNL     1      50.025   3.989  18.119  0.00  0.00    +0.000 C 
ATOM     24  N   UNL     1      49.327   3.910  16.845  0.00  0.00    +0.000 NA
ATOM     25  C   UNL     1      48.300   4.975  16.747  0.00  0.00    +0.000 C 
ATOM     26  C   UNL     1      47.354   3.928  16.085  0.00  0.00    +0.000 C 
ATOM     27  C   UNL     1      48.240   2.904  16.857  0.00  0.00    +0.000 C 
ENDBRANCH  22  26
ENDBRANCH  16  22
ENDBRANCH  15  20
ENDBRANCH   1  15
TORSDOF 7
ENDMDL
MODEL 2
REMARK VINA RESULT:    -8.596      0.992      1.255
REMARK INTER + INTRA:         -12.804
REMARK INTER:                 -12.010
REMARK INTRA:                  -0.794
REMARK UNBOUND:                -0.690
REMARK  Name = 
REMARK  8 active torsions:
REMARK  status: ('A' for Active; 'I' for Inactive)
REMARK    1  A    between atoms: C_1  and  N_2
REMARK    2  A    between atoms: C_4  and  O_5
REMARK    3  A    between atoms: O_5  and  C_6
REMARK    4  A    between atoms: C_10  and  C_11
REMARK    5  A    between atoms: C_11  and  C_12
REMARK    6  A    between atoms: C_12  and  N_13
REMARK    7  A    between atoms: N_13  and  C_14
REMARK    8  A    between atoms: C_17  and  C_18
REMARK                            x       y       z     vdW  Elec       q    Type
REMARK                         _______ _______ _______ _____ _____    ______ ____
ROOT
ATOM      1  C   UNL     1      43.262   4.280  11.279  0.00  0.00    +0.000 C 
ENDROOT
BRANCH   1   2
ATOM      2  N   UNL     1      43.610   4.778   9.949  0.00  0.00    +0.000 N 
ATOM      3  H   UNL     1      43.849   5.770   9.959  0.00  0.00    +0.000 HD
BRANCH   2   4
ATOM      4  C   UNL     1      44.585   4.012   9.283  0.00  0.00    +0.000 A 
ATOM      5  C   UNL     1      44.656   2.618   9.398  0.00  0.00    +0.000 A 
ATOM      6  C   UNL     1      45.581   1.886   8.671  0.00  0.00    +0.000 A 
ATOM      7  C   UNL     1      46.416   2.564   7.795  0.00  0.00    +0.000 A 
ATOM      8  N   UNL     1      46.383   3.916   7.619  0.00  0.00    +0.000 NA
ATOM      9  C   UNL     1      45.462   4.588   8.353  0.00  0.00    +0.000 A 
BRANCH   7  10
ATOM     10  C   UNL     1      47.383   1.794   6.958  0.00  0.00    +0.000 C 
ATOM     11  N   UNL     1      48.455   2.490   6.492  0.00  0.00    +0.000 N 
ATOM     12  O   UNL     1      47.229   0.602   6.688  0.00  0.00    +0.000 OA
ATOM     13  H   UNL     1      48.538   3.482   6.702  0.00  0.00    +0.000 HD
ATOM     14  H   UNL     1      49.120   2.039   5.879  0.00  0.00    +0.000 HD
ENDBRANCH   7  10
ENDBRANCH   2   4
ENDBRANCH   1   2
BRANCH   1  15
ATOM     15  C   UNL     1      43.445   5.332  12.382  0.00  0.00    +0.000 C 
BRANCH  15  20
ATOM     16  C   UNL     1      46.969   4.852  13.805  0.00  0.00    +0.000 A 
ATOM     17  C   UNL     1      47.656   5.899  13.196  0.00  0.00    +0.000 A 
ATOM     18  C   UNL     1      46.975   6.816  12.407  0.00  0.00    +0.000 A 
ATOM     19  C   UNL     1      45.598   6.670  12.181  0.00  0.00    +0.000 A 
ATOM     20  C   UNL     1      44.901   5.582  12.742  0.00  0.00    +0.000 A 
ATOM     21  C   UNL     1      45.606   4.708  13.584  0.00  0.00    +0.000 A 
BRANCH  16  22
ATOM     22  O   UNL     1      47.587   3.875  14.551  0.00  0.00    +0.000 OA
BRANCH  22  26
ATOM     23  C   UNL     1      49.970   3.946  18.236  0.00  0.00    +0.000 C 
ATOM     24  N   UNL     1      49.377   3.926  16.908  0.00  0.00    +0.000 NA
ATOM     25  C   UNL     1      48.331   4.969  16.788  0.00  0.00    +0.000 C 
ATOM     26  C   UNL     1      47.471   3.940  15.993  0.00  0.00    +0.000 C 
ATOM     27  C   UNL     1      48.323   2.895  16.775  0.00  0.00    +0.000 C 
ENDBRANCH  22  26
ENDBRANCH  16  22
ENDBRANCH  15  20
ENDBRANCH   1  15
TORSDOF 7
ENDMDL
MODEL 3
REMARK VINA RESULT:    -7.107      3.214      4.291
REMARK INTER + INTRA:         -10.705
REMARK INTER:                  -9.976
REMARK INTRA:                  -0.729
REMARK UNBOUND:                -0.690
REMARK  Name = 
REMARK  8 active torsions:
REMARK  status: ('A' for Active; 'I' for Inactive)
REMARK    1  A    between atoms: C_1  and  N_2
REMARK    2  A    between atoms: C_4  and  O_5
REMARK    3  A    between atoms: O_5  and  C_6
REMARK    4  A    between atoms: C_10  and  C_11
REMARK    5  A    between atoms: C_11  and  C_12
REMARK    6  A    between atoms: C_12  and  N_13
REMARK    7  A    between atoms: N_13  and  C_14
REMARK    8  A    between atoms: C_17  and  C_18
REMARK                            x       y       z     vdW  Elec       q    Type
REMARK                         _______ _______ _______ _____ _____    ______ ____
ROOT
ATOM      1  C   UNL     1      44.023   5.064  11.317  0.00  0.00    +0.000 C 
ENDROOT
BRANCH   1   2
ATOM      2  N   UNL     1      43.666   4.717   9.942  0.00  0.00    +0.000 N 
ATOM      3  H   UNL     1      43.372   5.532   9.402  0.00  0.00    +0.000 HD
BRANCH   2   4
ATOM      4  C   UNL     1      44.644   3.966   9.263  0.00  0.00    +0.000 A 
ATOM      5  C   UNL     1      44.728   2.572   9.365  0.00  0.00    +0.000 A 
ATOM      6  C   UNL     1      45.656   1.854   8.627  0.00  0.00    +0.000 A 
ATOM      7  C   UNL     1      46.480   2.549   7.752  0.00  0.00    +0.000 A 
ATOM      8  N   UNL     1      46.433   3.902   7.589  0.00  0.00    +0.000 NA
ATOM      9  C   UNL     1      45.511   4.558   8.334  0.00  0.00    +0.000 A 
BRANCH   7  10
ATOM     10  C   UNL     1      47.449   1.794   6.903  0.00  0.00    +0.000 C 
ATOM     11  N   UNL     1      48.500   2.511   6.419  0.00  0.00    +0.000 N 
ATOM     12  O   UNL     1      47.315   0.599   6.640  0.00  0.00    +0.000 OA
ATOM     13  H   UNL     1      48.566   3.505   6.624  0.00  0.00    +0.000 HD
ATOM     14  H   UNL     1      49.164   2.071   5.797  0.00  0.00    +0.000 HD
ENDBRANCH   7  10
ENDBRANCH   2   4
ENDBRANCH   1   2
BRANCH   1  15
ATOM     15  C   UNL     1      44.653   6.459  11.441  0.00  0.00    +0.000 C 
BRANCH  15  20
ATOM     16  C   UNL     1      48.249   7.409  12.356  0.00  0.00    +0.000 A 
ATOM     17  C   UNL     1      48.472   6.600  13.467  0.00  0.00    +0.000 A 
ATOM     18  C   UNL     1      47.511   5.681  13.866  0.00  0.00    +0.000 A 
ATOM     19  C   UNL     1      46.290   5.592  13.182  0.00  0.00    +0.000 A 
ATOM     20  C   UNL     1      46.026   6.445  12.093  0.00  0.00    +0.000 A 
ATOM     21  C   UNL     1      47.042   7.320  11.676  0.00  0.00    +0.000 A 
BRANCH  16  22
ATOM     22  O   UNL     1      49.130   8.380  11.939  0.00  0.00    +0.000 OA
BRANCH  22  26
ATOM     23  C   UNL     1      53.060   9.242  10.184  0.00  0.00    +0.000 C 
ATOM     24  N   UNL     1      51.676   9.089  10.605  0.00  0.00    +0.000 NA
ATOM     25  C   UNL     1      51.543   9.338  12.061  0.00  0.00    +0.000 C 
ATOM     26  C   UNL     1      50.547   8.141  12.120  0.00  0.00    +0.000 C 
ATOM     27  C   UNL     1      51.309   7.675  10.844  0.00  0.00    +0.000 C 
ENDBRANCH  22  26
ENDBRANCH  16  22
ENDBRANCH  15  20
ENDBRANCH   1  15
TORSDOF 7
ENDMDL
MODEL 4
REMARK VINA RESULT:    -7.054      2.028      7.649
REMARK INTER + INTRA:         -10.630
REMARK INTER:                  -9.966
REMARK INTRA:                  -0.664
REMARK UNBOUND:                -0.690
REMARK  Name = 
REMARK  8 active torsions:
REMARK  status: ('A' for Active; 'I' for Inactive)
REMARK    1  A    between atoms: C_1  and  N_2
REMARK    2  A    between atoms: C_4  and  O_5
REMARK    3  A    between atoms: O_5  and  C_6
REMARK    4  A    between atoms: C_10  and  C_11
REMARK    5  A    between atoms: C_11  and  C_12
REMARK    6  A    between atoms: C_12  and  N_13
REMARK    7  A    between atoms: N_13  and  C_14
REMARK    8  A    between atoms: C_17  and  C_18
REMARK                            x       y       z     vdW  Elec       q    Type
REMARK                         _______ _______ _______ _____ _____    ______ ____
ROOT
ATOM      1  C   UNL     1      47.653   6.827  12.148  0.00  0.00    +0.000 C 
ENDROOT
BRANCH   1   2
ATOM      2  N   UNL     1      48.239   7.242  13.423  0.00  0.00    +0.000 N 
ATOM      3  H   UNL     1      47.914   8.165  13.714  0.00  0.00    +0.000 HD
BRANCH   2   4
ATOM      4  C   UNL     1      48.110   6.293  14.454  0.00  0.00    +0.000 A 
ATOM      5  C   UNL     1      48.701   6.464  15.712  0.00  0.00    +0.000 A 
ATOM      6  C   UNL     1      48.495   5.547  16.730  0.00  0.00    +0.000 A 
ATOM      7  C   UNL     1      47.656   4.469  16.486  0.00  0.00    +0.000 A 
ATOM      8  N   UNL     1      47.032   4.258  15.292  0.00  0.00    +0.000 NA
ATOM      9  C   UNL     1      47.266   5.181  14.327  0.00  0.00    +0.000 A 
BRANCH   7  10
ATOM     10  C   UNL     1      47.371   3.497  17.583  0.00  0.00    +0.000 C 
ATOM     11  N   UNL     1      48.205   3.549  18.656  0.00  0.00    +0.000 N 
ATOM     12  O   UNL     1      46.447   2.684  17.529  0.00  0.00    +0.000 OA
ATOM     13  H   UNL     1      48.981   4.207  18.657  0.00  0.00    +0.000 HD
ATOM     14  H   UNL     1      48.097   2.884  19.410  0.00  0.00    +0.000 HD
ENDBRANCH   7  10
ENDBRANCH   2   4
ENDBRANCH   1   2
BRANCH   1  15
ATOM     15  C   UNL     1      46.275   7.452  11.887  0.00  0.00    +0.000 C 
BRANCH  15  20
ATOM     16  C   UNL     1      44.628   4.188  10.745  0.00  0.00    +0.000 A 
ATOM     17  C   UNL     1      43.280   4.483  10.927  0.00  0.00    +0.000 A 
ATOM     18  C   UNL     1      42.890   5.755  11.323  0.00  0.00    +0.000 A 
ATOM     19  C   UNL     1      43.853   6.740  11.586  0.00  0.00    +0.000 A 
ATOM     20  C   UNL     1      45.224   6.439  11.462  0.00  0.00    +0.000 A 
ATOM     21  C   UNL     1      45.583   5.163  11.002  0.00  0.00    +0.000 A 
BRANCH  16  22
ATOM     22  O   UNL     1      45.090   2.935  10.411  0.00  0.00    +0.000 OA
BRANCH  22  26
ATOM     23  C   UNL     1      46.644   2.866   6.307  0.00  0.00    +0.000 C 
ATOM     24  N   UNL     1      46.317   2.999   7.718  0.00  0.00    +0.000 NA
ATOM     25  C   UNL     1      45.918   1.688   8.286  0.00  0.00    +0.000 C 
ATOM     26  C   UNL     1      44.804   2.433   9.083  0.00  0.00    +0.000 C 
ATOM     27  C   UNL     1      44.934   3.481   7.937  0.00  0.00    +0.000 C 
ENDBRANCH  22  26
ENDBRANCH  16  22
ENDBRANCH  15  20
ENDBRANCH   1  15
TORSDOF 7
ENDMDL
MODEL 5
REMARK VINA RESULT:    -6.439      2.475      8.218
REMARK INTER + INTRA:          -9.764
REMARK INTER:                  -9.339
REMARK INTRA:                  -0.425
REMARK UNBOUND:                -0.690
REMARK  Name = 
REMARK  8 active torsions:
REMARK  status: ('A' for Active; 'I' for Inactive)
REMARK    1  A    between atoms: C_1  and  N_2
REMARK    2  A    between atoms: C_4  and  O_5
REMARK    3  A    between atoms: O_5  and  C_6
REMARK    4  A    between atoms: C_10  and  C_11
REMARK    5  A    between atoms: C_11  and  C_12
REMARK    6  A    between atoms: C_12  and  N_13
REMARK    7  A    between atoms: N_13  and  C_14
REMARK    8  A    between atoms: C_17  and  C_18
REMARK                            x       y       z     vdW  Elec       q    Type
REMARK                         _______ _______ _______ _____ _____    ______ ____
ROOT
ATOM      1  C   UNL     1      47.026   4.700  15.117  0.00  0.00    +0.000 C 
ENDROOT
BRANCH   1   2
ATOM      2  N   UNL     1      47.092   3.882  16.328  0.00  0.00    +0.000 N 
ATOM      3  H   UNL     1      46.398   3.133  16.327  0.00  0.00    +0.000 HD
BRANCH   2   4
ATOM      4  C   UNL     1      48.380   3.400  16.630  0.00  0.00    +0.000 A 
ATOM      5  C   UNL     1      49.281   4.111  17.432  0.00  0.00    +0.000 A 
ATOM      6  C   UNL     1      50.513   3.577  17.772  0.00  0.00    +0.000 A 
ATOM      7  C   UNL     1      50.822   2.299  17.327  0.00  0.00    +0.000 A 
ATOM      8  N   UNL     1      49.980   1.545  16.563  0.00  0.00    +0.000 NA
ATOM      9  C   UNL     1      48.788   2.112  16.256  0.00  0.00    +0.000 A 
BRANCH   7  10
ATOM     10  C   UNL     1      52.119   1.676  17.726  0.00  0.00    +0.000 C 
ATOM     11  N   UNL     1      52.064   0.367  18.092  0.00  0.00    +0.000 N 
ATOM     12  O   UNL     1      53.181   2.300  17.736  0.00  0.00    +0.000 OA
ATOM     13  H   UNL     1      51.167  -0.112  18.108  0.00  0.00    +0.000 HD
ATOM     14  H   UNL     1      52.899  -0.098  18.421  0.00  0.00    +0.000 HD
ENDBRANCH   7  10
ENDBRANCH   2   4
ENDBRANCH   1   2
BRANCH   1  15
ATOM     15  C   UNL     1      46.794   3.872  13.845  0.00  0.00    +0.000 C 
BRANCH  15  20
ATOM     16  C   UNL     1      44.446   4.402  10.865  0.00  0.00    +0.000 A 
ATOM     17  C   UNL     1      43.850   5.615  11.197  0.00  0.00    +0.000 A 
ATOM     18  C   UNL     1      44.267   6.312  12.323  0.00  0.00    +0.000 A 
ATOM     19  C   UNL     1      45.259   5.779  13.159  0.00  0.00    +0.000 A 
ATOM     20  C   UNL     1      45.829   4.524  12.868  0.00  0.00    +0.000 A 
ATOM     21  C   UNL     1      45.431   3.873  11.690  0.00  0.00    +0.000 A 
BRANCH  16  22
ATOM     22  O   UNL     1      44.045   3.629   9.799  0.00  0.00    +0.000 OA
BRANCH  22  26
ATOM     23  C   UNL     1      47.269   3.076   6.873  0.00  0.00    +0.000 C 
ATOM     24  N   UNL     1      46.311   3.110   7.967  0.00  0.00    +0.000 NA
ATOM     25  C   UNL     1      44.930   2.931   7.457  0.00  0.00    +0.000 C 
ATOM     26  C   UNL     1      44.472   4.022   8.472  0.00  0.00    +0.000 C 
ATOM     27  C   UNL     1      45.954   4.491   8.364  0.00  0.00    +0.000 C 
ENDBRANCH  22  26
ENDBRANCH  16  22
ENDBRANCH  15  20
ENDBRANCH   1  15
TORSDOF 7
ENDMDL
MODEL 6
REMARK VINA RESULT:    -6.160      2.401      7.774
REMARK INTER + INTRA:          -9.371
REMARK INTER:                  -8.592
REMARK INTRA:                  -0.779
REMARK UNBOUND:                -0.690
REMARK  Name = 
REMARK  8 active torsions:
REMARK  status: ('A' for Active; 'I' for Inactive)
REMARK    1  A    between atoms: C_1  and  N_2
REMARK    2  A    between atoms: C_4  and  O_5
REMARK    3  A    between atoms: O_5  and  C_6
REMARK    4  A    between atoms: C_10  and  C_11
REMARK    5  A    between atoms: C_11  and  C_12
REMARK    6  A    between atoms: C_12  and  N_13
REMARK    7  A    between atoms: N_13  and  C_14
REMARK    8  A    between atoms: C_17  and  C_18
REMARK                            x       y       z     vdW  Elec       q    Type
REMARK                         _______ _______ _______ _____ _____    ______ ____
ROOT
ATOM      1  C   UNL     1      49.858   7.776  13.407  0.00  0.00    +0.000 C 
ENDROOT
BRANCH   1   2
ATOM      2  N   UNL     1      49.334   8.087  14.737  0.00  0.00    +0.000 N 
ATOM      3  H   UNL     1      48.576   8.770  14.703  0.00  0.00    +0.000 HD
BRANCH   2   4
ATOM      4  C   UNL     1      48.984   6.956  15.499  0.00  0.00    +0.000 A 
ATOM      5  C   UNL     1      49.256   6.859  16.870  0.00  0.00    +0.000 A 
ATOM      6  C   UNL     1      48.833   5.765  17.607  0.00  0.00    +0.000 A 
ATOM      7  C   UNL     1      48.099   4.779  16.962  0.00  0.00    +0.000 A 
ATOM      8  N   UNL     1      47.782   4.825  15.636  0.00  0.00    +0.000 NA
ATOM      9  C   UNL     1      48.219   5.914  14.958  0.00  0.00    +0.000 A 
BRANCH   7  10
ATOM     10  C   UNL     1      47.583   3.618  17.745  0.00  0.00    +0.000 C 
ATOM     11  N   UNL     1      48.278   3.302  18.871  0.00  0.00    +0.000 N 
ATOM     12  O   UNL     1      46.595   2.968  17.399  0.00  0.00    +0.000 OA
ATOM     13  H   UNL     1      49.110   3.835  19.112  0.00  0.00    +0.000 HD
ATOM     14  H   UNL     1      48.009   2.496  19.418  0.00  0.00    +0.000 HD
ENDBRANCH   7  10
ENDBRANCH   2   4
ENDBRANCH   1   2
BRANCH   1  15
ATOM     15  C   UNL     1      49.165   8.566  12.288  0.00  0.00    +0.000 C 
BRANCH  15  20
ATOM     16  C   UNL     1      45.939   6.552  11.826  0.00  0.00    +0.000 A 
ATOM     17  C   UNL     1      44.972   7.520  12.082  0.00  0.00    +0.000 A 
ATOM     18  C   UNL     1      45.346   8.838  12.308  0.00  0.00    +0.000 A 
ATOM     19  C   UNL     1      46.702   9.196  12.324  0.00  0.00    +0.000 A 
ATOM     20  C   UNL     1      47.694   8.216  12.125  0.00  0.00    +0.000 A 
ATOM     21  C   UNL     1      47.282   6.905  11.838  0.00  0.00    +0.000 A 
BRANCH  16  22
ATOM     22  O   UNL     1      45.646   5.218  11.652  0.00  0.00    +0.000 OA
BRANCH  22  26
ATOM     23  C   UNL     1      44.519   2.014   8.872  0.00  0.00    +0.000 C 
ATOM     24  N   UNL     1      45.053   2.937   9.862  0.00  0.00    +0.000 NA
ATOM     25  C   UNL     1      43.966   3.468  10.719  0.00  0.00    +0.000 C 
ATOM     26  C   UNL     1      44.665   4.860  10.649  0.00  0.00    +0.000 C 
ATOM     27  C   UNL     1      45.251   4.300   9.318  0.00  0.00    +0.000 C 
ENDBRANCH  22  26
ENDBRANCH  16  22
ENDBRANCH  15  20
ENDBRANCH   1  15
TORSDOF 7
ENDMDL
MODEL 7
REMARK VINA RESULT:    -6.131      2.235      8.554
REMARK INTER + INTRA:          -9.330
REMARK INTER:                  -8.813
REMARK INTRA:                  -0.518
REMARK UNBOUND:                -0.690
REMARK  Name = 
REMARK  8 active torsions:
REMARK  status: ('A' for Active; 'I' for Inactive)
REMARK    1  A    between atoms: C_1  and  N_2
REMARK    2  A    between atoms: C_4  and  O_5
REMARK    3  A    between atoms: O_5  and  C_6
REMARK    4  A    between atoms: C_10  and  C_11
REMARK    5  A    between atoms: C_11  and  C_12
REMARK    6  A    between atoms: C_12  and  N_13
REMARK    7  A    between atoms: N_13  and  C_14
REMARK    8  A    between atoms: C_17  and  C_18
REMARK                            x       y       z     vdW  Elec       q    Type
REMARK                         _______ _______ _______ _____ _____    ______ ____
ROOT
ATOM      1  C   UNL     1      47.190   4.819  13.984  0.00  0.00    +0.000 C 
ENDROOT
BRANCH   1   2
ATOM      2  N   UNL     1      46.697   4.002  15.092  0.00  0.00    +0.000 N 
ATOM      3  H   UNL     1      46.580   3.023  14.829  0.00  0.00    +0.000 HD
BRANCH   2   4
ATOM      4  C   UNL     1      47.436   4.137  16.283  0.00  0.00    +0.000 A 
ATOM      5  C   UNL     1      47.544   3.105  17.224  0.00  0.00    +0.000 A 
ATOM      6  C   UNL     1      48.339   3.243  18.350  0.00  0.00    +0.000 A 
ATOM      7  C   UNL     1      49.059   4.420  18.508  0.00  0.00    +0.000 A 
ATOM      8  N   UNL     1      49.016   5.452  17.618  0.00  0.00    +0.000 NA
ATOM      9  C   UNL     1      48.223   5.270  16.534  0.00  0.00    +0.000 A 
BRANCH   7  10
ATOM     10  C   UNL     1      49.967   4.572  19.683  0.00  0.00    +0.000 C 
ATOM     11  N   UNL     1      49.378   4.483  20.906  0.00  0.00    +0.000 N 
ATOM     12  O   UNL     1      51.177   4.776  19.568  0.00  0.00    +0.000 OA
ATOM     13  H   UNL     1      48.372   4.349  20.970  0.00  0.00    +0.000 HD
ATOM     14  H   UNL     1      49.930   4.628  21.741  0.00  0.00    +0.000 HD
ENDBRANCH   7  10
ENDBRANCH   2   4
ENDBRANCH   1   2
BRANCH   1  15
ATOM     15  C   UNL     1      46.182   5.884  13.528  0.00  0.00    +0.000 C 
BRANCH  15  20
ATOM     16  C   UNL     1      44.555   3.676  10.854  0.00  0.00    +0.000 A 
ATOM     17  C   UNL     1      43.373   4.369  10.607  0.00  0.00    +0.000 A 
ATOM     18  C   UNL     1      43.139   5.591  11.223  0.00  0.00    +0.000 A 
ATOM     19  C   UNL     1      44.070   6.115  12.132  0.00  0.00    +0.000 A 
ATOM     20  C   UNL     1      45.243   5.397  12.436  0.00  0.00    +0.000 A 
ATOM     21  C   UNL     1      45.479   4.195  11.751  0.00  0.00    +0.000 A 
BRANCH  16  22
ATOM     22  O   UNL     1      44.828   2.435  10.325  0.00  0.00    +0.000 OA
BRANCH  22  26
ATOM     23  C   UNL     1      47.416   2.343   6.782  0.00  0.00    +0.000 C 
ATOM     24  N   UNL     1      46.748   2.391   8.074  0.00  0.00    +0.000 NA
ATOM     25  C   UNL     1      45.773   1.281   8.197  0.00  0.00    +0.000 C 
ATOM     26  C   UNL     1      44.799   2.284   8.885  0.00  0.00    +0.000 C 
ATOM     27  C   UNL     1      45.617   3.346   8.092  0.00  0.00    +0.000 C 
ENDBRANCH  22  26
ENDBRANCH  16  22
ENDBRANCH  15  20
ENDBRANCH   1  15
TORSDOF 7
ENDMDL
MODEL 8
REMARK VINA RESULT:    -6.019      3.571      7.757
REMARK INTER + INTRA:          -9.172
REMARK INTER:                  -8.164
REMARK INTRA:                  -1.007
REMARK UNBOUND:                -0.690
REMARK  Name = 
REMARK  8 active torsions:
REMARK  status: ('A' for Active; 'I' for Inactive)
REMARK    1  A    between atoms: C_1  and  N_2
REMARK    2  A    between atoms: C_4  and  O_5
REMARK    3  A    between atoms: O_5  and  C_6
REMARK    4  A    between atoms: C_10  and  C_11
REMARK    5  A    between atoms: C_11  and  C_12
REMARK    6  A    between atoms: C_12  and  N_13
REMARK    7  A    between atoms: N_13  and  C_14
REMARK    8  A    between atoms: C_17  and  C_18
REMARK                            x       y       z     vdW  Elec       q    Type
REMARK                         _______ _______ _______ _____ _____    ______ ____
ROOT
ATOM      1  C   UNL     1      49.096   8.579  16.972  0.00  0.00    +0.000 C 
ENDROOT
BRANCH   1   2
ATOM      2  N   UNL     1      48.285   7.659  17.769  0.00  0.00    +0.000 N 
ATOM      3  H   UNL     1      47.285   7.784  17.605  0.00  0.00    +0.000 HD
BRANCH   2   4
ATOM      4  C   UNL     1      48.667   6.309  17.659  0.00  0.00    +0.000 A 
ATOM      5  C   UNL     1      47.760   5.254  17.823  0.00  0.00    +0.000 A 
ATOM      6  C   UNL     1      48.151   3.938  17.636  0.00  0.00    +0.000 A 
ATOM      7  C   UNL     1      49.460   3.689  17.245  0.00  0.00    +0.000 A 
ATOM      8  N   UNL     1      50.385   4.671  17.047  0.00  0.00    +0.000 NA
ATOM      9  C   UNL     1      49.954   5.942  17.244  0.00  0.00    +0.000 A 
BRANCH   7  10
ATOM     10  C   UNL     1      49.892   2.285  16.982  0.00  0.00    +0.000 C 
ATOM     11  N   UNL     1      50.846   1.789  17.815  0.00  0.00    +0.000 N 
ATOM     12  O   UNL     1      49.430   1.607  16.063  0.00  0.00    +0.000 OA
ATOM     13  H   UNL     1      51.234   2.384  18.543  0.00  0.00    +0.000 HD
ATOM     14  H   UNL     1      51.217   0.862  17.659  0.00  0.00    +0.000 HD
ENDBRANCH   7  10
ENDBRANCH   2   4
ENDBRANCH   1   2
BRANCH   1  15
ATOM     15  C   UNL     1      48.322   9.201  15.800  0.00  0.00    +0.000 C 
BRANCH  15  20
ATOM     16  C   UNL     1      48.082   6.792  12.832  0.00  0.00    +0.000 A 
ATOM     17  C   UNL     1      48.910   7.416  11.904  0.00  0.00    +0.000 A 
ATOM     18  C   UNL     1      49.621   8.555  12.257  0.00  0.00    +0.000 A 
ATOM     19  C   UNL     1      49.477   9.111  13.537  0.00  0.00    +0.000 A 
ATOM     20  C   UNL     1      48.598   8.523  14.467  0.00  0.00    +0.000 A 
ATOM     21  C   UNL     1      47.940   7.339  14.100  0.00  0.00    +0.000 A 
BRANCH  16  22
ATOM     22  O   UNL     1      47.303   5.696  12.534  0.00  0.00    +0.000 OA
BRANCH  22  26
ATOM     23  C   UNL     1      42.974   5.108  12.956  0.00  0.00    +0.000 C 
ATOM     24  N   UNL     1      44.423   5.219  13.023  0.00  0.00    +0.000 NA
ATOM     25  C   UNL     1      44.861   6.580  12.628  0.00  0.00    +0.000 C 
ATOM     26  C   UNL     1      46.042   5.918  11.857  0.00  0.00    +0.000 C 
ATOM     27  C   UNL     1      45.089   4.686  11.813  0.00  0.00    +0.000 C 
ENDBRANCH  22  26
ENDBRANCH  16  22
ENDBRANCH  15  20
ENDBRANCH   1  15
TORSDOF 7
ENDMDL
MODEL 9
REMARK VINA RESULT:    -5.947      4.420      7.803
REMARK INTER + INTRA:          -9.070
REMARK INTER:                  -8.777
REMARK INTRA:                  -0.293
REMARK UNBOUND:                -0.690
REMARK  Name = 
REMARK  8 active torsions:
REMARK  status: ('A' for Active; 'I' for Inactive)
REMARK    1  A    between atoms: C_1  and  N_2
REMARK    2  A    between atoms: C_4  and  O_5
REMARK    3  A    between atoms: O_5  and  C_6
REMARK    4  A    between atoms: C_10  and  C_11
REMARK    5  A    between atoms: C_11  and  C_12
REMARK    6  A    between atoms: C_12  and  N_13
REMARK    7  A    between atoms: N_13  and  C_14
REMARK    8  A    between atoms: C_17  and  C_18
REMARK                            x       y       z     vdW  Elec       q    Type
REMARK                         _______ _______ _______ _____ _____    ______ ____
ROOT
ATOM      1  C   UNL     1      46.950   4.732  14.971  0.00  0.00    +0.000 C 
ENDROOT
BRANCH   1   2
ATOM      2  N   UNL     1      46.964   3.936  16.198  0.00  0.00    +0.000 N 
ATOM      3  H   UNL     1      46.233   3.224  16.205  0.00  0.00    +0.000 HD
BRANCH   2   4
ATOM      4  C   UNL     1      48.223   3.396  16.522  0.00  0.00    +0.000 A 
ATOM      5  C   UNL     1      49.044   3.943  17.516  0.00  0.00    +0.000 A 
ATOM      6  C   UNL     1      50.245   3.344  17.862  0.00  0.00    +0.000 A 
ATOM      7  C   UNL     1      50.601   2.164  17.223  0.00  0.00    +0.000 A 
ATOM      8  N   UNL     1      49.836   1.569  16.264  0.00  0.00    +0.000 NA
ATOM      9  C   UNL     1      48.672   2.193  15.960  0.00  0.00    +0.000 A 
BRANCH   7  10
ATOM     10  C   UNL     1      51.862   1.468  17.617  0.00  0.00    +0.000 C 
ATOM     11  N   UNL     1      51.720   0.199  18.084  0.00  0.00    +0.000 N 
ATOM     12  O   UNL     1      52.969   2.002  17.539  0.00  0.00    +0.000 OA
ATOM     13  H   UNL     1      50.790  -0.203  18.171  0.00  0.00    +0.000 HD
ATOM     14  H   UNL     1      52.530  -0.308  18.414  0.00  0.00    +0.000 HD
ENDBRANCH   7  10
ENDBRANCH   2   4
ENDBRANCH   1   2
BRANCH   1  15
ATOM     15  C   UNL     1      46.372   3.972  13.769  0.00  0.00    +0.000 C 
BRANCH  15  20
ATOM     16  C   UNL     1      44.558   6.724  11.818  0.00  0.00    +0.000 A 
ATOM     17  C   UNL     1      43.384   6.072  11.450  0.00  0.00    +0.000 A 
ATOM     18  C   UNL     1      43.129   4.785  11.904  0.00  0.00    +0.000 A 
ATOM     19  C   UNL     1      44.069   4.116  12.701  0.00  0.00    +0.000 A 
ATOM     20  C   UNL     1      45.286   4.742  13.033  0.00  0.00    +0.000 A 
ATOM     21  C   UNL     1      45.489   6.064  12.610  0.00  0.00    +0.000 A 
BRANCH  16  22
ATOM     22  O   UNL     1      44.904   7.975  11.359  0.00  0.00    +0.000 OA
BRANCH  22  26
ATOM     23  C   UNL     1      47.533  11.388  12.196  0.00  0.00    +0.000 C 
ATOM     24  N   UNL     1      46.771  10.242  11.724  0.00  0.00    +0.000 NA
ATOM     25  C   UNL     1      45.316  10.491  11.864  0.00  0.00    +0.000 C 
ATOM     26  C   UNL     1      45.163   9.013  12.335  0.00  0.00    +0.000 C 
ATOM     27  C   UNL     1      46.657   9.178  12.747  0.00  0.00    +0.000 C 
ENDBRANCH  22  26
ENDBRANCH  16  22
ENDBRANCH  15  20
ENDBRANCH   1  15
TORSDOF 7
ENDMDL
