MODEL 1
REMARK VINA RESULT:    -8.879      0.000      0.000
REMARK INTER + INTRA:         -11.940
REMARK INTER:                 -11.474
REMARK INTRA:                  -0.465
REMARK UNBOUND:                -0.465
REMARK  Name = 
REMARK  5 active torsions:
REMARK  status: ('A' for Active; 'I' for Inactive)
REMARK    1  A    between atoms: C_2  and  C_4
REMARK    2  A    between atoms: C_7  and  O_8
REMARK    3  A    between atoms: O_8  and  C_9
REMARK    4  A    between atoms: C_9  and  C_10
REMARK    5  A    between atoms: C_14  and  C_15
REMARK                            x       y       z     vdW  Elec       q    Type
REMARK                         _______ _______ _______ _____ _____    ______ ____
ROOT
ATOM      1  C   UNL     1      43.851   4.132  11.450  0.00  0.00    +0.000 C 
ENDROOT
BRANCH   1   2
ATOM      2  C   UNL     1      45.144   4.514  12.132  0.00  0.00    +0.000 A 
ATOM      3  N   UNL     1      45.670   3.651  13.007  0.00  0.00    +0.000 NA
ATOM      4  C   UNL     1      46.783   4.069  13.601  0.00  0.00    +0.000 A 
ATOM      5  N   UNL     1      47.388   5.235  13.398  0.00  0.00    +0.000 NA
ATOM      6  C   UNL     1      46.791   6.025  12.502  0.00  0.00    +0.000 A 
ATOM      7  N   UNL     1      45.671   5.712  11.843  0.00  0.00    +0.000 NA
BRANCH   6   8
ATOM      8  C   UNL     1      47.402   7.345  12.230  0.00  0.00    +0.000 A 
ATOM      9  C   UNL     1      48.766   7.465  11.883  0.00  0.00    +0.000 A 
ATOM     10  C   UNL     1      49.348   8.711  11.624  0.00  0.00    +0.000 A 
ATOM     11  C   UNL     1      48.573   9.857  11.707  0.00  0.00    +0.000 A 
ATOM     12  F   UNL     1      49.128  11.050  11.456  0.00  0.00    +0.000 F 
ATOM     13  C   UNL     1      47.230   9.785  12.047  0.00  0.00    +0.000 A 
ATOM     14  C   UNL     1      46.651   8.537  12.307  0.00  0.00    +0.000 A 
ENDBRANCH   6   8
ENDBRANCH   1   2
BRANCH   1  15
ATOM     15  O   UNL     1      43.837   4.618  10.102  0.00  0.00    +0.000 OA
BRANCH  15  19
ATOM     16  C   UNL     1      46.409   2.443   7.731  0.00  0.00    +0.000 A 
ATOM     17  C   UNL     1      45.618   1.786   8.676  0.00  0.00    +0.000 A 
ATOM     18  C   UNL     1      44.750   2.532   9.477  0.00  0.00    +0.000 A 
ATOM     19  C   UNL     1      44.706   3.909   9.299  0.00  0.00    +0.000 A 
ATOM     20  N   UNL     1      45.464   4.569   8.399  0.00  0.00    +0.000 NA
ATOM     21  C   UNL     1      46.306   3.825   7.642  0.00  0.00    +0.000 A 
BRANCH  16  23
ATOM     22  N   UNL     1      48.473   2.451   6.448  0.00  0.00    +0.000 N 
ATOM     23  C   UNL     1      47.364   1.756   6.839  0.00  0.00    +0.000 C 
ATOM     24  O   UNL     1      47.191   0.594   6.496  0.00  0.00    +0.000 OA
ATOM     25  H   UNL     1      49.169   1.923   5.936  0.00  0.00    +0.000 HD
ATOM     26  H   UNL     1      48.776   3.298   6.906  0.00  0.00    +0.000 HD
ENDBRANCH  16  23
ENDBRANCH  15  19
ENDBRANCH   1  15
TORSDOF 5
ENDMDL
MODEL 2
REMARK VINA RESULT:    -8.799      0.926      1.424
REMARK INTER + INTRA:         -11.837
REMARK INTER:                 -11.314
REMARK INTRA:                  -0.522
REMARK UNBOUND:                -0.465
REMARK  Name = 
REMARK  5 active torsions:
REMARK  status: ('A' for Active; 'I' for Inactive)
REMARK    1  A    between atoms: C_2  and  C_4
REMARK    2  A    between atoms: C_7  and  O_8
REMARK    3  A    between atoms: O_8  and  C_9
REMARK    4  A    between atoms: C_9  and  C_10
REMARK    5  A    between atoms: C_14  and  C_15
REMARK                            x       y       z     vdW  Elec       q    Type
REMARK                         _______ _______ _______ _____ _____    ______ ____
ROOT
ATOM      1  C   UNL     1      43.815   3.306  11.522  0.00  0.00    +0.000 C 
ENDROOT
BRANCH   1   2
ATOM      2  C   UNL     1      44.994   3.979  12.185  0.00  0.00    +0.000 A 
ATOM      3  N   UNL     1      45.781   3.234  12.967  0.00  0.00    +0.000 NA
ATOM      4  C   UNL     1      46.772   3.900  13.552  0.00  0.00    +0.000 A 
ATOM      5  N   UNL     1      47.028   5.197  13.423  0.00  0.00    +0.000 NA
ATOM      6  C   UNL     1      46.190   5.854  12.616  0.00  0.00    +0.000 A 
ATOM      7  N   UNL     1      45.160   5.291  11.976  0.00  0.00    +0.000 NA
BRANCH   6   8
ATOM      8  C   UNL     1      46.406   7.305  12.431  0.00  0.00    +0.000 A 
ATOM      9  C   UNL     1      45.330   8.218  12.460  0.00  0.00    +0.000 A 
ATOM     10  C   UNL     1      45.530   9.592  12.286  0.00  0.00    +0.000 A 
ATOM     11  C   UNL     1      46.813  10.075  12.082  0.00  0.00    +0.000 A 
ATOM     12  F   UNL     1      47.007  11.389  11.919  0.00  0.00    +0.000 F 
ATOM     13  C   UNL     1      47.900   9.212  12.045  0.00  0.00    +0.000 A 
ATOM     14  C   UNL     1      47.695   7.838  12.217  0.00  0.00    +0.000 A 
ENDBRANCH   6   8
ENDBRANCH   1   2
BRANCH   1  15
ATOM     15  O   UNL     1      43.582   3.873  10.227  0.00  0.00    +0.000 OA
BRANCH  15  19
ATOM     16  C   UNL     1      46.436   2.619   7.534  0.00  0.00    +0.000 A 
ATOM     17  C   UNL     1      45.827   1.689   8.379  0.00  0.00    +0.000 A 
ATOM     18  C   UNL     1      44.861   2.124   9.290  0.00  0.00    +0.000 A 
ATOM     19  C   UNL     1      44.541   3.475   9.318  0.00  0.00    +0.000 A 
ATOM     20  N   UNL     1      45.119   4.395   8.519  0.00  0.00    +0.000 NA
ATOM     21  C   UNL     1      46.060   3.950   7.652  0.00  0.00    +0.000 A 
BRANCH  16  23
ATOM     22  N   UNL     1      47.461   2.951   5.356  0.00  0.00    +0.000 N 
ATOM     23  C   UNL     1      47.471   2.272   6.541  0.00  0.00    +0.000 C 
ATOM     24  O   UNL     1      48.332   1.437   6.784  0.00  0.00    +0.000 OA
ATOM     25  H   UNL     1      48.247   2.782   4.740  0.00  0.00    +0.000 HD
ATOM     26  H   UNL     1      46.941   3.807   5.222  0.00  0.00    +0.000 HD
ENDBRANCH  16  23
ENDBRANCH  15  19
ENDBRANCH   1  15
TORSDOF 5
ENDMDL
MODEL 3
REMARK VINA RESULT:    -8.324      2.896      4.171
REMARK INTER + INTRA:         -11.222
REMARK INTER:                 -10.750
REMARK INTRA:                  -0.472
REMARK UNBOUND:                -0.465
REMARK  Name = 
REMARK  5 active torsions:
REMARK  status: ('A' for Active; 'I' for Inactive)
REMARK    1  A    between atoms: C_2  and  C_4
REMARK    2  A    between atoms: C_7  and  O_8
REMARK    3  A    between atoms: O_8  and  C_9
REMARK    4  A    between atoms: C_9  and  C_10
REMARK    5  A    between atoms: C_14  and  C_15
REMARK                            x       y       z     vdW  Elec       q    Type
REMARK                         _______ _______ _______ _____ _____    ______ ____
ROOT
ATOM      1  C   UNL     1      44.526   3.036  11.752  0.00  0.00    +0.000 C 
ENDROOT
BRANCH   1   2
ATOM      2  C   UNL     1      45.234   4.169  12.457  0.00  0.00    +0.000 A 
ATOM      3  N   UNL     1      45.123   5.396  11.938  0.00  0.00    +0.000 NA
ATOM      4  C   UNL     1      45.806   6.337  12.583  0.00  0.00    +0.000 A 
ATOM      5  N   UNL     1      46.562   6.155  13.661  0.00  0.00    +0.000 NA
ATOM      6  C   UNL     1      46.605   4.897  14.107  0.00  0.00    +0.000 A 
ATOM      7  N   UNL     1      45.961   3.871  13.542  0.00  0.00    +0.000 NA
BRANCH   6   8
ATOM      8  C   UNL     1      47.434   4.615  15.299  0.00  0.00    +0.000 A 
ATOM      9  C   UNL     1      48.197   5.629  15.920  0.00  0.00    +0.000 A 
ATOM     10  C   UNL     1      48.981   5.368  17.048  0.00  0.00    +0.000 A 
ATOM     11  C   UNL     1      49.014   4.087  17.576  0.00  0.00    +0.000 A 
ATOM     12  F   UNL     1      49.762   3.836  18.658  0.00  0.00    +0.000 F 
ATOM     13  C   UNL     1      48.282   3.061  16.997  0.00  0.00    +0.000 A 
ATOM     14  C   UNL     1      47.499   3.325  15.867  0.00  0.00    +0.000 A 
ENDBRANCH   6   8
ENDBRANCH   1   2
BRANCH   1  15
ATOM     15  O   UNL     1      44.008   3.481  10.492  0.00  0.00    +0.000 OA
BRANCH  15  19
ATOM     16  C   UNL     1      46.593   2.672   7.388  0.00  0.00    +0.000 A 
ATOM     17  C   UNL     1      46.184   3.986   7.621  0.00  0.00    +0.000 A 
ATOM     18  C   UNL     1      45.306   4.251   8.675  0.00  0.00    +0.000 A 
ATOM     19  C   UNL     1      44.873   3.188   9.457  0.00  0.00    +0.000 A 
ATOM     20  N   UNL     1      45.247   1.909   9.249  0.00  0.00    +0.000 NA
ATOM     21  C   UNL     1      46.090   1.676   8.214  0.00  0.00    +0.000 A 
BRANCH  16  23
ATOM     22  N   UNL     1      47.444   2.985   5.134  0.00  0.00    +0.000 N 
ATOM     23  C   UNL     1      47.511   2.278   6.300  0.00  0.00    +0.000 C 
ATOM     24  O   UNL     1      48.329   1.381   6.452  0.00  0.00    +0.000 OA
ATOM     25  H   UNL     1      48.160   2.777   4.447  0.00  0.00    +0.000 HD
ATOM     26  H   UNL     1      46.976   3.877   5.061  0.00  0.00    +0.000 HD
ENDBRANCH  16  23
ENDBRANCH  15  19
ENDBRANCH   1  15
TORSDOF 5
ENDMDL
MODEL 4
REMARK VINA RESULT:    -8.155      3.502      6.511
REMARK INTER + INTRA:         -11.005
REMARK INTER:                 -10.232
REMARK INTRA:                  -0.773
REMARK UNBOUND:                -0.465
REMARK  Name = 
REMARK  5 active torsions:
REMARK  status: ('A' for Active; 'I' for Inactive)
REMARK    1  A    between atoms: C_2  and  C_4
REMARK    2  A    between atoms: C_7  and  O_8
REMARK    3  A    between atoms: O_8  and  C_9
REMARK    4  A    between atoms: C_9  and  C_10
REMARK    5  A    between atoms: C_14  and  C_15
REMARK                            x       y       z     vdW  Elec       q    Type
REMARK                         _______ _______ _______ _____ _____    ______ ____
ROOT
ATOM      1  C   UNL     1      43.059   5.900  11.206  0.00  0.00    +0.000 C 
ENDROOT
BRANCH   1   2
ATOM      2  C   UNL     1      43.431   4.476  10.863  0.00  0.00    +0.000 A 
ATOM      3  N   UNL     1      42.930   3.497  11.623  0.00  0.00    +0.000 NA
ATOM      4  C   UNL     1      43.333   2.274  11.291  0.00  0.00    +0.000 A 
ATOM      5  N   UNL     1      44.163   1.965  10.302  0.00  0.00    +0.000 NA
ATOM      6  C   UNL     1      44.605   3.010   9.596  0.00  0.00    +0.000 A 
ATOM      7  N   UNL     1      44.270   4.281   9.837  0.00  0.00    +0.000 NA
BRANCH   6   8
ATOM      8  C   UNL     1      45.542   2.744   8.483  0.00  0.00    +0.000 A 
ATOM      9  C   UNL     1      45.896   3.755   7.563  0.00  0.00    +0.000 A 
ATOM     10  C   UNL     1      46.783   3.509   6.509  0.00  0.00    +0.000 A 
ATOM     11  C   UNL     1      47.332   2.245   6.360  0.00  0.00    +0.000 A 
ATOM     12  F   UNL     1      48.183   2.008   5.355  0.00  0.00    +0.000 F 
ATOM     13  C   UNL     1      47.010   1.221   7.241  0.00  0.00    +0.000 A 
ATOM     14  C   UNL     1      46.121   1.472   8.293  0.00  0.00    +0.000 A 
ENDBRANCH   6   8
ENDBRANCH   1   2
BRANCH   1  15
ATOM     15  O   UNL     1      43.556   6.244  12.506  0.00  0.00    +0.000 OA
BRANCH  15  19
ATOM     16  C   UNL     1      47.600   7.026  12.450  0.00  0.00    +0.000 A 
ATOM     17  C   UNL     1      47.115   5.950  13.196  0.00  0.00    +0.000 A 
ATOM     18  C   UNL     1      45.742   5.693  13.210  0.00  0.00    +0.000 A 
ATOM     19  C   UNL     1      44.907   6.524  12.474  0.00  0.00    +0.000 A 
ATOM     20  N   UNL     1      45.348   7.574  11.752  0.00  0.00    +0.000 NA
ATOM     21  C   UNL     1      46.682   7.809  11.762  0.00  0.00    +0.000 A 
BRANCH  16  23
ATOM     22  N   UNL     1      49.821   7.072  13.434  0.00  0.00    +0.000 N 
ATOM     23  C   UNL     1      49.028   7.392  12.369  0.00  0.00    +0.000 C 
ATOM     24  O   UNL     1      49.493   7.924  11.370  0.00  0.00    +0.000 OA
ATOM     25  H   UNL     1      50.815   7.225  13.309  0.00  0.00    +0.000 HD
ATOM     26  H   UNL     1      49.538   6.418  14.149  0.00  0.00    +0.000 HD
ENDBRANCH  16  23
ENDBRANCH  15  19
ENDBRANCH   1  15
TORSDOF 5
ENDMDL
MODEL 5
REMARK VINA RESULT:    -8.124      3.507      6.740
REMARK INTER + INTRA:         -10.964
REMARK INTER:                 -10.226
REMARK INTRA:                  -0.738
REMARK UNBOUND:                -0.465
REMARK  Name = 
REMARK  5 active torsions:
REMARK  status: ('A' for Active; 'I' for Inactive)
REMARK    1  A    between atoms: C_2  and  C_4
REMARK    2  A    between atoms: C_7  and  O_8
REMARK    3  A    between atoms: O_8  and  C_9
REMARK    4  A    between atoms: C_9  and  C_10
REMARK    5  A    between atoms: C_14  and  C_15
REMARK                            x       y       z     vdW  Elec       q    Type
REMARK                         _______ _______ _______ _____ _____    ______ ____
ROOT
ATOM      1  C   UNL     1      44.186   6.567  11.762  0.00  0.00    +0.000 C 
ENDROOT
BRANCH   1   2
ATOM      2  C   UNL     1      44.063   5.147  11.260  0.00  0.00    +0.000 A 
ATOM      3  N   UNL     1      43.235   4.323  11.909  0.00  0.00    +0.000 NA
ATOM      4  C   UNL     1      43.208   3.079  11.441  0.00  0.00    +0.000 A 
ATOM      5  N   UNL     1      43.916   2.612  10.418  0.00  0.00    +0.000 NA
ATOM      6  C   UNL     1      44.710   3.512   9.831  0.00  0.00    +0.000 A 
ATOM      7  N   UNL     1      44.818   4.789  10.213  0.00  0.00    +0.000 NA
BRANCH   6   8
ATOM      8  C   UNL     1      45.536   3.063   8.689  0.00  0.00    +0.000 A 
ATOM      9  C   UNL     1      45.953   1.720   8.568  0.00  0.00    +0.000 A 
ATOM     10  C   UNL     1      46.734   1.290   7.489  0.00  0.00    +0.000 A 
ATOM     11  C   UNL     1      47.109   2.199   6.512  0.00  0.00    +0.000 A 
ATOM     12  F   UNL     1      47.852   1.789   5.477  0.00  0.00    +0.000 F 
ATOM     13  C   UNL     1      46.722   3.530   6.593  0.00  0.00    +0.000 A 
ATOM     14  C   UNL     1      45.943   3.956   7.675  0.00  0.00    +0.000 A 
ENDBRANCH   6   8
ENDBRANCH   1   2
BRANCH   1  15
ATOM     15  O   UNL     1      44.899   6.594  13.005  0.00  0.00    +0.000 OA
BRANCH  15  19
ATOM     16  C   UNL     1      48.838   7.655  12.432  0.00  0.00    +0.000 A 
ATOM     17  C   UNL     1      47.822   8.502  11.985  0.00  0.00    +0.000 A 
ATOM     18  C   UNL     1      46.489   8.134  12.182  0.00  0.00    +0.000 A 
ATOM     19  C   UNL     1      46.225   6.930  12.822  0.00  0.00    +0.000 A 
ATOM     20  N   UNL     1      47.186   6.090  13.257  0.00  0.00    +0.000 NA
ATOM     21  C   UNL     1      48.471   6.464  13.044  0.00  0.00    +0.000 A 
BRANCH  16  23
ATOM     22  N   UNL     1      51.067   7.849  13.381  0.00  0.00    +0.000 N 
ATOM     23  C   UNL     1      50.277   7.941  12.270  0.00  0.00    +0.000 C 
ATOM     24  O   UNL     1      50.753   8.211  11.175  0.00  0.00    +0.000 OA
ATOM     25  H   UNL     1      52.064   7.933  13.224  0.00  0.00    +0.000 HD
ATOM     26  H   UNL     1      50.766   7.388  14.227  0.00  0.00    +0.000 HD
ENDBRANCH  16  23
ENDBRANCH  15  19
ENDBRANCH   1  15
TORSDOF 5
ENDMDL
MODEL 6
REMARK VINA RESULT:    -8.122      1.623      2.164
REMARK INTER + INTRA:         -10.962
REMARK INTER:                 -10.304
REMARK INTRA:                  -0.658
REMARK UNBOUND:                -0.465
REMARK  Name = 
REMARK  5 active torsions:
REMARK  status: ('A' for Active; 'I' for Inactive)
REMARK    1  A    between atoms: C_2  and  C_4
REMARK    2  A    between atoms: C_7  and  O_8
REMARK    3  A    between atoms: O_8  and  C_9
REMARK    4  A    between atoms: C_9  and  C_10
REMARK    5  A    between atoms: C_14  and  C_15
REMARK                            x       y       z     vdW  Elec       q    Type
REMARK                         _______ _______ _______ _____ _____    ______ ____
ROOT
ATOM      1  C   UNL     1      44.188   3.826  11.512  0.00  0.00    +0.000 C 
ENDROOT
BRANCH   1   2
ATOM      2  C   UNL     1      44.610   5.272  11.632  0.00  0.00    +0.000 A 
ATOM      3  N   UNL     1      43.714   6.214  11.319  0.00  0.00    +0.000 NA
ATOM      4  C   UNL     1      44.166   7.461  11.406  0.00  0.00    +0.000 A 
ATOM      5  N   UNL     1      45.392   7.827  11.764  0.00  0.00    +0.000 NA
ATOM      6  C   UNL     1      46.212   6.815  12.062  0.00  0.00    +0.000 A 
ATOM      7  N   UNL     1      45.869   5.524  12.012  0.00  0.00    +0.000 NA
BRANCH   6   8
ATOM      8  C   UNL     1      47.598   7.145  12.461  0.00  0.00    +0.000 A 
ATOM      9  C   UNL     1      48.512   7.706  11.544  0.00  0.00    +0.000 A 
ATOM     10  C   UNL     1      49.823   8.021  11.917  0.00  0.00    +0.000 A 
ATOM     11  C   UNL     1      50.240   7.780  13.216  0.00  0.00    +0.000 A 
ATOM     12  F   UNL     1      51.494   8.083  13.576  0.00  0.00    +0.000 F 
ATOM     13  C   UNL     1      49.374   7.227  14.150  0.00  0.00    +0.000 A 
ATOM     14  C   UNL     1      48.064   6.912  13.772  0.00  0.00    +0.000 A 
ENDBRANCH   6   8
ENDBRANCH   1   2
BRANCH   1  15
ATOM     15  O   UNL     1      43.602   3.584  10.226  0.00  0.00    +0.000 OA
BRANCH  15  19
ATOM     16  C   UNL     1      46.461   2.582   7.435  0.00  0.00    +0.000 A 
ATOM     17  C   UNL     1      46.009   1.618   8.338  0.00  0.00    +0.000 A 
ATOM     18  C   UNL     1      45.041   1.967   9.282  0.00  0.00    +0.000 A 
ATOM     19  C   UNL     1      44.560   3.270   9.284  0.00  0.00    +0.000 A 
ATOM     20  N   UNL     1      44.984   4.222   8.428  0.00  0.00    +0.000 NA
ATOM     21  C   UNL     1      45.931   3.862   7.529  0.00  0.00    +0.000 A 
BRANCH  16  23
ATOM     22  N   UNL     1      47.480   3.128   5.297  0.00  0.00    +0.000 N 
ATOM     23  C   UNL     1      47.484   2.324   6.402  0.00  0.00    +0.000 C 
ATOM     24  O   UNL     1      48.330   1.452   6.547  0.00  0.00    +0.000 OA
ATOM     25  H   UNL     1      48.259   3.011   4.661  0.00  0.00    +0.000 HD
ATOM     26  H   UNL     1      46.977   4.002   5.260  0.00  0.00    +0.000 HD
ENDBRANCH  16  23
ENDBRANCH  15  19
ENDBRANCH   1  15
TORSDOF 5
ENDMDL
MODEL 7
REMARK VINA RESULT:    -8.071      4.215      7.946
REMARK INTER + INTRA:         -10.895
REMARK INTER:                 -10.411
REMARK INTRA:                  -0.485
REMARK UNBOUND:                -0.465
REMARK  Name = 
REMARK  5 active torsions:
REMARK  status: ('A' for Active; 'I' for Inactive)
REMARK    1  A    between atoms: C_2  and  C_4
REMARK    2  A    between atoms: C_7  and  O_8
REMARK    3  A    between atoms: O_8  and  C_9
REMARK    4  A    between atoms: C_9  and  C_10
REMARK    5  A    between atoms: C_14  and  C_15
REMARK                            x       y       z     vdW  Elec       q    Type
REMARK                         _______ _______ _______ _____ _____    ______ ____
ROOT
ATOM      1  C   UNL     1      45.702   4.751  13.544  0.00  0.00    +0.000 C 
ENDROOT
BRANCH   1   2
ATOM      2  C   UNL     1      44.982   3.975  12.466  0.00  0.00    +0.000 A 
ATOM      3  N   UNL     1      43.804   3.422  12.774  0.00  0.00    +0.000 NA
ATOM      4  C   UNL     1      43.248   2.718  11.793  0.00  0.00    +0.000 A 
ATOM      5  N   UNL     1      43.754   2.530  10.579  0.00  0.00    +0.000 NA
ATOM      6  C   UNL     1      44.931   3.127  10.366  0.00  0.00    +0.000 A 
ATOM      7  N   UNL     1      45.583   3.858  11.275  0.00  0.00    +0.000 NA
BRANCH   6   8
ATOM      8  C   UNL     1      45.561   2.954   9.039  0.00  0.00    +0.000 A 
ATOM      9  C   UNL     1      45.811   4.058   8.195  0.00  0.00    +0.000 A 
ATOM     10  C   UNL     1      46.408   3.900   6.940  0.00  0.00    +0.000 A 
ATOM     11  C   UNL     1      46.768   2.633   6.510  0.00  0.00    +0.000 A 
ATOM     12  F   UNL     1      47.343   2.479   5.311  0.00  0.00    +0.000 F 
ATOM     13  C   UNL     1      46.540   1.520   7.307  0.00  0.00    +0.000 A 
ATOM     14  C   UNL     1      45.940   1.682   8.561  0.00  0.00    +0.000 A 
ENDBRANCH   6   8
ENDBRANCH   1   2
BRANCH   1  15
ATOM     15  O   UNL     1      47.080   4.359  13.602  0.00  0.00    +0.000 OA
BRANCH  15  19
ATOM     16  C   UNL     1      48.427   4.193  17.491  0.00  0.00    +0.000 A 
ATOM     17  C   UNL     1      48.337   5.426  16.844  0.00  0.00    +0.000 A 
ATOM     18  C   UNL     1      47.881   5.473  15.524  0.00  0.00    +0.000 A 
ATOM     19  C   UNL     1      47.530   4.281  14.904  0.00  0.00    +0.000 A 
ATOM     20  N   UNL     1      47.614   3.076  15.504  0.00  0.00    +0.000 NA
ATOM     21  C   UNL     1      48.070   3.056  16.780  0.00  0.00    +0.000 A 
BRANCH  16  23
ATOM     22  N   UNL     1      48.293   3.072  19.643  0.00  0.00    +0.000 N 
ATOM     23  C   UNL     1      48.902   4.027  18.879  0.00  0.00    +0.000 C 
ATOM     24  O   UNL     1      49.833   4.689  19.317  0.00  0.00    +0.000 OA
ATOM     25  H   UNL     1      48.711   2.895  20.549  0.00  0.00    +0.000 HD
ATOM     26  H   UNL     1      47.713   2.346  19.250  0.00  0.00    +0.000 HD
ENDBRANCH  16  23
ENDBRANCH  15  19
ENDBRANCH   1  15
TORSDOF 5
ENDMDL
MODEL 8
REMARK VINA RESULT:    -6.739      5.464      7.777
REMARK INTER + INTRA:          -9.174
REMARK INTER:                  -8.684
REMARK INTRA:                  -0.490
REMARK UNBOUND:                -0.465
REMARK  Name = 
REMARK  5 active torsions:
REMARK  status: ('A' for Active; 'I' for Inactive)
REMARK    1  A    between atoms: C_2  and  C_4
REMARK    2  A    between atoms: C_7  and  O_8
REMARK    3  A    between atoms: O_8  and  C_9
REMARK    4  A    between atoms: C_9  and  C_10
REMARK    5  A    between atoms: C_14  and  C_15
REMARK                            x       y       z     vdW  Elec       q    Type
REMARK                         _______ _______ _______ _____ _____    ______ ____
ROOT
ATOM      1  C   UNL     1      48.154   6.104  15.372  0.00  0.00    +0.000 C 
ENDROOT
BRANCH   1   2
ATOM      2  C   UNL     1      48.544   5.433  16.668  0.00  0.00    +0.000 A 
ATOM      3  N   UNL     1      47.837   5.729  17.764  0.00  0.00    +0.000 NA
ATOM      4  C   UNL     1      48.261   5.136  18.876  0.00  0.00    +0.000 A 
ATOM      5  N   UNL     1      49.294   4.307  18.976  0.00  0.00    +0.000 NA
ATOM      6  C   UNL     1      49.933   4.070  17.827  0.00  0.00    +0.000 A 
ATOM      7  N   UNL     1      49.598   4.607  16.650  0.00  0.00    +0.000 NA
BRANCH   6   8
ATOM      8  C   UNL     1      51.101   3.162  17.862  0.00  0.00    +0.000 A 
ATOM      9  C   UNL     1      52.348   3.588  18.371  0.00  0.00    +0.000 A 
ATOM     10  C   UNL     1      53.454   2.733  18.407  0.00  0.00    +0.000 A 
ATOM     11  C   UNL     1      53.331   1.436  17.935  0.00  0.00    +0.000 A 
ATOM     12  F   UNL     1      54.388   0.615  17.972  0.00  0.00    +0.000 F 
ATOM     13  C   UNL     1      52.124   0.976  17.426  0.00  0.00    +0.000 A 
ATOM     14  C   UNL     1      51.020   1.835  17.389  0.00  0.00    +0.000 A 
ENDBRANCH   6   8
ENDBRANCH   1   2
BRANCH   1  15
ATOM     15  O   UNL     1      47.928   5.123  14.353  0.00  0.00    +0.000 OA
BRANCH  15  19
ATOM     16  C   UNL     1      44.377   5.817  12.384  0.00  0.00    +0.000 A 
ATOM     17  C   UNL     1      45.375   6.793  12.372  0.00  0.00    +0.000 A 
ATOM     18  C   UNL     1      46.576   6.549  13.044  0.00  0.00    +0.000 A 
ATOM     19  C   UNL     1      46.731   5.336  13.701  0.00  0.00    +0.000 A 
ATOM     20  N   UNL     1      45.780   4.380  13.734  0.00  0.00    +0.000 NA
ATOM     21  C   UNL     1      44.621   4.644  13.085  0.00  0.00    +0.000 A 
BRANCH  16  23
ATOM     22  N   UNL     1      42.804   7.172  11.121  0.00  0.00    +0.000 N 
ATOM     23  C   UNL     1      43.070   5.971  11.715  0.00  0.00    +0.000 C 
ATOM     24  O   UNL     1      42.271   5.046  11.658  0.00  0.00    +0.000 OA
ATOM     25  H   UNL     1      41.956   7.216  10.569  0.00  0.00    +0.000 HD
ATOM     26  H   UNL     1      43.522   7.855  10.925  0.00  0.00    +0.000 HD
ENDBRANCH  16  23
ENDBRANCH  15  19
ENDBRANCH   1  15
TORSDOF 5
ENDMDL
MODEL 9
REMARK VINA RESULT:    -6.243      4.583      8.090
REMARK INTER + INTRA:          -8.533
REMARK INTER:                  -8.034
REMARK INTRA:                  -0.499
REMARK UNBOUND:                -0.465
REMARK  Name = 
REMARK  5 active torsions:
REMARK  status: ('A' for Active; 'I' for Inactive)
REMARK    1  A    between atoms: C_2  and  C_4
REMARK    2  A    between atoms: C_7  and  O_8
REMARK    3  A    between atoms: O_8  and  C_9
REMARK    4  A    between atoms: C_9  and  C_10
REMARK    5  A    between atoms: C_14  and  C_15
REMARK                            x       y       z     vdW  Elec       q    Type
REMARK                         _______ _______ _______ _____ _____    ______ ____
ROOT
ATOM      1  C   UNL     1      48.638   7.395  13.477  0.00  0.00    +0.000 C 
ENDROOT
BRANCH   1   2
ATOM      2  C   UNL     1      47.302   7.415  12.772  0.00  0.00    +0.000 A 
ATOM      3  N   UNL     1      46.506   8.471  12.967  0.00  0.00    +0.000 NA
ATOM      4  C   UNL     1      45.330   8.402  12.352  0.00  0.00    +0.000 A 
ATOM      5  N   UNL     1      44.903   7.403  11.589  0.00  0.00    +0.000 NA
ATOM      6  C   UNL     1      45.770   6.396  11.449  0.00  0.00    +0.000 A 
ATOM      7  N   UNL     1      46.979   6.355  12.018  0.00  0.00    +0.000 NA
BRANCH   6   8
ATOM      8  C   UNL     1      45.360   5.242  10.619  0.00  0.00    +0.000 A 
ATOM      9  C   UNL     1      45.688   5.169   9.248  0.00  0.00    +0.000 A 
ATOM     10  C   UNL     1      45.303   4.079   8.460  0.00  0.00    +0.000 A 
ATOM     11  C   UNL     1      44.585   3.041   9.034  0.00  0.00    +0.000 A 
ATOM     12  F   UNL     1      44.220   1.995   8.283  0.00  0.00    +0.000 F 
ATOM     13  C   UNL     1      44.241   3.073  10.378  0.00  0.00    +0.000 A 
ATOM     14  C   UNL     1      44.626   4.167  11.162  0.00  0.00    +0.000 A 
ENDBRANCH   6   8
ENDBRANCH   1   2
BRANCH   1  15
ATOM     15  O   UNL     1      48.528   8.006  14.768  0.00  0.00    +0.000 OA
BRANCH  15  19
ATOM     16  C   UNL     1      48.828   5.273  17.834  0.00  0.00    +0.000 A 
ATOM     17  C   UNL     1      49.099   6.620  18.081  0.00  0.00    +0.000 A 
ATOM     18  C   UNL     1      48.996   7.540  17.035  0.00  0.00    +0.000 A 
ATOM     19  C   UNL     1      48.624   7.074  15.780  0.00  0.00    +0.000 A 
ATOM     20  N   UNL     1      48.363   5.778  15.514  0.00  0.00    +0.000 NA
ATOM     21  C   UNL     1      48.480   4.904  16.542  0.00  0.00    +0.000 A 
BRANCH  16  23
ATOM     22  N   UNL     1      49.412   3.004  18.481  0.00  0.00    +0.000 N 
ATOM     23  C   UNL     1      48.912   4.217  18.863  0.00  0.00    +0.000 C 
ATOM     24  O   UNL     1      48.585   4.430  20.022  0.00  0.00    +0.000 OA
ATOM     25  H   UNL     1      49.570   2.336  19.225  0.00  0.00    +0.000 HD
ATOM     26  H   UNL     1      49.921   2.871  17.620  0.00  0.00    +0.000 HD
ENDBRANCH  16  23
ENDBRANCH  15  19
ENDBRANCH   1  15
TORSDOF 5
ENDMDL
