MODEL 1
REMARK VINA RESULT:    -8.944      0.000      0.000
REMARK INTER + INTRA:         -13.797
REMARK INTER:                 -12.604
REMARK INTRA:                  -1.193
REMARK UNBOUND:                -1.193
REMARK  Name = 
REMARK  8 active torsions:
REMARK  status: ('A' for Active; 'I' for Inactive)
REMARK    1  A    between atoms: C_1  and  C_2
REMARK    2  A    between atoms: C_2  and  C_3
REMARK    3  A    between atoms: C_2  and  C_22
REMARK    4  A    between atoms: C_3  and  N_4
REMARK    5  A    between atoms: C_9  and  C_10
REMARK    6  A    between atoms: C_13  and  O_14
REMARK    7  A    between atoms: O_14  and  C_15
REMARK    8  A    between atoms: C_25  and  C_26
REMARK                            x       y       z     vdW  Elec       q    Type
REMARK                         _______ _______ _______ _____ _____    ______ ____
ROOT
ATOM      1  N   UNL     1      43.828   5.547  12.333  0.00  0.00    +0.000 N 
ATOM      2  C   UNL     1      45.172   5.864  12.494  0.00  0.00    +0.000 A 
ATOM      3  N   UNL     1      45.833   6.485  11.507  0.00  0.00    +0.000 NA
ATOM      4  C   UNL     1      47.136   6.721  11.703  0.00  0.00    +0.000 A 
ATOM      5  C   UNL     1      47.799   6.367  12.845  0.00  0.00    +0.000 A 
ATOM      6  C   UNL     1      47.045   5.751  13.825  0.00  0.00    +0.000 A 
ATOM      7  N   UNL     1      45.731   5.485  13.644  0.00  0.00    +0.000 NA
ATOM      8  H   UNL     1      43.638   4.797  12.989  0.00  0.00    +0.000 HD
ENDROOT
BRANCH   6   9
ATOM      9  C   UNL     1      47.616   5.339  15.122  0.00  0.00    +0.000 A 
ATOM     10  C   UNL     1      48.637   6.077  15.749  0.00  0.00    +0.000 A 
ATOM     11  C   UNL     1      49.192   5.673  16.969  0.00  0.00    +0.000 A 
ATOM     12  C   UNL     1      48.699   4.552  17.625  0.00  0.00    +0.000 A 
ATOM     13  C   UNL     1      47.704   3.792  17.011  0.00  0.00    +0.000 A 
ATOM     14  C   UNL     1      47.164   4.183  15.780  0.00  0.00    +0.000 A 
BRANCH  12  15
ATOM     15  O   UNL     1      49.130   4.075  18.824  0.00  0.00    +0.000 OA
BRANCH  15  16
ATOM     16  C   UNL     1      48.799   4.773  20.017  0.00  0.00    +0.000 C 
ATOM     17  F   UNL     1      47.644   5.468  19.962  0.00  0.00    +0.000 F 
ATOM     18  F   UNL     1      48.688   3.875  21.021  0.00  0.00    +0.000 F 
ATOM     19  F   UNL     1      49.801   5.626  20.324  0.00  0.00    +0.000 F 
ENDBRANCH  15  16
ENDBRANCH  12  15
ENDBRANCH   6   9
BRANCH   1  20
ATOM     20  C   UNL     1      43.465   5.268  10.950  0.00  0.00    +0.000 C 
BRANCH  20  22
ATOM     21  C   UNL     1      43.646   2.939  11.928  0.00  0.00    +0.000 C 
ATOM     22  C   UNL     1      43.506   3.759  10.637  0.00  0.00    +0.000 C 
BRANCH  22  23
ATOM     23  C   UNL     1      44.518   3.405   9.554  0.00  0.00    +0.000 A 
ATOM     24  C   UNL     1      44.854   2.057   9.329  0.00  0.00    +0.000 A 
ATOM     25  C   UNL     1      45.811   1.705   8.377  0.00  0.00    +0.000 A 
ATOM     26  C   UNL     1      46.440   2.687   7.606  0.00  0.00    +0.000 A 
ATOM     27  C   UNL     1      46.099   4.026   7.799  0.00  0.00    +0.000 A 
ATOM     28  C   UNL     1      45.144   4.379   8.762  0.00  0.00    +0.000 A 
BRANCH  26  29
ATOM     29  C   UNL     1      47.489   2.264   6.642  0.00  0.00    +0.000 C 
ATOM     30  N   UNL     1      47.545   2.910   5.438  0.00  0.00    +0.000 N 
ATOM     31  O   UNL     1      48.267   1.355   6.898  0.00  0.00    +0.000 OA
ATOM     32  H   UNL     1      46.830   3.542   5.108  0.00  0.00    +0.000 HD
ATOM     33  H   UNL     1      48.214   2.556   4.766  0.00  0.00    +0.000 HD
ENDBRANCH  26  29
ENDBRANCH  22  23
ENDBRANCH  20  22
ENDBRANCH   1  20
TORSDOF 7
ENDMDL
MODEL 2
REMARK VINA RESULT:    -7.651      2.940      3.437
REMARK INTER + INTRA:         -11.975
REMARK INTER:                 -10.842
REMARK INTRA:                  -1.133
REMARK UNBOUND:                -1.193
REMARK  Name = 
REMARK  8 active torsions:
REMARK  status: ('A' for Active; 'I' for Inactive)
REMARK    1  A    between atoms: C_1  and  C_2
REMARK    2  A    between atoms: C_2  and  C_3
REMARK    3  A    between atoms: C_2  and  C_22
REMARK    4  A    between atoms: C_3  and  N_4
REMARK    5  A    between atoms: C_9  and  C_10
REMARK    6  A    between atoms: C_13  and  O_14
REMARK    7  A    between atoms: O_14  and  C_15
REMARK    8  A    between atoms: C_25  and  C_26
REMARK                            x       y       z     vdW  Elec       q    Type
REMARK                         _______ _______ _______ _____ _____    ______ ____
ROOT
ATOM      1  N   UNL     1      44.318   5.530  12.203  0.00  0.00    +0.000 N 
ATOM      2  C   UNL     1      44.918   6.784  12.190  0.00  0.00    +0.000 A 
ATOM      3  N   UNL     1      44.322   7.801  11.553  0.00  0.00    +0.000 NA
ATOM      4  C   UNL     1      44.971   8.972  11.536  0.00  0.00    +0.000 A 
ATOM      5  C   UNL     1      46.185   9.165  12.134  0.00  0.00    +0.000 A 
ATOM      6  C   UNL     1      46.725   8.075  12.790  0.00  0.00    +0.000 A 
ATOM      7  N   UNL     1      46.098   6.877  12.806  0.00  0.00    +0.000 NA
ATOM      8  H   UNL     1      45.063   4.867  12.392  0.00  0.00    +0.000 HD
ENDROOT
BRANCH   6   9
ATOM      9  C   UNL     1      48.014   8.141  13.506  0.00  0.00    +0.000 A 
ATOM     10  C   UNL     1      49.243   8.053  12.829  0.00  0.00    +0.000 A 
ATOM     11  C   UNL     1      50.464   8.096  13.512  0.00  0.00    +0.000 A 
ATOM     12  C   UNL     1      50.489   8.287  14.888  0.00  0.00    +0.000 A 
ATOM     13  C   UNL     1      49.283   8.353  15.584  0.00  0.00    +0.000 A 
ATOM     14  C   UNL     1      48.061   8.288  14.903  0.00  0.00    +0.000 A 
BRANCH  12  15
ATOM     15  O   UNL     1      51.605   8.377  15.661  0.00  0.00    +0.000 OA
BRANCH  15  16
ATOM     16  C   UNL     1      52.278   7.191  16.062  0.00  0.00    +0.000 C 
ATOM     17  F   UNL     1      51.489   6.101  16.162  0.00  0.00    +0.000 F 
ATOM     18  F   UNL     1      53.241   6.916  15.154  0.00  0.00    +0.000 F 
ATOM     19  F   UNL     1      52.874   7.402  17.256  0.00  0.00    +0.000 F 
ENDBRANCH  15  16
ENDBRANCH  12  15
ENDBRANCH   6   9
BRANCH   1  20
ATOM     20  C   UNL     1      43.534   5.256  11.006  0.00  0.00    +0.000 C 
BRANCH  20  22
ATOM     21  C   UNL     1      43.559   2.901  11.938  0.00  0.00    +0.000 C 
ATOM     22  C   UNL     1      43.515   3.753  10.661  0.00  0.00    +0.000 C 
BRANCH  22  23
ATOM     23  C   UNL     1      44.555   3.373   9.615  0.00  0.00    +0.000 A 
ATOM     24  C   UNL     1      45.183   4.380   8.858  0.00  0.00    +0.000 A 
ATOM     25  C   UNL     1      46.105   4.062   7.861  0.00  0.00    +0.000 A 
ATOM     26  C   UNL     1      46.445   2.728   7.609  0.00  0.00    +0.000 A 
ATOM     27  C   UNL     1      45.851   1.720   8.369  0.00  0.00    +0.000 A 
ATOM     28  C   UNL     1      44.919   2.041   9.363  0.00  0.00    +0.000 A 
BRANCH  26  29
ATOM     29  C   UNL     1      47.394   2.439   6.503  0.00  0.00    +0.000 C 
ATOM     30  N   UNL     1      47.269   3.163   5.350  0.00  0.00    +0.000 N 
ATOM     31  O   UNL     1      48.249   1.568   6.603  0.00  0.00    +0.000 OA
ATOM     32  H   UNL     1      46.485   3.767   5.151  0.00  0.00    +0.000 HD
ATOM     33  H   UNL     1      47.874   2.898   4.583  0.00  0.00    +0.000 HD
ENDBRANCH  26  29
ENDBRANCH  22  23
ENDBRANCH  20  22
ENDBRANCH   1  20
TORSDOF 7
ENDMDL
MODEL 3
REMARK VINA RESULT:    -7.431      4.977      9.165
REMARK INTER + INTRA:         -11.666
REMARK INTER:                 -10.532
REMARK INTRA:                  -1.134
REMARK UNBOUND:                -1.193
REMARK  Name = 
REMARK  8 active torsions:
REMARK  status: ('A' for Active; 'I' for Inactive)
REMARK    1  A    between atoms: C_1  and  C_2
REMARK    2  A    between atoms: C_2  and  C_3
REMARK    3  A    between atoms: C_2  and  C_22
REMARK    4  A    between atoms: C_3  and  N_4
REMARK    5  A    between atoms: C_9  and  C_10
REMARK    6  A    between atoms: C_13  and  O_14
REMARK    7  A    between atoms: O_14  and  C_15
REMARK    8  A    between atoms: C_25  and  C_26
REMARK                            x       y       z     vdW  Elec       q    Type
REMARK                         _______ _______ _______ _____ _____    ______ ____
ROOT
ATOM      1  N   UNL     1      49.711   6.622  15.304  0.00  0.00    +0.000 N 
ATOM      2  C   UNL     1      48.646   7.121  14.563  0.00  0.00    +0.000 A 
ATOM      3  N   UNL     1      48.363   8.430  14.601  0.00  0.00    +0.000 NA
ATOM      4  C   UNL     1      47.297   8.843  13.904  0.00  0.00    +0.000 A 
ATOM      5  C   UNL     1      46.511   8.001  13.167  0.00  0.00    +0.000 A 
ATOM      6  C   UNL     1      46.880   6.668  13.159  0.00  0.00    +0.000 A 
ATOM      7  N   UNL     1      47.941   6.224  13.870  0.00  0.00    +0.000 NA
ATOM      8  H   UNL     1      49.525   5.632  15.427  0.00  0.00    +0.000 HD
ENDROOT
BRANCH   6   9
ATOM      9  C   UNL     1      46.145   5.649  12.386  0.00  0.00    +0.000 A 
ATOM     10  C   UNL     1      45.880   4.371  12.910  0.00  0.00    +0.000 A 
ATOM     11  C   UNL     1      45.200   3.398  12.167  0.00  0.00    +0.000 A 
ATOM     12  C   UNL     1      44.715   3.698  10.901  0.00  0.00    +0.000 A 
ATOM     13  C   UNL     1      44.987   4.951  10.351  0.00  0.00    +0.000 A 
ATOM     14  C   UNL     1      45.685   5.916  11.086  0.00  0.00    +0.000 A 
BRANCH  12  15
ATOM     15  O   UNL     1      44.016   2.855  10.094  0.00  0.00    +0.000 OA
BRANCH  15  16
ATOM     16  C   UNL     1      44.678   2.202   9.019  0.00  0.00    +0.000 C 
ATOM     17  F   UNL     1      46.017   2.105   9.157  0.00  0.00    +0.000 F 
ATOM     18  F   UNL     1      44.186   0.947   8.912  0.00  0.00    +0.000 F 
ATOM     19  F   UNL     1      44.410   2.859   7.868  0.00  0.00    +0.000 F 
ENDBRANCH  15  16
ENDBRANCH  12  15
ENDBRANCH   6   9
BRANCH   1  20
ATOM     20  C   UNL     1      49.953   7.365  16.534  0.00  0.00    +0.000 C 
BRANCH  20  22
ATOM     21  C   UNL     1      49.988   7.303  19.066  0.00  0.00    +0.000 C 
ATOM     22  C   UNL     1      49.719   6.497  17.786  0.00  0.00    +0.000 C 
BRANCH  22  23
ATOM     23  C   UNL     1      50.443   5.158  17.723  0.00  0.00    +0.000 A 
ATOM     24  C   UNL     1      49.699   3.968  17.607  0.00  0.00    +0.000 A 
ATOM     25  C   UNL     1      50.330   2.724  17.593  0.00  0.00    +0.000 A 
ATOM     26  C   UNL     1      51.723   2.635  17.669  0.00  0.00    +0.000 A 
ATOM     27  C   UNL     1      52.477   3.806  17.757  0.00  0.00    +0.000 A 
ATOM     28  C   UNL     1      51.841   5.054  17.780  0.00  0.00    +0.000 A 
BRANCH  26  29
ATOM     29  C   UNL     1      52.344   1.285  17.701  0.00  0.00    +0.000 C 
ATOM     30  N   UNL     1      51.555   0.230  18.068  0.00  0.00    +0.000 N 
ATOM     31  O   UNL     1      53.526   1.115  17.430  0.00  0.00    +0.000 OA
ATOM     32  H   UNL     1      50.631   0.332  18.462  0.00  0.00    +0.000 HD
ATOM     33  H   UNL     1      52.015  -0.668  18.158  0.00  0.00    +0.000 HD
ENDBRANCH  26  29
ENDBRANCH  22  23
ENDBRANCH  20  22
ENDBRANCH   1  20
TORSDOF 7
ENDMDL
MODEL 4
REMARK VINA RESULT:    -7.212      1.529      1.941
REMARK INTER + INTRA:         -11.356
REMARK INTER:                 -10.176
REMARK INTRA:                  -1.181
REMARK UNBOUND:                -1.193
REMARK  Name = 
REMARK  8 active torsions:
REMARK  status: ('A' for Active; 'I' for Inactive)
REMARK    1  A    between atoms: C_1  and  C_2
REMARK    2  A    between atoms: C_2  and  C_3
REMARK    3  A    between atoms: C_2  and  C_22
REMARK    4  A    between atoms: C_3  and  N_4
REMARK    5  A    between atoms: C_9  and  C_10
REMARK    6  A    between atoms: C_13  and  O_14
REMARK    7  A    between atoms: O_14  and  C_15
REMARK    8  A    between atoms: C_25  and  C_26
REMARK                            x       y       z     vdW  Elec       q    Type
REMARK                         _______ _______ _______ _____ _____    ______ ____
ROOT
ATOM      1  N   UNL     1      44.164   6.351  12.469  0.00  0.00    +0.000 N 
ATOM      2  C   UNL     1      45.515   6.676  12.442  0.00  0.00    +0.000 A 
ATOM      3  N   UNL     1      46.043   7.244  11.349  0.00  0.00    +0.000 NA
ATOM      4  C   UNL     1      47.359   7.490  11.366  0.00  0.00    +0.000 A 
ATOM      5  C   UNL     1      48.163   7.197  12.432  0.00  0.00    +0.000 A 
ATOM      6  C   UNL     1      47.542   6.633  13.531  0.00  0.00    +0.000 A 
ATOM      7  N   UNL     1      46.218   6.358  13.531  0.00  0.00    +0.000 NA
ATOM      8  H   UNL     1      44.064   5.636  13.183  0.00  0.00    +0.000 HD
ENDROOT
BRANCH   6   9
ATOM      9  C   UNL     1      48.276   6.290  14.764  0.00  0.00    +0.000 A 
ATOM     10  C   UNL     1      47.831   5.279  15.634  0.00  0.00    +0.000 A 
ATOM     11  C   UNL     1      48.518   4.969  16.814  0.00  0.00    +0.000 A 
ATOM     12  C   UNL     1      49.702   5.624  17.126  0.00  0.00    +0.000 A 
ATOM     13  C   UNL     1      50.150   6.647  16.291  0.00  0.00    +0.000 A 
ATOM     14  C   UNL     1      49.452   6.971  15.122  0.00  0.00    +0.000 A 
BRANCH  12  15
ATOM     15  O   UNL     1      50.476   5.395  18.221  0.00  0.00    +0.000 OA
BRANCH  15  16
ATOM     16  C   UNL     1      51.030   4.104  18.432  0.00  0.00    +0.000 C 
ATOM     17  F   UNL     1      52.003   4.053  19.366  0.00  0.00    +0.000 F 
ATOM     18  F   UNL     1      50.040   3.272  18.829  0.00  0.00    +0.000 F 
ATOM     19  F   UNL     1      51.528   3.639  17.265  0.00  0.00    +0.000 F 
ENDBRANCH  15  16
ENDBRANCH  12  15
ENDBRANCH   6   9
BRANCH   1  20
ATOM     20  C   UNL     1      43.631   6.000  11.160  0.00  0.00    +0.000 C 
BRANCH  20  22
ATOM     21  C   UNL     1      43.517   3.779  12.373  0.00  0.00    +0.000 C 
ATOM     22  C   UNL     1      43.437   4.478  11.007  0.00  0.00    +0.000 C 
BRANCH  22  23
ATOM     23  C   UNL     1      44.334   3.870   9.936  0.00  0.00    +0.000 A 
ATOM     24  C   UNL     1      44.402   2.471   9.796  0.00  0.00    +0.000 A 
ATOM     25  C   UNL     1      45.249   1.883   8.857  0.00  0.00    +0.000 A 
ATOM     26  C   UNL     1      46.033   2.677   8.013  0.00  0.00    +0.000 A 
ATOM     27  C   UNL     1      45.956   4.066   8.121  0.00  0.00    +0.000 A 
ATOM     28  C   UNL     1      45.112   4.655   9.071  0.00  0.00    +0.000 A 
BRANCH  26  29
ATOM     29  C   UNL     1      46.955   2.002   7.064  0.00  0.00    +0.000 C 
ATOM     30  N   UNL     1      47.286   0.699   7.314  0.00  0.00    +0.000 N 
ATOM     31  O   UNL     1      47.427   2.590   6.099  0.00  0.00    +0.000 OA
ATOM     32  H   UNL     1      47.066   0.221   8.176  0.00  0.00    +0.000 HD
ATOM     33  H   UNL     1      47.974   0.281   6.701  0.00  0.00    +0.000 HD
ENDBRANCH  26  29
ENDBRANCH  22  23
ENDBRANCH  20  22
ENDBRANCH   1  20
TORSDOF 7
ENDMDL
MODEL 5
REMARK VINA RESULT:    -7.142      4.679      8.946
REMARK INTER + INTRA:         -11.258
REMARK INTER:                 -10.139
REMARK INTRA:                  -1.119
REMARK UNBOUND:                -1.193
REMARK  Name = 
REMARK  8 active torsions:
REMARK  status: ('A' for Active; 'I' for Inactive)
REMARK    1  A    between atoms: C_1  and  C_2
REMARK    2  A    between atoms: C_2  and  C_3
REMARK    3  A    between atoms: C_2  and  C_22
REMARK    4  A    between atoms: C_3  and  N_4
REMARK    5  A    between atoms: C_9  and  C_10
REMARK    6  A    between atoms: C_13  and  O_14
REMARK    7  A    between atoms: O_14  and  C_15
REMARK    8  A    between atoms: C_25  and  C_26
REMARK                            x       y       z     vdW  Elec       q    Type
REMARK                         _______ _______ _______ _____ _____    ______ ____
ROOT
ATOM      1  N   UNL     1      50.528   7.404  14.026  0.00  0.00    +0.000 N 
ATOM      2  C   UNL     1      49.259   7.760  13.586  0.00  0.00    +0.000 A 
ATOM      3  N   UNL     1      48.848   9.031  13.693  0.00  0.00    +0.000 NA
ATOM      4  C   UNL     1      47.598   9.302  13.296  0.00  0.00    +0.000 A 
ATOM      5  C   UNL     1      46.749   8.356  12.792  0.00  0.00    +0.000 A 
ATOM      6  C   UNL     1      47.253   7.072  12.691  0.00  0.00    +0.000 A 
ATOM      7  N   UNL     1      48.505   6.770  13.103  0.00  0.00    +0.000 NA
ATOM      8  H   UNL     1      50.494   6.405  14.196  0.00  0.00    +0.000 HD
ENDROOT
BRANCH   6   9
ATOM      9  C   UNL     1      46.464   5.955  12.140  0.00  0.00    +0.000 A 
ATOM     10  C   UNL     1      46.258   4.766  12.863  0.00  0.00    +0.000 A 
ATOM     11  C   UNL     1      45.525   3.699  12.329  0.00  0.00    +0.000 A 
ATOM     12  C   UNL     1      44.931   3.814  11.079  0.00  0.00    +0.000 A 
ATOM     13  C   UNL     1      45.142   4.974  10.334  0.00  0.00    +0.000 A 
ATOM     14  C   UNL     1      45.892   6.033  10.859  0.00  0.00    +0.000 A 
BRANCH  12  15
ATOM     15  O   UNL     1      44.173   2.866  10.465  0.00  0.00    +0.000 OA
BRANCH  15  16
ATOM     16  C   UNL     1      44.625   2.286   9.248  0.00  0.00    +0.000 C 
ATOM     17  F   UNL     1      44.300   2.981   8.138  0.00  0.00    +0.000 F 
ATOM     18  F   UNL     1      45.973   2.193   9.293  0.00  0.00    +0.000 F 
ATOM     19  F   UNL     1      44.120   1.037   9.138  0.00  0.00    +0.000 F 
ENDBRANCH  15  16
ENDBRANCH  12  15
ENDBRANCH   6   9
BRANCH   1  20
ATOM     20  C   UNL     1      50.994   8.208  15.148  0.00  0.00    +0.000 C 
BRANCH  20  22
ATOM     21  C   UNL     1      52.905   6.732  15.913  0.00  0.00    +0.000 C 
ATOM     22  C   UNL     1      51.544   7.335  16.293  0.00  0.00    +0.000 C 
BRANCH  22  23
ATOM     23  C   UNL     1      50.528   6.320  16.804  0.00  0.00    +0.000 A 
ATOM     24  C   UNL     1      50.950   5.020  17.140  0.00  0.00    +0.000 A 
ATOM     25  C   UNL     1      50.037   4.056  17.566  0.00  0.00    +0.000 A 
ATOM     26  C   UNL     1      48.681   4.370  17.694  0.00  0.00    +0.000 A 
ATOM     27  C   UNL     1      48.250   5.662  17.391  0.00  0.00    +0.000 A 
ATOM     28  C   UNL     1      49.167   6.627  16.954  0.00  0.00    +0.000 A 
BRANCH  26  29
ATOM     29  C   UNL     1      47.742   3.294  18.103  0.00  0.00    +0.000 C 
ATOM     30  N   UNL     1      48.028   2.599  19.245  0.00  0.00    +0.000 N 
ATOM     31  O   UNL     1      46.753   3.016  17.436  0.00  0.00    +0.000 OA
ATOM     32  H   UNL     1      48.907   2.668  19.737  0.00  0.00    +0.000 HD
ATOM     33  H   UNL     1      47.419   1.820  19.465  0.00  0.00    +0.000 HD
ENDBRANCH  26  29
ENDBRANCH  22  23
ENDBRANCH  20  22
ENDBRANCH   1  20
TORSDOF 7
ENDMDL
MODEL 6
REMARK VINA RESULT:    -6.784      3.125      4.149
REMARK INTER + INTRA:         -10.754
REMARK INTER:                  -9.693
REMARK INTRA:                  -1.061
REMARK UNBOUND:                -1.193
REMARK  Name = 
REMARK  8 active torsions:
REMARK  status: ('A' for Active; 'I' for Inactive)
REMARK    1  A    between atoms: C_1  and  C_2
REMARK    2  A    between atoms: C_2  and  C_3
REMARK    3  A    between atoms: C_2  and  C_22
REMARK    4  A    between atoms: C_3  and  N_4
REMARK    5  A    between atoms: C_9  and  C_10
REMARK    6  A    between atoms: C_13  and  O_14
REMARK    7  A    between atoms: O_14  and  C_15
REMARK    8  A    between atoms: C_25  and  C_26
REMARK                            x       y       z     vdW  Elec       q    Type
REMARK                         _______ _______ _______ _____ _____    ______ ____
ROOT
ATOM      1  N   UNL     1      46.381   5.149  12.573  0.00  0.00    +0.000 N 
ATOM      2  C   UNL     1      46.975   5.066  13.826  0.00  0.00    +0.000 A 
ATOM      3  N   UNL     1      46.677   4.043  14.638  0.00  0.00    +0.000 NA
ATOM      4  C   UNL     1      47.245   4.042  15.851  0.00  0.00    +0.000 A 
ATOM      5  C   UNL     1      48.101   5.019  16.278  0.00  0.00    +0.000 A 
ATOM      6  C   UNL     1      48.378   6.029  15.376  0.00  0.00    +0.000 A 
ATOM      7  N   UNL     1      47.802   6.061  14.152  0.00  0.00    +0.000 NA
ATOM      8  H   UNL     1      46.443   6.125  12.300  0.00  0.00    +0.000 HD
ENDROOT
BRANCH   6   9
ATOM      9  C   UNL     1      49.305   7.134  15.685  0.00  0.00    +0.000 A 
ATOM     10  C   UNL     1      50.405   7.430  14.859  0.00  0.00    +0.000 A 
ATOM     11  C   UNL     1      51.295   8.467  15.165  0.00  0.00    +0.000 A 
ATOM     12  C   UNL     1      51.076   9.272  16.276  0.00  0.00    +0.000 A 
ATOM     13  C   UNL     1      50.006   8.982  17.122  0.00  0.00    +0.000 A 
ATOM     14  C   UNL     1      49.128   7.932  16.827  0.00  0.00    +0.000 A 
BRANCH  12  15
ATOM     15  O   UNL     1      51.847  10.324  16.663  0.00  0.00    +0.000 OA
BRANCH  15  16
ATOM     16  C   UNL     1      53.133  10.086  17.218  0.00  0.00    +0.000 C 
ATOM     17  F   UNL     1      53.270   8.891  17.831  0.00  0.00    +0.000 F 
ATOM     18  F   UNL     1      54.046  10.142  16.222  0.00  0.00    +0.000 F 
ATOM     19  F   UNL     1      53.420  11.062  18.107  0.00  0.00    +0.000 F 
ENDBRANCH  15  16
ENDBRANCH  12  15
ENDBRANCH   6   9
BRANCH   1  20
ATOM     20  C   UNL     1      45.041   4.579  12.533  0.00  0.00    +0.000 C 
BRANCH  20  22
ATOM     21  C   UNL     1      42.832   4.597  11.294  0.00  0.00    +0.000 C 
ATOM     22  C   UNL     1      44.344   4.841  11.182  0.00  0.00    +0.000 C 
BRANCH  22  23
ATOM     23  C   UNL     1      45.013   4.117  10.021  0.00  0.00    +0.000 A 
ATOM     24  C   UNL     1      45.703   4.859   9.043  0.00  0.00    +0.000 A 
ATOM     25  C   UNL     1      46.287   4.230   7.943  0.00  0.00    +0.000 A 
ATOM     26  C   UNL     1      46.219   2.840   7.802  0.00  0.00    +0.000 A 
ATOM     27  C   UNL     1      45.562   2.088   8.776  0.00  0.00    +0.000 A 
ATOM     28  C   UNL     1      44.968   2.722   9.875  0.00  0.00    +0.000 A 
BRANCH  26  29
ATOM     29  C   UNL     1      46.813   2.224   6.587  0.00  0.00    +0.000 C 
ATOM     30  N   UNL     1      46.976   3.017   5.485  0.00  0.00    +0.000 N 
ATOM     31  O   UNL     1      47.130   1.042   6.556  0.00  0.00    +0.000 OA
ATOM     32  H   UNL     1      46.580   3.942   5.398  0.00  0.00    +0.000 HD
ATOM     33  H   UNL     1      47.309   2.560   4.645  0.00  0.00    +0.000 HD
ENDBRANCH  26  29
ENDBRANCH  22  23
ENDBRANCH  20  22
ENDBRANCH   1  20
TORSDOF 7
ENDMDL
MODEL 7
REMARK VINA RESULT:    -6.657      2.773      3.602
REMARK INTER + INTRA:         -10.574
REMARK INTER:                  -9.640
REMARK INTRA:                  -0.934
REMARK UNBOUND:                -1.193
REMARK  Name = 
REMARK  8 active torsions:
REMARK  status: ('A' for Active; 'I' for Inactive)
REMARK    1  A    between atoms: C_1  and  C_2
REMARK    2  A    between atoms: C_2  and  C_3
REMARK    3  A    between atoms: C_2  and  C_22
REMARK    4  A    between atoms: C_3  and  N_4
REMARK    5  A    between atoms: C_9  and  C_10
REMARK    6  A    between atoms: C_13  and  O_14
REMARK    7  A    between atoms: O_14  and  C_15
REMARK    8  A    between atoms: C_25  and  C_26
REMARK                            x       y       z     vdW  Elec       q    Type
REMARK                         _______ _______ _______ _____ _____    ______ ____
ROOT
ATOM      1  N   UNL     1      46.413   4.959  12.906  0.00  0.00    +0.000 N 
ATOM      2  C   UNL     1      47.062   4.566  14.071  0.00  0.00    +0.000 A 
ATOM      3  N   UNL     1      47.118   3.268  14.398  0.00  0.00    +0.000 NA
ATOM      4  C   UNL     1      47.715   2.957  15.555  0.00  0.00    +0.000 A 
ATOM      5  C   UNL     1      48.262   3.890  16.392  0.00  0.00    +0.000 A 
ATOM      6  C   UNL     1      48.184   5.206  15.975  0.00  0.00    +0.000 A 
ATOM      7  N   UNL     1      47.570   5.547  14.819  0.00  0.00    +0.000 NA
ATOM      8  H   UNL     1      46.171   5.935  13.038  0.00  0.00    +0.000 HD
ENDROOT
BRANCH   6   9
ATOM      9  C   UNL     1      48.756   6.319  16.758  0.00  0.00    +0.000 A 
ATOM     10  C   UNL     1      49.957   6.947  16.384  0.00  0.00    +0.000 A 
ATOM     11  C   UNL     1      50.508   7.989  17.140  0.00  0.00    +0.000 A 
ATOM     12  C   UNL     1      49.840   8.470  18.259  0.00  0.00    +0.000 A 
ATOM     13  C   UNL     1      48.659   7.847  18.662  0.00  0.00    +0.000 A 
ATOM     14  C   UNL     1      48.120   6.791  17.918  0.00  0.00    +0.000 A 
BRANCH  12  15
ATOM     15  O   UNL     1      50.252   9.492  19.056  0.00  0.00    +0.000 OA
BRANCH  15  16
ATOM     16  C   UNL     1      49.905  10.829  18.720  0.00  0.00    +0.000 C 
ATOM     17  F   UNL     1      50.869  11.515  18.072  0.00  0.00    +0.000 F 
ATOM     18  F   UNL     1      48.816  10.801  17.920  0.00  0.00    +0.000 F 
ATOM     19  F   UNL     1      49.582  11.500  19.847  0.00  0.00    +0.000 F 
ENDBRANCH  15  16
ENDBRANCH  12  15
ENDBRANCH   6   9
BRANCH   1  20
ATOM     20  C   UNL     1      45.302   4.088  12.546  0.00  0.00    +0.000 C 
BRANCH  20  22
ATOM     21  C   UNL     1      43.047   4.405  11.436  0.00  0.00    +0.000 C 
ATOM     22  C   UNL     1      44.565   4.586  11.286  0.00  0.00    +0.000 C 
BRANCH  22  23
ATOM     23  C   UNL     1      45.142   4.014   9.997  0.00  0.00    +0.000 A 
ATOM     24  C   UNL     1      45.099   2.625   9.771  0.00  0.00    +0.000 A 
ATOM     25  C   UNL     1      45.660   2.066   8.623  0.00  0.00    +0.000 A 
ATOM     26  C   UNL     1      46.258   2.881   7.656  0.00  0.00    +0.000 A 
ATOM     27  C   UNL     1      46.285   4.262   7.853  0.00  0.00    +0.000 A 
ATOM     28  C   UNL     1      45.729   4.821   9.011  0.00  0.00    +0.000 A 
BRANCH  26  29
ATOM     29  C   UNL     1      46.885   2.233   6.476  0.00  0.00    +0.000 C 
ATOM     30  N   UNL     1      47.170   3.018   5.393  0.00  0.00    +0.000 N 
ATOM     31  O   UNL     1      47.125   1.032   6.454  0.00  0.00    +0.000 OA
ATOM     32  H   UNL     1      46.843   3.968   5.290  0.00  0.00    +0.000 HD
ATOM     33  H   UNL     1      47.525   2.545   4.572  0.00  0.00    +0.000 HD
ENDBRANCH  26  29
ENDBRANCH  22  23
ENDBRANCH  20  22
ENDBRANCH   1  20
TORSDOF 7
ENDMDL
MODEL 8
REMARK VINA RESULT:    -6.383      3.535      5.006
REMARK INTER + INTRA:         -10.188
REMARK INTER:                  -9.230
REMARK INTRA:                  -0.958
REMARK UNBOUND:                -1.193
REMARK  Name = 
REMARK  8 active torsions:
REMARK  status: ('A' for Active; 'I' for Inactive)
REMARK    1  A    between atoms: C_1  and  C_2
REMARK    2  A    between atoms: C_2  and  C_3
REMARK    3  A    between atoms: C_2  and  C_22
REMARK    4  A    between atoms: C_3  and  N_4
REMARK    5  A    between atoms: C_9  and  C_10
REMARK    6  A    between atoms: C_13  and  O_14
REMARK    7  A    between atoms: O_14  and  C_15
REMARK    8  A    between atoms: C_25  and  C_26
REMARK                            x       y       z     vdW  Elec       q    Type
REMARK                         _______ _______ _______ _____ _____    ______ ____
ROOT
ATOM      1  N   UNL     1      47.798   6.880  13.408  0.00  0.00    +0.000 N 
ATOM      2  C   UNL     1      48.410   7.218  14.609  0.00  0.00    +0.000 A 
ATOM      3  N   UNL     1      48.258   8.452  15.110  0.00  0.00    +0.000 NA
ATOM      4  C   UNL     1      48.910   8.732  16.246  0.00  0.00    +0.000 A 
ATOM      5  C   UNL     1      49.700   7.828  16.900  0.00  0.00    +0.000 A 
ATOM      6  C   UNL     1      49.790   6.570  16.333  0.00  0.00    +0.000 A 
ATOM      7  N   UNL     1      49.155   6.268  15.177  0.00  0.00    +0.000 NA
ATOM      8  H   UNL     1      48.317   6.088  13.045  0.00  0.00    +0.000 HD
ENDROOT
BRANCH   6   9
ATOM      9  C   UNL     1      50.580   5.483  16.941  0.00  0.00    +0.000 A 
ATOM     10  C   UNL     1      49.986   4.279  17.359  0.00  0.00    +0.000 A 
ATOM     11  C   UNL     1      50.735   3.256  17.954  0.00  0.00    +0.000 A 
ATOM     12  C   UNL     1      52.111   3.388  18.093  0.00  0.00    +0.000 A 
ATOM     13  C   UNL     1      52.719   4.582  17.707  0.00  0.00    +0.000 A 
ATOM     14  C   UNL     1      51.966   5.613  17.132  0.00  0.00    +0.000 A 
BRANCH  12  15
ATOM     15  O   UNL     1      52.951   2.460  18.625  0.00  0.00    +0.000 OA
BRANCH  15  16
ATOM     16  C   UNL     1      53.342   1.338  17.844  0.00  0.00    +0.000 C 
ATOM     17  F   UNL     1      52.350   0.786  17.114  0.00  0.00    +0.000 F 
ATOM     18  F   UNL     1      54.311   1.729  16.987  0.00  0.00    +0.000 F 
ATOM     19  F   UNL     1      53.857   0.390  18.658  0.00  0.00    +0.000 F 
ENDBRANCH  15  16
ENDBRANCH  12  15
ENDBRANCH   6   9
BRANCH   1  20
ATOM     20  C   UNL     1      47.665   8.006  12.494  0.00  0.00    +0.000 C 
BRANCH  20  22
ATOM     21  C   UNL     1      45.368   9.020  12.829  0.00  0.00    +0.000 C 
ATOM     22  C   UNL     1      46.235   8.125  11.930  0.00  0.00    +0.000 C 
BRANCH  22  23
ATOM     23  C   UNL     1      45.613   6.773  11.603  0.00  0.00    +0.000 A 
ATOM     24  C   UNL     1      44.667   6.210  12.480  0.00  0.00    +0.000 A 
ATOM     25  C   UNL     1      44.115   4.953  12.232  0.00  0.00    +0.000 A 
ATOM     26  C   UNL     1      44.474   4.234  11.088  0.00  0.00    +0.000 A 
ATOM     27  C   UNL     1      45.391   4.790  10.194  0.00  0.00    +0.000 A 
ATOM     28  C   UNL     1      45.951   6.048  10.449  0.00  0.00    +0.000 A 
BRANCH  26  29
ATOM     29  C   UNL     1      43.896   2.879  10.895  0.00  0.00    +0.000 C 
ATOM     30  N   UNL     1      44.430   2.092   9.912  0.00  0.00    +0.000 N 
ATOM     31  O   UNL     1      42.960   2.477  11.574  0.00  0.00    +0.000 OA
ATOM     32  H   UNL     1      45.080   2.429   9.217  0.00  0.00    +0.000 HD
ATOM     33  H   UNL     1      43.973   1.204   9.746  0.00  0.00    +0.000 HD
ENDBRANCH  26  29
ENDBRANCH  22  23
ENDBRANCH  20  22
ENDBRANCH   1  20
TORSDOF 7
ENDMDL
MODEL 9
REMARK VINA RESULT:    -6.141      6.585      8.630
REMARK INTER + INTRA:          -9.847
REMARK INTER:                  -8.824
REMARK INTRA:                  -1.023
REMARK UNBOUND:                -1.193
REMARK  Name = 
REMARK  8 active torsions:
REMARK  status: ('A' for Active; 'I' for Inactive)
REMARK    1  A    between atoms: C_1  and  C_2
REMARK    2  A    between atoms: C_2  and  C_3
REMARK    3  A    between atoms: C_2  and  C_22
REMARK    4  A    between atoms: C_3  and  N_4
REMARK    5  A    between atoms: C_9  and  C_10
REMARK    6  A    between atoms: C_13  and  O_14
REMARK    7  A    between atoms: O_14  and  C_15
REMARK    8  A    between atoms: C_25  and  C_26
REMARK                            x       y       z     vdW  Elec       q    Type
REMARK                         _______ _______ _______ _____ _____    ______ ____
ROOT
ATOM      1  N   UNL     1      49.325   7.042  12.945  0.00  0.00    +0.000 N 
ATOM      2  C   UNL     1      50.189   7.821  12.185  0.00  0.00    +0.000 A 
ATOM      3  N   UNL     1      50.253   9.143  12.395  0.00  0.00    +0.000 NA
ATOM      4  C   UNL     1      51.069   9.846  11.599  0.00  0.00    +0.000 A 
ATOM      5  C   UNL     1      51.824   9.280  10.610  0.00  0.00    +0.000 A 
ATOM      6  C   UNL     1      51.721   7.908  10.470  0.00  0.00    +0.000 A 
ATOM      7  N   UNL     1      50.890   7.178  11.249  0.00  0.00    +0.000 NA
ATOM      8  H   UNL     1      49.162   6.198  12.405  0.00  0.00    +0.000 HD
ENDROOT
BRANCH   6   9
ATOM      9  C   UNL     1      52.497   7.155   9.467  0.00  0.00    +0.000 A 
ATOM     10  C   UNL     1      52.405   7.439   8.093  0.00  0.00    +0.000 A 
ATOM     11  C   UNL     1      53.128   6.710   7.141  0.00  0.00    +0.000 A 
ATOM     12  C   UNL     1      54.008   5.714   7.544  0.00  0.00    +0.000 A 
ATOM     13  C   UNL     1      54.097   5.398   8.899  0.00  0.00    +0.000 A 
ATOM     14  C   UNL     1      53.359   6.113   9.849  0.00  0.00    +0.000 A 
BRANCH  12  15
ATOM     15  O   UNL     1      54.786   4.957   6.724  0.00  0.00    +0.000 OA
BRANCH  15  16
ATOM     16  C   UNL     1      54.396   3.625   6.418  0.00  0.00    +0.000 C 
ATOM     17  F   UNL     1      55.085   2.670   7.079  0.00  0.00    +0.000 F 
ATOM     18  F   UNL     1      53.090   3.478   6.734  0.00  0.00    +0.000 F 
ATOM     19  F   UNL     1      54.535   3.416   5.091  0.00  0.00    +0.000 F 
ENDBRANCH  15  16
ENDBRANCH  12  15
ENDBRANCH   6   9
BRANCH   1  20
ATOM     20  C   UNL     1      48.123   7.754  13.360  0.00  0.00    +0.000 C 
BRANCH  20  22
ATOM     21  C   UNL     1      46.205   9.113  12.418  0.00  0.00    +0.000 C 
ATOM     22  C   UNL     1      47.106   7.887  12.209  0.00  0.00    +0.000 C 
BRANCH  22  23
ATOM     23  C   UNL     1      46.353   6.592  11.931  0.00  0.00    +0.000 A 
ATOM     24  C   UNL     1      46.011   6.255  10.608  0.00  0.00    +0.000 A 
ATOM     25  C   UNL     1      45.281   5.101  10.326  0.00  0.00    +0.000 A 
ATOM     26  C   UNL     1      44.894   4.237  11.355  0.00  0.00    +0.000 A 
ATOM     27  C   UNL     1      45.248   4.543  12.670  0.00  0.00    +0.000 A 
ATOM     28  C   UNL     1      45.973   5.708  12.952  0.00  0.00    +0.000 A 
BRANCH  26  29
ATOM     29  C   UNL     1      44.074   3.047  11.009  0.00  0.00    +0.000 C 
ATOM     30  N   UNL     1      44.560   2.195  10.056  0.00  0.00    +0.000 N 
ATOM     31  O   UNL     1      42.990   2.838  11.536  0.00  0.00    +0.000 OA
ATOM     32  H   UNL     1      45.357   2.404   9.471  0.00  0.00    +0.000 HD
ATOM     33  H   UNL     1      43.953   1.434   9.779  0.00  0.00    +0.000 HD
ENDBRANCH  26  29
ENDBRANCH  22  23
ENDBRANCH  20  22
ENDBRANCH   1  20
TORSDOF 7
ENDMDL
