MODEL 1
REMARK VINA RESULT:    -7.979      0.000      0.000
REMARK INTER + INTRA:         -11.142
REMARK INTER:                 -10.778
REMARK INTRA:                  -0.364
REMARK UNBOUND:                -0.364
REMARK  Name = 
REMARK  7 active torsions:
REMARK  status: ('A' for Active; 'I' for Inactive)
REMARK    1  A    between atoms: C_1  and  O_2
REMARK    2  A    between atoms: O_2  and  C_3
REMARK    3  A    between atoms: C_5  and  C_6
REMARK    4  A    between atoms: C_11  and  O_12
REMARK    5  A    between atoms: O_12  and  C_13
REMARK    6  A    between atoms: C_13  and  C_14
REMARK    7  A    between atoms: C_19  and  C_20
REMARK                            x       y       z     vdW  Elec       q    Type
REMARK                         _______ _______ _______ _____ _____    ______ ____
ROOT
ATOM      1  O   UNL     1      44.027   5.499  10.272  0.00  0.00    +0.000 OA
ENDROOT
BRANCH   1   7
ATOM      2  C   UNL     1      44.278   3.028   9.942  0.00  0.00    +0.000 A 
ATOM      3  C   UNL     1      44.970   2.034   9.235  0.00  0.00    +0.000 A 
ATOM      4  C   UNL     1      45.953   2.349   8.290  0.00  0.00    +0.000 A 
ATOM      5  C   UNL     1      46.242   3.691   8.039  0.00  0.00    +0.000 A 
ATOM      6  C   UNL     1      45.557   4.692   8.737  0.00  0.00    +0.000 A 
ATOM      7  C   UNL     1      44.576   4.379   9.690  0.00  0.00    +0.000 A 
BRANCH   4   8
ATOM      8  C   UNL     1      46.624   1.206   7.602  0.00  0.00    +0.000 C 
ATOM      9  N   UNL     1      47.355   1.452   6.476  0.00  0.00    +0.000 N 
ATOM     10  O   UNL     1      46.532   0.060   8.029  0.00  0.00    +0.000 OA
ATOM     11  H   UNL     1      47.484   2.353   6.046  0.00  0.00    +0.000 HD
ATOM     12  H   UNL     1      47.794   0.650   6.041  0.00  0.00    +0.000 HD
ENDBRANCH   4   8
BRANCH   2  14
ATOM     13  C   UNL     1      43.661   2.413  12.164  0.00  0.00    +0.000 C 
ATOM     14  O   UNL     1      43.279   2.718  10.827  0.00  0.00    +0.000 OA
ENDBRANCH   2  14
ENDBRANCH   1   7
BRANCH   1  15
ATOM     15  C   UNL     1      44.066   5.585  11.696  0.00  0.00    +0.000 C 
BRANCH  15  16
ATOM     16  C   UNL     1      45.476   5.788  12.212  0.00  0.00    +0.000 A 
ATOM     17  C   UNL     1      46.313   6.707  11.565  0.00  0.00    +0.000 A 
ATOM     18  C   UNL     1      47.574   6.989  12.077  0.00  0.00    +0.000 A 
ATOM     19  C   UNL     1      47.995   6.376  13.254  0.00  0.00    +0.000 A 
ATOM     20  F   UNL     1      49.219   6.691  13.707  0.00  0.00    +0.000 F 
ATOM     21  C   UNL     1      47.181   5.474  13.961  0.00  0.00    +0.000 A 
ATOM     22  C   UNL     1      45.919   5.182  13.401  0.00  0.00    +0.000 A 
BRANCH  21  23
ATOM     23  C   UNL     1      47.589   4.898  15.259  0.00  0.00    +0.000 A 
ATOM     24  C   UNL     1      48.320   5.626  16.210  0.00  0.00    +0.000 A 
ATOM     25  C   UNL     1      48.723   5.034  17.407  0.00  0.00    +0.000 A 
ATOM     26  C   UNL     1      48.380   3.714  17.636  0.00  0.00    +0.000 A 
ATOM     27  N   UNL     1      47.682   2.965  16.760  0.00  0.00    +0.000 NA
ATOM     28  C   UNL     1      47.307   3.572  15.606  0.00  0.00    +0.000 A 
ENDBRANCH  21  23
ENDBRANCH  15  16
ENDBRANCH   1  15
TORSDOF 6
ENDMDL
MODEL 2
REMARK VINA RESULT:    -7.925      3.325      7.504
REMARK INTER + INTRA:         -11.069
REMARK INTER:                 -10.165
REMARK INTRA:                  -0.904
REMARK UNBOUND:                -0.364
REMARK  Name = 
REMARK  7 active torsions:
REMARK  status: ('A' for Active; 'I' for Inactive)
REMARK    1  A    between atoms: C_1  and  O_2
REMARK    2  A    between atoms: O_2  and  C_3
REMARK    3  A    between atoms: C_5  and  C_6
REMARK    4  A    between atoms: C_11  and  O_12
REMARK    5  A    between atoms: O_12  and  C_13
REMARK    6  A    between atoms: C_13  and  C_14
REMARK    7  A    between atoms: C_19  and  C_20
REMARK                            x       y       z     vdW  Elec       q    Type
REMARK                         _______ _______ _______ _____ _____    ______ ____
ROOT
ATOM      1  O   UNL     1      45.068   6.420  12.387  0.00  0.00    +0.000 OA
ENDROOT
BRANCH   1   7
ATOM      2  C   UNL     1      47.239   6.136  13.605  0.00  0.00    +0.000 A 
ATOM      3  C   UNL     1      48.536   6.646  13.765  0.00  0.00    +0.000 A 
ATOM      4  C   UNL     1      48.987   7.755  13.040  0.00  0.00    +0.000 A 
ATOM      5  C   UNL     1      48.123   8.361  12.126  0.00  0.00    +0.000 A 
ATOM      6  C   UNL     1      46.827   7.860  11.957  0.00  0.00    +0.000 A 
ATOM      7  C   UNL     1      46.370   6.752  12.687  0.00  0.00    +0.000 A 
BRANCH   4   8
ATOM      8  C   UNL     1      50.386   8.210  13.296  0.00  0.00    +0.000 C 
ATOM      9  N   UNL     1      51.374   7.815  12.441  0.00  0.00    +0.000 N 
ATOM     10  O   UNL     1      50.660   8.927  14.253  0.00  0.00    +0.000 OA
ATOM     11  H   UNL     1      51.251   7.224  11.636  0.00  0.00    +0.000 HD
ATOM     12  H   UNL     1      52.307   8.146  12.650  0.00  0.00    +0.000 HD
ENDBRANCH   4   8
BRANCH   2  14
ATOM     13  C   UNL     1      46.819   3.787  13.562  0.00  0.00    +0.000 C 
ATOM     14  O   UNL     1      46.818   5.019  14.276  0.00  0.00    +0.000 OA
ENDBRANCH   2  14
ENDBRANCH   1   7
BRANCH   1  15
ATOM     15  C   UNL     1      44.716   6.325  11.009  0.00  0.00    +0.000 C 
BRANCH  15  16
ATOM     16  C   UNL     1      44.749   4.893  10.513  0.00  0.00    +0.000 A 
ATOM     17  C   UNL     1      43.845   3.965  11.048  0.00  0.00    +0.000 A 
ATOM     18  C   UNL     1      43.784   2.673  10.541  0.00  0.00    +0.000 A 
ATOM     19  C   UNL     1      44.606   2.307   9.478  0.00  0.00    +0.000 A 
ATOM     20  F   UNL     1      44.499   1.049   9.024  0.00  0.00    +0.000 F 
ATOM     21  C   UNL     1      45.505   3.209   8.883  0.00  0.00    +0.000 A 
ATOM     22  C   UNL     1      45.569   4.504   9.439  0.00  0.00    +0.000 A 
BRANCH  21  23
ATOM     23  C   UNL     1      46.307   2.850   7.695  0.00  0.00    +0.000 A 
ATOM     24  C   UNL     1      46.263   3.592   6.505  0.00  0.00    +0.000 A 
ATOM     25  C   UNL     1      47.003   3.197   5.391  0.00  0.00    +0.000 A 
ATOM     26  C   UNL     1      47.785   2.060   5.489  0.00  0.00    +0.000 A 
ATOM     27  N   UNL     1      47.865   1.308   6.603  0.00  0.00    +0.000 NA
ATOM     28  C   UNL     1      47.131   1.719   7.667  0.00  0.00    +0.000 A 
ENDBRANCH  21  23
ENDBRANCH  15  16
ENDBRANCH   1  15
TORSDOF 6
ENDMDL
MODEL 3
REMARK VINA RESULT:    -7.919      2.333      3.634
REMARK INTER + INTRA:         -11.060
REMARK INTER:                 -10.304
REMARK INTRA:                  -0.756
REMARK UNBOUND:                -0.364
REMARK  Name = 
REMARK  7 active torsions:
REMARK  status: ('A' for Active; 'I' for Inactive)
REMARK    1  A    between atoms: C_1  and  O_2
REMARK    2  A    between atoms: O_2  and  C_3
REMARK    3  A    between atoms: C_5  and  C_6
REMARK    4  A    between atoms: C_11  and  O_12
REMARK    5  A    between atoms: O_12  and  C_13
REMARK    6  A    between atoms: C_13  and  C_14
REMARK    7  A    between atoms: C_19  and  C_20
REMARK                            x       y       z     vdW  Elec       q    Type
REMARK                         _______ _______ _______ _____ _____    ______ ____
ROOT
ATOM      1  O   UNL     1      43.662   5.404  10.231  0.00  0.00    +0.000 OA
ENDROOT
BRANCH   1   7
ATOM      2  C   UNL     1      44.164   2.963   9.971  0.00  0.00    +0.000 A 
ATOM      3  C   UNL     1      44.975   2.026   9.315  0.00  0.00    +0.000 A 
ATOM      4  C   UNL     1      45.959   2.415   8.399  0.00  0.00    +0.000 A 
ATOM      5  C   UNL     1      46.126   3.774   8.124  0.00  0.00    +0.000 A 
ATOM      6  C   UNL     1      45.321   4.718   8.773  0.00  0.00    +0.000 A 
ATOM      7  C   UNL     1      44.339   4.331   9.697  0.00  0.00    +0.000 A 
BRANCH   4   8
ATOM      8  C   UNL     1      46.763   1.329   7.764  0.00  0.00    +0.000 C 
ATOM      9  N   UNL     1      47.836   1.669   6.991  0.00  0.00    +0.000 N 
ATOM     10  O   UNL     1      46.480   0.147   7.925  0.00  0.00    +0.000 OA
ATOM     11  H   UNL     1      48.143   2.607   6.794  0.00  0.00    +0.000 HD
ATOM     12  H   UNL     1      48.355   0.903   6.581  0.00  0.00    +0.000 HD
ENDBRANCH   4   8
BRANCH   2  14
ATOM     13  C   UNL     1      43.556   2.012  12.074  0.00  0.00    +0.000 C 
ATOM     14  O   UNL     1      43.166   2.576  10.826  0.00  0.00    +0.000 OA
ENDBRANCH   2  14
ENDBRANCH   1   7
BRANCH   1  15
ATOM     15  C   UNL     1      43.510   5.445  11.648  0.00  0.00    +0.000 C 
BRANCH  15  16
ATOM     16  C   UNL     1      44.822   5.728  12.351  0.00  0.00    +0.000 A 
ATOM     17  C   UNL     1      45.308   4.802  13.284  0.00  0.00    +0.000 A 
ATOM     18  C   UNL     1      46.557   4.983  13.868  0.00  0.00    +0.000 A 
ATOM     19  C   UNL     1      47.339   6.076  13.502  0.00  0.00    +0.000 A 
ATOM     20  F   UNL     1      48.539   6.197  14.091  0.00  0.00    +0.000 F 
ATOM     21  C   UNL     1      46.913   7.014  12.546  0.00  0.00    +0.000 A 
ATOM     22  C   UNL     1      45.629   6.822  11.994  0.00  0.00    +0.000 A 
BRANCH  21  23
ATOM     23  C   UNL     1      47.781   8.118  12.087  0.00  0.00    +0.000 A 
ATOM     24  C   UNL     1      49.087   7.906  11.621  0.00  0.00    +0.000 A 
ATOM     25  C   UNL     1      49.891   8.979  11.236  0.00  0.00    +0.000 A 
ATOM     26  C   UNL     1      49.368  10.257  11.320  0.00  0.00    +0.000 A 
ATOM     27  N   UNL     1      48.123  10.521  11.762  0.00  0.00    +0.000 NA
ATOM     28  C   UNL     1      47.369   9.455  12.129  0.00  0.00    +0.000 A 
ENDBRANCH  21  23
ENDBRANCH  15  16
ENDBRANCH   1  15
TORSDOF 6
ENDMDL
MODEL 4
REMARK VINA RESULT:    -7.556      2.886      7.630
REMARK INTER + INTRA:         -10.570
REMARK INTER:                 -10.609
REMARK INTRA:                   0.039
REMARK UNBOUND:                -0.364
REMARK  Name = 
REMARK  7 active torsions:
REMARK  status: ('A' for Active; 'I' for Inactive)
REMARK    1  A    between atoms: C_1  and  O_2
REMARK    2  A    between atoms: O_2  and  C_3
REMARK    3  A    between atoms: C_5  and  C_6
REMARK    4  A    between atoms: C_11  and  O_12
REMARK    5  A    between atoms: O_12  and  C_13
REMARK    6  A    between atoms: C_13  and  C_14
REMARK    7  A    between atoms: C_19  and  C_20
REMARK                            x       y       z     vdW  Elec       q    Type
REMARK                         _______ _______ _______ _____ _____    ______ ____
ROOT
ATOM      1  O   UNL     1      46.046   6.785  11.304  0.00  0.00    +0.000 OA
ENDROOT
BRANCH   1   7
ATOM      2  C   UNL     1      47.741   6.752  13.149  0.00  0.00    +0.000 A 
ATOM      3  C   UNL     1      48.115   6.126  14.347  0.00  0.00    +0.000 A 
ATOM      4  C   UNL     1      47.368   5.077  14.896  0.00  0.00    +0.000 A 
ATOM      5  C   UNL     1      46.213   4.652  14.235  0.00  0.00    +0.000 A 
ATOM      6  C   UNL     1      45.830   5.271  13.039  0.00  0.00    +0.000 A 
ATOM      7  C   UNL     1      46.580   6.318  12.483  0.00  0.00    +0.000 A 
BRANCH   4   8
ATOM      8  C   UNL     1      47.865   4.486  16.174  0.00  0.00    +0.000 C 
ATOM      9  N   UNL     1      47.107   3.540  16.801  0.00  0.00    +0.000 N 
ATOM     10  O   UNL     1      48.934   4.833  16.665  0.00  0.00    +0.000 OA
ATOM     11  H   UNL     1      46.217   3.196  16.482  0.00  0.00    +0.000 HD
ATOM     12  H   UNL     1      47.480   3.165  17.663  0.00  0.00    +0.000 HD
ENDBRANCH   4   8
BRANCH   2  14
ATOM     13  C   UNL     1      49.797   7.583  12.267  0.00  0.00    +0.000 C 
ATOM     14  O   UNL     1      48.443   7.813  12.642  0.00  0.00    +0.000 OA
ENDBRANCH   2  14
ENDBRANCH   1   7
BRANCH   1  15
ATOM     15  C   UNL     1      44.742   6.330  10.948  0.00  0.00    +0.000 C 
BRANCH  15  16
ATOM     16  C   UNL     1      44.756   4.898  10.452  0.00  0.00    +0.000 A 
ATOM     17  C   UNL     1      43.832   3.986  10.978  0.00  0.00    +0.000 A 
ATOM     18  C   UNL     1      43.753   2.695  10.470  0.00  0.00    +0.000 A 
ATOM     19  C   UNL     1      44.579   2.316   9.415  0.00  0.00    +0.000 A 
ATOM     20  F   UNL     1      44.455   1.059   8.959  0.00  0.00    +0.000 F 
ATOM     21  C   UNL     1      45.499   3.202   8.829  0.00  0.00    +0.000 A 
ATOM     22  C   UNL     1      45.579   4.496   9.386  0.00  0.00    +0.000 A 
BRANCH  21  23
ATOM     23  C   UNL     1      46.306   2.830   7.648  0.00  0.00    +0.000 A 
ATOM     24  C   UNL     1      46.305   3.587   6.467  0.00  0.00    +0.000 A 
ATOM     25  C   UNL     1      47.048   3.179   5.358  0.00  0.00    +0.000 A 
ATOM     26  C   UNL     1      47.790   2.017   5.455  0.00  0.00    +0.000 A 
ATOM     27  N   UNL     1      47.828   1.249   6.561  0.00  0.00    +0.000 NA
ATOM     28  C   UNL     1      47.092   1.673   7.619  0.00  0.00    +0.000 A 
ENDBRANCH  21  23
ENDBRANCH  15  16
ENDBRANCH   1  15
TORSDOF 6
ENDMDL
MODEL 5
REMARK VINA RESULT:    -7.492      3.581      7.694
REMARK INTER + INTRA:         -10.484
REMARK INTER:                  -9.804
REMARK INTRA:                  -0.680
REMARK UNBOUND:                -0.364
REMARK  Name = 
REMARK  7 active torsions:
REMARK  status: ('A' for Active; 'I' for Inactive)
REMARK    1  A    between atoms: C_1  and  O_2
REMARK    2  A    between atoms: O_2  and  C_3
REMARK    3  A    between atoms: C_5  and  C_6
REMARK    4  A    between atoms: C_11  and  O_12
REMARK    5  A    between atoms: O_12  and  C_13
REMARK    6  A    between atoms: C_13  and  C_14
REMARK    7  A    between atoms: C_19  and  C_20
REMARK                            x       y       z     vdW  Elec       q    Type
REMARK                         _______ _______ _______ _____ _____    ______ ____
ROOT
ATOM      1  O   UNL     1      45.218   6.916  12.360  0.00  0.00    +0.000 OA
ENDROOT
BRANCH   1   7
ATOM      2  C   UNL     1      46.946   8.726  12.228  0.00  0.00    +0.000 A 
ATOM      3  C   UNL     1      48.315   9.008  12.334  0.00  0.00    +0.000 A 
ATOM      4  C   UNL     1      49.255   8.012  12.625  0.00  0.00    +0.000 A 
ATOM      5  C   UNL     1      48.810   6.704  12.826  0.00  0.00    +0.000 A 
ATOM      6  C   UNL     1      47.445   6.410  12.725  0.00  0.00    +0.000 A 
ATOM      7  C   UNL     1      46.503   7.405  12.426  0.00  0.00    +0.000 A 
BRANCH   4   8
ATOM      8  C   UNL     1      50.685   8.431  12.709  0.00  0.00    +0.000 C 
ATOM      9  N   UNL     1      51.482   7.868  13.664  0.00  0.00    +0.000 N 
ATOM     10  O   UNL     1      51.153   9.266  11.942  0.00  0.00    +0.000 OA
ATOM     11  H   UNL     1      51.190   7.183  14.341  0.00  0.00    +0.000 HD
ATOM     12  H   UNL     1      52.444   8.179  13.686  0.00  0.00    +0.000 HD
ENDBRANCH   4   8
BRANCH   2  14
ATOM     13  C   UNL     1      46.514  11.034  11.805  0.00  0.00    +0.000 C 
ATOM     14  O   UNL     1      46.024   9.711  11.996  0.00  0.00    +0.000 OA
ENDBRANCH   2  14
ENDBRANCH   1   7
BRANCH   1  15
ATOM     15  C   UNL     1      44.658   6.711  11.065  0.00  0.00    +0.000 C 
BRANCH  15  16
ATOM     16  C   UNL     1      44.619   5.243  10.690  0.00  0.00    +0.000 A 
ATOM     17  C   UNL     1      43.683   4.406  11.312  0.00  0.00    +0.000 A 
ATOM     18  C   UNL     1      43.555   3.080  10.915  0.00  0.00    +0.000 A 
ATOM     19  C   UNL     1      44.342   2.590   9.876  0.00  0.00    +0.000 A 
ATOM     20  F   UNL     1      44.171   1.305   9.529  0.00  0.00    +0.000 F 
ATOM     21  C   UNL     1      45.271   3.397   9.196  0.00  0.00    +0.000 A 
ATOM     22  C   UNL     1      45.402   4.729   9.642  0.00  0.00    +0.000 A 
BRANCH  21  23
ATOM     23  C   UNL     1      46.036   2.905   8.032  0.00  0.00    +0.000 A 
ATOM     24  C   UNL     1      46.254   3.688   6.889  0.00  0.00    +0.000 A 
ATOM     25  C   UNL     1      46.946   3.172   5.793  0.00  0.00    +0.000 A 
ATOM     26  C   UNL     1      47.417   1.873   5.863  0.00  0.00    +0.000 A 
ATOM     27  N   UNL     1      47.236   1.075   6.932  0.00  0.00    +0.000 NA
ATOM     28  C   UNL     1      46.557   1.607   7.980  0.00  0.00    +0.000 A 
ENDBRANCH  21  23
ENDBRANCH  15  16
ENDBRANCH   1  15
TORSDOF 6
ENDMDL
MODEL 6
REMARK VINA RESULT:    -7.296      3.192      7.864
REMARK INTER + INTRA:         -10.219
REMARK INTER:                  -9.369
REMARK INTRA:                  -0.850
REMARK UNBOUND:                -0.364
REMARK  Name = 
REMARK  7 active torsions:
REMARK  status: ('A' for Active; 'I' for Inactive)
REMARK    1  A    between atoms: C_1  and  O_2
REMARK    2  A    between atoms: O_2  and  C_3
REMARK    3  A    between atoms: C_5  and  C_6
REMARK    4  A    between atoms: C_11  and  O_12
REMARK    5  A    between atoms: O_12  and  C_13
REMARK    6  A    between atoms: C_13  and  C_14
REMARK    7  A    between atoms: C_19  and  C_20
REMARK                            x       y       z     vdW  Elec       q    Type
REMARK                         _______ _______ _______ _____ _____    ______ ____
ROOT
ATOM      1  O   UNL     1      46.611   7.085  11.409  0.00  0.00    +0.000 OA
ENDROOT
BRANCH   1   7
ATOM      2  C   UNL     1      47.730   6.263  13.495  0.00  0.00    +0.000 A 
ATOM      3  C   UNL     1      48.282   6.650  14.724  0.00  0.00    +0.000 A 
ATOM      4  C   UNL     1      48.315   7.989  15.130  0.00  0.00    +0.000 A 
ATOM      5  C   UNL     1      47.793   8.965  14.279  0.00  0.00    +0.000 A 
ATOM      6  C   UNL     1      47.240   8.590  13.048  0.00  0.00    +0.000 A 
ATOM      7  C   UNL     1      47.200   7.248  12.642  0.00  0.00    +0.000 A 
BRANCH   4   8
ATOM      8  C   UNL     1      48.925   8.280  16.461  0.00  0.00    +0.000 C 
ATOM      9  N   UNL     1      48.258   7.899  17.590  0.00  0.00    +0.000 N 
ATOM     10  O   UNL     1      50.006   8.850  16.558  0.00  0.00    +0.000 OA
ATOM     11  H   UNL     1      47.365   7.434  17.614  0.00  0.00    +0.000 HD
ATOM     12  H   UNL     1      48.706   8.114  18.471  0.00  0.00    +0.000 HD
ENDBRANCH   4   8
BRANCH   2  14
ATOM     13  C   UNL     1      46.958   4.026  13.808  0.00  0.00    +0.000 C 
ATOM     14  O   UNL     1      47.748   4.958  13.077  0.00  0.00    +0.000 OA
ENDBRANCH   2  14
ENDBRANCH   1   7
BRANCH   1  15
ATOM     15  C   UNL     1      45.213   6.801  11.381  0.00  0.00    +0.000 C 
BRANCH  15  16
ATOM     16  C   UNL     1      44.933   5.376  10.949  0.00  0.00    +0.000 A 
ATOM     17  C   UNL     1      43.858   4.688  11.528  0.00  0.00    +0.000 A 
ATOM     18  C   UNL     1      43.514   3.418  11.078  0.00  0.00    +0.000 A 
ATOM     19  C   UNL     1      44.225   2.840  10.030  0.00  0.00    +0.000 A 
ATOM     20  F   UNL     1      43.844   1.616   9.632  0.00  0.00    +0.000 F 
ATOM     21  C   UNL     1      45.288   3.502   9.392  0.00  0.00    +0.000 A 
ATOM     22  C   UNL     1      45.636   4.775   9.890  0.00  0.00    +0.000 A 
BRANCH  21  23
ATOM     23  C   UNL     1      45.980   2.929   8.219  0.00  0.00    +0.000 A 
ATOM     24  C   UNL     1      46.238   3.675   7.059  0.00  0.00    +0.000 A 
ATOM     25  C   UNL     1      46.855   3.086   5.955  0.00  0.00    +0.000 A 
ATOM     26  C   UNL     1      47.212   1.752   6.034  0.00  0.00    +0.000 A 
ATOM     27  N   UNL     1      46.988   0.987   7.119  0.00  0.00    +0.000 NA
ATOM     28  C   UNL     1      46.384   1.590   8.174  0.00  0.00    +0.000 A 
ENDBRANCH  21  23
ENDBRANCH  15  16
ENDBRANCH   1  15
TORSDOF 6
ENDMDL
MODEL 7
REMARK VINA RESULT:    -7.285      3.759      8.231
REMARK INTER + INTRA:         -10.204
REMARK INTER:                  -9.161
REMARK INTRA:                  -1.043
REMARK UNBOUND:                -0.364
REMARK  Name = 
REMARK  7 active torsions:
REMARK  status: ('A' for Active; 'I' for Inactive)
REMARK    1  A    between atoms: C_1  and  O_2
REMARK    2  A    between atoms: O_2  and  C_3
REMARK    3  A    between atoms: C_5  and  C_6
REMARK    4  A    between atoms: C_11  and  O_12
REMARK    5  A    between atoms: O_12  and  C_13
REMARK    6  A    between atoms: C_13  and  C_14
REMARK    7  A    between atoms: C_19  and  C_20
REMARK                            x       y       z     vdW  Elec       q    Type
REMARK                         _______ _______ _______ _____ _____    ______ ____
ROOT
ATOM      1  O   UNL     1      49.002   6.165  14.709  0.00  0.00    +0.000 OA
ENDROOT
BRANCH   1   7
ATOM      2  C   UNL     1      48.072   5.071  16.762  0.00  0.00    +0.000 A 
ATOM      3  C   UNL     1      47.737   5.266  18.109  0.00  0.00    +0.000 A 
ATOM      4  C   UNL     1      47.923   6.500  18.745  0.00  0.00    +0.000 A 
ATOM      5  C   UNL     1      48.468   7.559  18.016  0.00  0.00    +0.000 A 
ATOM      6  C   UNL     1      48.808   7.374  16.671  0.00  0.00    +0.000 A 
ATOM      7  C   UNL     1      48.616   6.141  16.030  0.00  0.00    +0.000 A 
BRANCH   4   8
ATOM      8  C   UNL     1      47.526   6.590  20.181  0.00  0.00    +0.000 C 
ATOM      9  N   UNL     1      47.084   5.465  20.815  0.00  0.00    +0.000 N 
ATOM     10  O   UNL     1      47.591   7.648  20.797  0.00  0.00    +0.000 OA
ATOM     11  H   UNL     1      46.988   4.555  20.395  0.00  0.00    +0.000 HD
ATOM     12  H   UNL     1      46.826   5.569  21.788  0.00  0.00    +0.000 HD
ENDBRANCH   4   8
BRANCH   2  14
ATOM     13  C   UNL     1      48.630   2.750  16.743  0.00  0.00    +0.000 C 
ATOM     14  O   UNL     1      47.938   3.849  16.158  0.00  0.00    +0.000 OA
ENDBRANCH   2  14
ENDBRANCH   1   7
BRANCH   1  15
ATOM     15  C   UNL     1      48.774   7.369  13.979  0.00  0.00    +0.000 C 
BRANCH  15  16
ATOM     16  C   UNL     1      47.418   7.373  13.302  0.00  0.00    +0.000 A 
ATOM     17  C   UNL     1      46.637   8.536  13.349  0.00  0.00    +0.000 A 
ATOM     18  C   UNL     1      45.436   8.603  12.651  0.00  0.00    +0.000 A 
ATOM     19  C   UNL     1      45.022   7.519  11.881  0.00  0.00    +0.000 A 
ATOM     20  F   UNL     1      43.859   7.642  11.223  0.00  0.00    +0.000 F 
ATOM     21  C   UNL     1      45.785   6.343  11.773  0.00  0.00    +0.000 A 
ATOM     22  C   UNL     1      46.983   6.291  12.517  0.00  0.00    +0.000 A 
BRANCH  21  23
ATOM     23  C   UNL     1      45.394   5.232  10.881  0.00  0.00    +0.000 A 
ATOM     24  C   UNL     1      45.621   5.262   9.497  0.00  0.00    +0.000 A 
ATOM     25  C   UNL     1      45.198   4.211   8.682  0.00  0.00    +0.000 A 
ATOM     26  C   UNL     1      44.557   3.137   9.272  0.00  0.00    +0.000 A 
ATOM     27  N   UNL     1      44.311   3.055  10.594  0.00  0.00    +0.000 NA
ATOM     28  C   UNL     1      44.732   4.094  11.357  0.00  0.00    +0.000 A 
ENDBRANCH  21  23
ENDBRANCH  15  16
ENDBRANCH   1  15
TORSDOF 6
ENDMDL
MODEL 8
REMARK VINA RESULT:    -7.254      3.857      5.845
REMARK INTER + INTRA:         -10.162
REMARK INTER:                  -9.000
REMARK INTRA:                  -1.162
REMARK UNBOUND:                -0.364
REMARK  Name = 
REMARK  7 active torsions:
REMARK  status: ('A' for Active; 'I' for Inactive)
REMARK    1  A    between atoms: C_1  and  O_2
REMARK    2  A    between atoms: O_2  and  C_3
REMARK    3  A    between atoms: C_5  and  C_6
REMARK    4  A    between atoms: C_11  and  O_12
REMARK    5  A    between atoms: O_12  and  C_13
REMARK    6  A    between atoms: C_13  and  C_14
REMARK    7  A    between atoms: C_19  and  C_20
REMARK                            x       y       z     vdW  Elec       q    Type
REMARK                         _______ _______ _______ _____ _____    ______ ____
ROOT
ATOM      1  O   UNL     1      48.923   6.445  14.200  0.00  0.00    +0.000 OA
ENDROOT
BRANCH   1   7
ATOM      2  C   UNL     1      46.965   4.897  13.983  0.00  0.00    +0.000 A 
ATOM      3  C   UNL     1      45.676   4.752  13.451  0.00  0.00    +0.000 A 
ATOM      4  C   UNL     1      45.063   5.772  12.713  0.00  0.00    +0.000 A 
ATOM      5  C   UNL     1      45.753   6.969  12.514  0.00  0.00    +0.000 A 
ATOM      6  C   UNL     1      47.040   7.125  13.042  0.00  0.00    +0.000 A 
ATOM      7  C   UNL     1      47.659   6.102  13.776  0.00  0.00    +0.000 A 
BRANCH   4   8
ATOM      8  C   UNL     1      43.689   5.502  12.193  0.00  0.00    +0.000 C 
ATOM      9  N   UNL     1      42.652   5.430  13.078  0.00  0.00    +0.000 N 
ATOM     10  O   UNL     1      43.478   5.347  10.996  0.00  0.00    +0.000 OA
ATOM     11  H   UNL     1      42.725   5.536  14.077  0.00  0.00    +0.000 HD
ATOM     12  H   UNL     1      41.738   5.247  12.685  0.00  0.00    +0.000 HD
ENDBRANCH   4   8
BRANCH   2  14
ATOM     13  C   UNL     1      47.132   3.827  16.110  0.00  0.00    +0.000 C 
ATOM     14  O   UNL     1      47.540   3.918  14.750  0.00  0.00    +0.000 OA
ENDBRANCH   2  14
ENDBRANCH   1   7
BRANCH   1  15
ATOM     15  C   UNL     1      49.026   7.345  15.302  0.00  0.00    +0.000 C 
BRANCH  15  16
ATOM     16  C   UNL     1      49.327   6.620  16.598  0.00  0.00    +0.000 A 
ATOM     17  C   UNL     1      48.674   7.023  17.771  0.00  0.00    +0.000 A 
ATOM     18  C   UNL     1      48.852   6.312  18.952  0.00  0.00    +0.000 A 
ATOM     19  C   UNL     1      49.663   5.180  18.963  0.00  0.00    +0.000 A 
ATOM     20  F   UNL     1      49.793   4.529  20.129  0.00  0.00    +0.000 F 
ATOM     21  C   UNL     1      50.313   4.715  17.807  0.00  0.00    +0.000 A 
ATOM     22  C   UNL     1      50.140   5.473  16.630  0.00  0.00    +0.000 A 
BRANCH  21  23
ATOM     23  C   UNL     1      51.095   3.461  17.796  0.00  0.00    +0.000 A 
ATOM     24  C   UNL     1      52.420   3.396  18.253  0.00  0.00    +0.000 A 
ATOM     25  C   UNL     1      53.139   2.202  18.187  0.00  0.00    +0.000 A 
ATOM     26  C   UNL     1      52.513   1.084  17.666  0.00  0.00    +0.000 A 
ATOM     27  N   UNL     1      51.245   1.087  17.211  0.00  0.00    +0.000 NA
ATOM     28  C   UNL     1      50.575   2.265  17.288  0.00  0.00    +0.000 A 
ENDBRANCH  21  23
ENDBRANCH  15  16
ENDBRANCH   1  15
TORSDOF 6
ENDMDL
MODEL 9
REMARK VINA RESULT:    -7.037      4.321      7.650
REMARK INTER + INTRA:          -9.869
REMARK INTER:                  -8.781
REMARK INTRA:                  -1.088
REMARK UNBOUND:                -0.364
REMARK  Name = 
REMARK  7 active torsions:
REMARK  status: ('A' for Active; 'I' for Inactive)
REMARK    1  A    between atoms: C_1  and  O_2
REMARK    2  A    between atoms: O_2  and  C_3
REMARK    3  A    between atoms: C_5  and  C_6
REMARK    4  A    between atoms: C_11  and  O_12
REMARK    5  A    between atoms: O_12  and  C_13
REMARK    6  A    between atoms: C_13  and  C_14
REMARK    7  A    between atoms: C_19  and  C_20
REMARK                            x       y       z     vdW  Elec       q    Type
REMARK                         _______ _______ _______ _____ _____    ______ ____
ROOT
ATOM      1  O   UNL     1      49.508   6.276  17.331  0.00  0.00    +0.000 OA
ENDROOT
BRANCH   1   7
ATOM      2  C   UNL     1      49.464   3.773  17.211  0.00  0.00    +0.000 A 
ATOM      3  C   UNL     1      50.235   2.609  17.337  0.00  0.00    +0.000 A 
ATOM      4  C   UNL     1      51.599   2.658  17.651  0.00  0.00    +0.000 A 
ATOM      5  C   UNL     1      52.206   3.902  17.831  0.00  0.00    +0.000 A 
ATOM      6  C   UNL     1      51.446   5.071  17.707  0.00  0.00    +0.000 A 
ATOM      7  C   UNL     1      50.078   5.025  17.399  0.00  0.00    +0.000 A 
BRANCH   4   8
ATOM      8  C   UNL     1      52.316   1.353  17.761  0.00  0.00    +0.000 C 
ATOM      9  N   UNL     1      51.613   0.243  18.130  0.00  0.00    +0.000 N 
ATOM     10  O   UNL     1      53.517   1.262  17.528  0.00  0.00    +0.000 OA
ATOM     11  H   UNL     1      50.631   0.217  18.349  0.00  0.00    +0.000 HD
ATOM     12  H   UNL     1      52.137  -0.621  18.192  0.00  0.00    +0.000 HD
ENDBRANCH   4   8
BRANCH   2  14
ATOM     13  C   UNL     1      47.288   2.876  17.611  0.00  0.00    +0.000 C 
ATOM     14  O   UNL     1      48.143   3.725  16.852  0.00  0.00    +0.000 OA
ENDBRANCH   2  14
ENDBRANCH   1   7
BRANCH   1  15
ATOM     15  C   UNL     1      50.131   7.237  16.481  0.00  0.00    +0.000 C 
BRANCH  15  16
ATOM     16  C   UNL     1      49.517   7.252  15.096  0.00  0.00    +0.000 A 
ATOM     17  C   UNL     1      50.264   7.761  14.025  0.00  0.00    +0.000 A 
ATOM     18  C   UNL     1      49.767   7.694  12.729  0.00  0.00    +0.000 A 
ATOM     19  C   UNL     1      48.534   7.093  12.491  0.00  0.00    +0.000 A 
ATOM     20  F   UNL     1      48.107   7.048  11.219  0.00  0.00    +0.000 F 
ATOM     21  C   UNL     1      47.762   6.535  13.525  0.00  0.00    +0.000 A 
ATOM     22  C   UNL     1      48.275   6.647  14.834  0.00  0.00    +0.000 A 
BRANCH  21  23
ATOM     23  C   UNL     1      46.500   5.813  13.261  0.00  0.00    +0.000 A 
ATOM     24  C   UNL     1      45.323   6.470  12.871  0.00  0.00    +0.000 A 
ATOM     25  C   UNL     1      44.141   5.757  12.673  0.00  0.00    +0.000 A 
ATOM     26  C   UNL     1      44.157   4.388  12.863  0.00  0.00    +0.000 A 
ATOM     27  N   UNL     1      45.255   3.704  13.239  0.00  0.00    +0.000 NA
ATOM     28  C   UNL     1      46.387   4.428  13.426  0.00  0.00    +0.000 A 
ENDBRANCH  21  23
ENDBRANCH  15  16
ENDBRANCH   1  15
TORSDOF 6
ENDMDL
