MODEL 1
REMARK VINA RESULT:    -8.026      0.000      0.000
REMARK INTER + INTRA:         -12.567
REMARK INTER:                 -11.310
REMARK INTRA:                  -1.257
REMARK UNBOUND:                -1.257
REMARK  Name = 
REMARK  7 active torsions:
REMARK  status: ('A' for Active; 'I' for Inactive)
REMARK    1  A    between atoms: C_2  and  C_19
REMARK    2  A    between atoms: N_3  and  C_4
REMARK    3  A    between atoms: C_4  and  C_5
REMARK    4  A    between atoms: C_8  and  C_9
REMARK    5  A    between atoms: C_9  and  N_10
REMARK    6  A    between atoms: N_10  and  C_11
REMARK    7  A    between atoms: C_11  and  C_12
REMARK                            x       y       z     vdW  Elec       q    Type
REMARK                         _______ _______ _______ _____ _____    ______ ____
ROOT
ATOM      1  C   UNL     1      46.154   7.254  12.773  0.00  0.00    +0.000 C 
ENDROOT
BRANCH   1   2
ATOM      2  C   UNL     1      45.662   6.085  11.964  0.00  0.00    +0.000 A 
ATOM      3  C   UNL     1      45.875   6.051  10.582  0.00  0.00    +0.000 A 
ATOM      4  C   UNL     1      45.447   4.959   9.824  0.00  0.00    +0.000 A 
ATOM      5  C   UNL     1      44.806   3.869  10.428  0.00  0.00    +0.000 A 
ATOM      6  C   UNL     1      44.548   3.928  11.806  0.00  0.00    +0.000 A 
ATOM      7  C   UNL     1      44.968   5.026  12.566  0.00  0.00    +0.000 A 
BRANCH   5   8
ATOM      8  C   UNL     1      44.331   2.681   9.618  0.00  0.00    +0.000 C 
BRANCH   8   9
ATOM      9  N   UNL     1      45.417   1.749   9.304  0.00  0.00    +0.000 NA
ATOM     10  H   UNL     1      45.150   0.816   9.614  0.00  0.00    +0.000 HD
BRANCH   9  11
ATOM     11  C   UNL     1      45.729   1.741   7.877  0.00  0.00    +0.000 C 
BRANCH  11  12
ATOM     12  C   UNL     1      47.004   2.556   7.581  0.00  0.00    +0.000 C 
ATOM     13  C   UNL     1      46.837   3.571   6.455  0.00  0.00    +0.000 C 
ATOM     14  C   UNL     1      47.076   2.737   5.214  0.00  0.00    +0.000 C 
ATOM     15  N   UNL     1      48.180   1.842   5.582  0.00  0.00    +0.000 NA
ATOM     16  C   UNL     1      48.112   1.646   7.042  0.00  0.00    +0.000 C 
ATOM     17  H   UNL     1      49.060   2.312   5.364  0.00  0.00    +0.000 HD
ENDBRANCH  11  12
ENDBRANCH   9  11
ENDBRANCH   8   9
ENDBRANCH   5   8
ENDBRANCH   1   2
BRANCH   1  20
ATOM     18  O   UNL     1      48.876   6.546  13.064  0.00  0.00    +0.000 OA
ATOM     19  C   UNL     1      48.148   6.544  14.053  0.00  0.00    +0.000 C 
ATOM     20  N   UNL     1      46.809   6.827  13.983  0.00  0.00    +0.000 N 
ATOM     21  H   UNL     1      46.285   6.968  14.840  0.00  0.00    +0.000 HD
BRANCH  19  22
ATOM     22  C   UNL     1      48.661   6.177  15.380  0.00  0.00    +0.000 A 
ATOM     23  C   UNL     1      49.605   6.981  16.004  0.00  0.00    +0.000 A 
ATOM     24  S   UNL     1      50.090   6.405  17.535  0.00  0.00    +0.000 S 
ATOM     25  C   UNL     1      49.022   5.085  17.438  0.00  0.00    +0.000 A 
ATOM     26  N   UNL     1      48.910   4.198  18.464  0.00  0.00    +0.000 NA
ATOM     27  C   UNL     1      48.032   3.271  18.276  0.00  0.00    +0.000 A 
ATOM     28  N   UNL     1      47.267   3.140  17.145  0.00  0.00    +0.000 N 
ATOM     29  C   UNL     1      47.410   3.956  16.049  0.00  0.00    +0.000 A 
ATOM     30  O   UNL     1      46.828   3.708  15.001  0.00  0.00    +0.000 OA
ATOM     31  C   UNL     1      48.335   5.059  16.237  0.00  0.00    +0.000 A 
ATOM     32  H   UNL     1      46.626   2.366  17.041  0.00  0.00    +0.000 HD
ENDBRANCH  19  22
ENDBRANCH   1  20
TORSDOF 7
ENDMDL
MODEL 2
REMARK VINA RESULT:    -7.156      2.184      2.680
REMARK INTER + INTRA:         -11.342
REMARK INTER:                 -10.374
REMARK INTRA:                  -0.967
REMARK UNBOUND:                -1.257
REMARK  Name = 
REMARK  7 active torsions:
REMARK  status: ('A' for Active; 'I' for Inactive)
REMARK    1  A    between atoms: C_2  and  C_19
REMARK    2  A    between atoms: N_3  and  C_4
REMARK    3  A    between atoms: C_4  and  C_5
REMARK    4  A    between atoms: C_8  and  C_9
REMARK    5  A    between atoms: C_9  and  N_10
REMARK    6  A    between atoms: N_10  and  C_11
REMARK    7  A    between atoms: C_11  and  C_12
REMARK                            x       y       z     vdW  Elec       q    Type
REMARK                         _______ _______ _______ _____ _____    ______ ____
ROOT
ATOM      1  C   UNL     1      47.679   6.589  13.461  0.00  0.00    +0.000 C 
ENDROOT
BRANCH   1   2
ATOM      2  C   UNL     1      46.683   5.741  12.718  0.00  0.00    +0.000 A 
ATOM      3  C   UNL     1      46.152   6.186  11.502  0.00  0.00    +0.000 A 
ATOM      4  C   UNL     1      45.248   5.396  10.789  0.00  0.00    +0.000 A 
ATOM      5  C   UNL     1      44.858   4.137  11.267  0.00  0.00    +0.000 A 
ATOM      6  C   UNL     1      45.352   3.716  12.511  0.00  0.00    +0.000 A 
ATOM      7  C   UNL     1      46.251   4.510  13.231  0.00  0.00    +0.000 A 
BRANCH   5   8
ATOM      8  C   UNL     1      43.874   3.272  10.509  0.00  0.00    +0.000 C 
BRANCH   8   9
ATOM      9  N   UNL     1      44.522   2.133   9.853  0.00  0.00    +0.000 NA
ATOM     10  H   UNL     1      43.903   1.325   9.911  0.00  0.00    +0.000 HD
BRANCH   9  11
ATOM     11  C   UNL     1      44.848   2.425   8.459  0.00  0.00    +0.000 C 
BRANCH  11  12
ATOM     12  C   UNL     1      46.374   2.507   8.251  0.00  0.00    +0.000 C 
ATOM     13  C   UNL     1      46.797   3.540   7.211  0.00  0.00    +0.000 C 
ATOM     14  C   UNL     1      46.655   2.783   5.908  0.00  0.00    +0.000 C 
ATOM     15  N   UNL     1      47.143   1.432   6.215  0.00  0.00    +0.000 NA
ATOM     16  C   UNL     1      46.907   1.202   7.653  0.00  0.00    +0.000 C 
ATOM     17  H   UNL     1      48.150   1.410   6.050  0.00  0.00    +0.000 HD
ENDBRANCH  11  12
ENDBRANCH   9  11
ENDBRANCH   8   9
ENDBRANCH   5   8
ENDBRANCH   1   2
BRANCH   1  20
ATOM     18  O   UNL     1      49.936   6.676  15.161  0.00  0.00    +0.000 OA
ATOM     19  C   UNL     1      48.842   6.377  15.632  0.00  0.00    +0.000 C 
ATOM     20  N   UNL     1      47.713   6.266  14.864  0.00  0.00    +0.000 N 
ATOM     21  H   UNL     1      46.810   6.173  15.316  0.00  0.00    +0.000 HD
BRANCH  19  22
ATOM     22  C   UNL     1      48.684   6.059  17.059  0.00  0.00    +0.000 A 
ATOM     23  C   UNL     1      48.873   4.757  17.502  0.00  0.00    +0.000 A 
ATOM     24  S   UNL     1      48.649   4.567  19.183  0.00  0.00    +0.000 S 
ATOM     25  C   UNL     1      48.334   6.226  19.383  0.00  0.00    +0.000 A 
ATOM     26  N   UNL     1      48.096   6.749  20.617  0.00  0.00    +0.000 NA
ATOM     27  C   UNL     1      47.915   8.027  20.630  0.00  0.00    +0.000 A 
ATOM     28  N   UNL     1      47.936   8.829  19.518  0.00  0.00    +0.000 N 
ATOM     29  C   UNL     1      48.082   8.333  18.244  0.00  0.00    +0.000 A 
ATOM     30  O   UNL     1      47.932   9.057  17.267  0.00  0.00    +0.000 OA
ATOM     31  C   UNL     1      48.359   6.910  18.181  0.00  0.00    +0.000 A 
ATOM     32  H   UNL     1      47.746   9.818  19.590  0.00  0.00    +0.000 HD
ENDBRANCH  19  22
ENDBRANCH   1  20
TORSDOF 7
ENDMDL
MODEL 3
REMARK VINA RESULT:    -6.931      4.209      9.013
REMARK INTER + INTRA:         -11.024
REMARK INTER:                  -9.982
REMARK INTRA:                  -1.043
REMARK UNBOUND:                -1.257
REMARK  Name = 
REMARK  7 active torsions:
REMARK  status: ('A' for Active; 'I' for Inactive)
REMARK    1  A    between atoms: C_2  and  C_19
REMARK    2  A    between atoms: N_3  and  C_4
REMARK    3  A    between atoms: C_4  and  C_5
REMARK    4  A    between atoms: C_8  and  C_9
REMARK    5  A    between atoms: C_9  and  N_10
REMARK    6  A    between atoms: N_10  and  C_11
REMARK    7  A    between atoms: C_11  and  C_12
REMARK                            x       y       z     vdW  Elec       q    Type
REMARK                         _______ _______ _______ _____ _____    ______ ____
ROOT
ATOM      1  C   UNL     1      47.136   3.368  16.879  0.00  0.00    +0.000 C 
ENDROOT
BRANCH   1   2
ATOM      2  C   UNL     1      48.615   3.318  17.151  0.00  0.00    +0.000 A 
ATOM      3  C   UNL     1      49.274   4.447  17.649  0.00  0.00    +0.000 A 
ATOM      4  C   UNL     1      50.641   4.405  17.931  0.00  0.00    +0.000 A 
ATOM      5  C   UNL     1      51.382   3.232  17.733  0.00  0.00    +0.000 A 
ATOM      6  C   UNL     1      50.730   2.117  17.185  0.00  0.00    +0.000 A 
ATOM      7  C   UNL     1      49.362   2.160  16.893  0.00  0.00    +0.000 A 
BRANCH   5   8
ATOM      8  C   UNL     1      52.866   3.173  18.028  0.00  0.00    +0.000 C 
BRANCH   8   9
ATOM      9  N   UNL     1      53.209   2.088  18.952  0.00  0.00    +0.000 NA
ATOM     10  H   UNL     1      52.800   1.221  18.606  0.00  0.00    +0.000 HD
BRANCH   9  11
ATOM     11  C   UNL     1      54.655   1.944  19.105  0.00  0.00    +0.000 C 
BRANCH  11  12
ATOM     12  C   UNL     1      55.123   0.542  18.666  0.00  0.00    +0.000 C 
ATOM     13  C   UNL     1      55.775   0.516  17.288  0.00  0.00    +0.000 C 
ATOM     14  C   UNL     1      54.585   0.414  16.357  0.00  0.00    +0.000 C 
ATOM     15  N   UNL     1      53.668  -0.510  17.034  0.00  0.00    +0.000 NA
ATOM     16  C   UNL     1      53.924  -0.393  18.481  0.00  0.00    +0.000 C 
ATOM     17  H   UNL     1      53.900  -1.461  16.744  0.00  0.00    +0.000 HD
ENDBRANCH  11  12
ENDBRANCH   9  11
ENDBRANCH   8   9
ENDBRANCH   5   8
ENDBRANCH   1   2
BRANCH   1  20
ATOM     18  O   UNL     1      47.244   3.047  14.072  0.00  0.00    +0.000 OA
ATOM     19  C   UNL     1      46.844   4.110  14.538  0.00  0.00    +0.000 C 
ATOM     20  N   UNL     1      46.810   4.358  15.885  0.00  0.00    +0.000 N 
ATOM     21  H   UNL     1      46.327   5.182  16.226  0.00  0.00    +0.000 HD
BRANCH  19  22
ATOM     22  C   UNL     1      46.427   5.218  13.667  0.00  0.00    +0.000 A 
ATOM     23  C   UNL     1      47.294   6.275  13.428  0.00  0.00    +0.000 A 
ATOM     24  S   UNL     1      46.648   7.472  12.399  0.00  0.00    +0.000 S 
ATOM     25  C   UNL     1      45.202   6.598  12.201  0.00  0.00    +0.000 A 
ATOM     26  N   UNL     1      44.211   7.059  11.390  0.00  0.00    +0.000 NA
ATOM     27  C   UNL     1      43.188   6.277  11.298  0.00  0.00    +0.000 A 
ATOM     28  N   UNL     1      43.059   5.081  11.957  0.00  0.00    +0.000 N 
ATOM     29  C   UNL     1      43.992   4.621  12.856  0.00  0.00    +0.000 A 
ATOM     30  O   UNL     1      43.767   3.635  13.546  0.00  0.00    +0.000 OA
ATOM     31  C   UNL     1      45.194   5.430  12.942  0.00  0.00    +0.000 A 
ATOM     32  H   UNL     1      42.214   4.534  11.876  0.00  0.00    +0.000 HD
ENDBRANCH  19  22
ENDBRANCH   1  20
TORSDOF 7
ENDMDL
MODEL 4
REMARK VINA RESULT:    -6.914      2.279      3.821
REMARK INTER + INTRA:         -11.001
REMARK INTER:                  -9.818
REMARK INTRA:                  -1.183
REMARK UNBOUND:                -1.257
REMARK  Name = 
REMARK  7 active torsions:
REMARK  status: ('A' for Active; 'I' for Inactive)
REMARK    1  A    between atoms: C_2  and  C_19
REMARK    2  A    between atoms: N_3  and  C_4
REMARK    3  A    between atoms: C_4  and  C_5
REMARK    4  A    between atoms: C_8  and  C_9
REMARK    5  A    between atoms: C_9  and  N_10
REMARK    6  A    between atoms: N_10  and  C_11
REMARK    7  A    between atoms: C_11  and  C_12
REMARK                            x       y       z     vdW  Elec       q    Type
REMARK                         _______ _______ _______ _____ _____    ______ ____
ROOT
ATOM      1  C   UNL     1      46.811   4.681  14.641  0.00  0.00    +0.000 C 
ENDROOT
BRANCH   1   2
ATOM      2  C   UNL     1      46.170   4.506  13.291  0.00  0.00    +0.000 A 
ATOM      3  C   UNL     1      46.026   5.606  12.437  0.00  0.00    +0.000 A 
ATOM      4  C   UNL     1      45.457   5.452  11.171  0.00  0.00    +0.000 A 
ATOM      5  C   UNL     1      45.029   4.195  10.721  0.00  0.00    +0.000 A 
ATOM      6  C   UNL     1      45.128   3.105  11.599  0.00  0.00    +0.000 A 
ATOM      7  C   UNL     1      45.689   3.259  12.871  0.00  0.00    +0.000 A 
BRANCH   5   8
ATOM      8  C   UNL     1      44.405   4.014   9.353  0.00  0.00    +0.000 C 
BRANCH   8   9
ATOM      9  N   UNL     1      45.084   4.802   8.322  0.00  0.00    +0.000 NA
ATOM     10  H   UNL     1      45.243   5.744   8.678  0.00  0.00    +0.000 HD
BRANCH   9  11
ATOM     11  C   UNL     1      46.349   4.191   7.919  0.00  0.00    +0.000 C 
BRANCH  11  12
ATOM     12  C   UNL     1      46.112   2.988   6.984  0.00  0.00    +0.000 C 
ATOM     13  C   UNL     1      46.800   1.707   7.446  0.00  0.00    +0.000 C 
ATOM     14  C   UNL     1      48.202   1.863   6.897  0.00  0.00    +0.000 C 
ATOM     15  N   UNL     1      48.012   2.460   5.569  0.00  0.00    +0.000 NA
ATOM     16  C   UNL     1      46.757   3.233   5.617  0.00  0.00    +0.000 C 
ATOM     17  H   UNL     1      47.895   1.703   4.893  0.00  0.00    +0.000 HD
ENDBRANCH  11  12
ENDBRANCH   9  11
ENDBRANCH   8   9
ENDBRANCH   5   8
ENDBRANCH   1   2
BRANCH   1  20
ATOM     18  O   UNL     1      49.045   5.299  16.260  0.00  0.00    +0.000 OA
ATOM     19  C   UNL     1      48.571   6.170  15.536  0.00  0.00    +0.000 C 
ATOM     20  N   UNL     1      47.461   5.961  14.762  0.00  0.00    +0.000 N 
ATOM     21  H   UNL     1      47.202   6.652  14.066  0.00  0.00    +0.000 HD
BRANCH  19  22
ATOM     22  C   UNL     1      49.137   7.526  15.499  0.00  0.00    +0.000 A 
ATOM     23  C   UNL     1      49.234   8.268  16.668  0.00  0.00    +0.000 A 
ATOM     24  S   UNL     1      49.912   9.817  16.441  0.00  0.00    +0.000 S 
ATOM     25  C   UNL     1      50.141   9.533  14.780  0.00  0.00    +0.000 A 
ATOM     26  N   UNL     1      50.729  10.468  13.985  0.00  0.00    +0.000 NA
ATOM     27  C   UNL     1      50.879  10.106  12.755  0.00  0.00    +0.000 A 
ATOM     28  N   UNL     1      50.480   8.898  12.244  0.00  0.00    +0.000 N 
ATOM     29  C   UNL     1      49.801   7.962  12.987  0.00  0.00    +0.000 A 
ATOM     30  O   UNL     1      49.318   6.969  12.457  0.00  0.00    +0.000 OA
ATOM     31  C   UNL     1      49.669   8.291  14.394  0.00  0.00    +0.000 A 
ATOM     32  H   UNL     1      50.589   8.691  11.261  0.00  0.00    +0.000 HD
ENDBRANCH  19  22
ENDBRANCH   1  20
TORSDOF 7
ENDMDL
MODEL 5
REMARK VINA RESULT:    -6.865      2.741      3.863
REMARK INTER + INTRA:         -10.932
REMARK INTER:                  -9.158
REMARK INTRA:                  -1.775
REMARK UNBOUND:                -1.257
REMARK  Name = 
REMARK  7 active torsions:
REMARK  status: ('A' for Active; 'I' for Inactive)
REMARK    1  A    between atoms: C_2  and  C_19
REMARK    2  A    between atoms: N_3  and  C_4
REMARK    3  A    between atoms: C_4  and  C_5
REMARK    4  A    between atoms: C_8  and  C_9
REMARK    5  A    between atoms: C_9  and  N_10
REMARK    6  A    between atoms: N_10  and  C_11
REMARK    7  A    between atoms: C_11  and  C_12
REMARK                            x       y       z     vdW  Elec       q    Type
REMARK                         _______ _______ _______ _____ _____    ______ ____
ROOT
ATOM      1  C   UNL     1      49.178   7.965  13.470  0.00  0.00    +0.000 C 
ENDROOT
BRANCH   1   2
ATOM      2  C   UNL     1      47.817   7.836  12.843  0.00  0.00    +0.000 A 
ATOM      3  C   UNL     1      47.550   6.786  11.958  0.00  0.00    +0.000 A 
ATOM      4  C   UNL     1      46.282   6.640  11.391  0.00  0.00    +0.000 A 
ATOM      5  C   UNL     1      45.246   7.532  11.702  0.00  0.00    +0.000 A 
ATOM      6  C   UNL     1      45.531   8.613  12.549  0.00  0.00    +0.000 A 
ATOM      7  C   UNL     1      46.803   8.767  13.111  0.00  0.00    +0.000 A 
BRANCH   5   8
ATOM      8  C   UNL     1      43.868   7.390  11.090  0.00  0.00    +0.000 C 
BRANCH   8   9
ATOM      9  N   UNL     1      43.590   6.018  10.655  0.00  0.00    +0.000 NA
ATOM     10  H   UNL     1      44.474   5.542  10.483  0.00  0.00    +0.000 HD
BRANCH   9  11
ATOM     11  C   UNL     1      42.803   5.286  11.644  0.00  0.00    +0.000 C 
BRANCH  11  12
ATOM     12  C   UNL     1      43.000   3.764  11.495  0.00  0.00    +0.000 C 
ATOM     13  C   UNL     1      43.703   3.116  12.684  0.00  0.00    +0.000 C 
ATOM     14  C   UNL     1      45.167   3.341  12.370  0.00  0.00    +0.000 C 
ATOM     15  N   UNL     1      45.269   3.122  10.922  0.00  0.00    +0.000 NA
ATOM     16  C   UNL     1      43.955   3.455  10.339  0.00  0.00    +0.000 C 
ATOM     17  H   UNL     1      45.447   2.129  10.760  0.00  0.00    +0.000 HD
ENDBRANCH  11  12
ENDBRANCH   9  11
ENDBRANCH   8   9
ENDBRANCH   5   8
ENDBRANCH   1   2
BRANCH   1  20
ATOM     18  O   UNL     1      48.663   8.583  16.181  0.00  0.00    +0.000 OA
ATOM     19  C   UNL     1      49.016   7.445  15.882  0.00  0.00    +0.000 C 
ATOM     20  N   UNL     1      49.331   7.083  14.599  0.00  0.00    +0.000 N 
ATOM     21  H   UNL     1      49.462   6.103  14.376  0.00  0.00    +0.000 HD
BRANCH  19  22
ATOM     22  C   UNL     1      49.181   6.402  16.904  0.00  0.00    +0.000 A 
ATOM     23  C   UNL     1      50.057   6.602  17.963  0.00  0.00    +0.000 A 
ATOM     24  S   UNL     1      50.124   5.291  19.053  0.00  0.00    +0.000 S 
ATOM     25  C   UNL     1      48.953   4.428  18.172  0.00  0.00    +0.000 A 
ATOM     26  N   UNL     1      48.515   3.211  18.595  0.00  0.00    +0.000 NA
ATOM     27  C   UNL     1      47.595   2.687  17.857  0.00  0.00    +0.000 A 
ATOM     28  N   UNL     1      47.083   3.264  16.723  0.00  0.00    +0.000 N 
ATOM     29  C   UNL     1      47.558   4.446  16.208  0.00  0.00    +0.000 A 
ATOM     30  O   UNL     1      47.192   4.846  15.110  0.00  0.00    +0.000 OA
ATOM     31  C   UNL     1      48.545   5.110  17.040  0.00  0.00    +0.000 A 
ATOM     32  H   UNL     1      46.392   2.783  16.165  0.00  0.00    +0.000 HD
ENDBRANCH  19  22
ENDBRANCH   1  20
TORSDOF 7
ENDMDL
MODEL 6
REMARK VINA RESULT:    -6.816      3.281      8.059
REMARK INTER + INTRA:         -10.862
REMARK INTER:                  -9.586
REMARK INTRA:                  -1.277
REMARK UNBOUND:                -1.257
REMARK  Name = 
REMARK  7 active torsions:
REMARK  status: ('A' for Active; 'I' for Inactive)
REMARK    1  A    between atoms: C_2  and  C_19
REMARK    2  A    between atoms: N_3  and  C_4
REMARK    3  A    between atoms: C_4  and  C_5
REMARK    4  A    between atoms: C_8  and  C_9
REMARK    5  A    between atoms: C_9  and  N_10
REMARK    6  A    between atoms: N_10  and  C_11
REMARK    7  A    between atoms: C_11  and  C_12
REMARK                            x       y       z     vdW  Elec       q    Type
REMARK                         _______ _______ _______ _____ _____    ______ ____
ROOT
ATOM      1  C   UNL     1      48.278   8.064  12.065  0.00  0.00    +0.000 C 
ENDROOT
BRANCH   1   2
ATOM      2  C   UNL     1      48.930   7.715  13.375  0.00  0.00    +0.000 A 
ATOM      3  C   UNL     1      48.213   7.013  14.350  0.00  0.00    +0.000 A 
ATOM      4  C   UNL     1      48.815   6.660  15.559  0.00  0.00    +0.000 A 
ATOM      5  C   UNL     1      50.153   6.989  15.822  0.00  0.00    +0.000 A 
ATOM      6  C   UNL     1      50.854   7.738  14.864  0.00  0.00    +0.000 A 
ATOM      7  C   UNL     1      50.249   8.101  13.656  0.00  0.00    +0.000 A 
BRANCH   5   8
ATOM      8  C   UNL     1      50.818   6.618  17.130  0.00  0.00    +0.000 C 
BRANCH   8   9
ATOM      9  N   UNL     1      50.058   5.612  17.876  0.00  0.00    +0.000 NA
ATOM     10  H   UNL     1      49.063   5.769  17.721  0.00  0.00    +0.000 HD
BRANCH   9  11
ATOM     11  C   UNL     1      50.425   4.253  17.481  0.00  0.00    +0.000 C 
BRANCH  11  12
ATOM     12  C   UNL     1      49.384   3.230  17.976  0.00  0.00    +0.000 C 
ATOM     13  C   UNL     1      48.610   2.548  16.853  0.00  0.00    +0.000 C 
ATOM     14  C   UNL     1      47.503   3.538  16.559  0.00  0.00    +0.000 C 
ATOM     15  N   UNL     1      47.097   4.034  17.879  0.00  0.00    +0.000 NA
ATOM     16  C   UNL     1      48.273   3.929  18.764  0.00  0.00    +0.000 C 
ATOM     17  H   UNL     1      46.368   3.417  18.243  0.00  0.00    +0.000 HD
ENDBRANCH  11  12
ENDBRANCH   9  11
ENDBRANCH   8   9
ENDBRANCH   5   8
ENDBRANCH   1   2
BRANCH   1  20
ATOM     18  O   UNL     1      45.471   7.865  11.790  0.00  0.00    +0.000 OA
ATOM     19  C   UNL     1      46.179   6.949  11.381  0.00  0.00    +0.000 C 
ATOM     20  N   UNL     1      47.542   6.950  11.523  0.00  0.00    +0.000 N 
ATOM     21  H   UNL     1      48.094   6.255  11.033  0.00  0.00    +0.000 HD
BRANCH  19  22
ATOM     22  C   UNL     1      45.598   5.751  10.758  0.00  0.00    +0.000 A 
ATOM     23  C   UNL     1      45.852   5.474   9.421  0.00  0.00    +0.000 A 
ATOM     24  S   UNL     1      45.099   4.049   8.862  0.00  0.00    +0.000 S 
ATOM     25  C   UNL     1      44.442   3.729  10.398  0.00  0.00    +0.000 A 
ATOM     26  N   UNL     1      43.702   2.609  10.623  0.00  0.00    +0.000 NA
ATOM     27  C   UNL     1      43.302   2.468  11.842  0.00  0.00    +0.000 A 
ATOM     28  N   UNL     1      43.562   3.356  12.855  0.00  0.00    +0.000 N 
ATOM     29  C   UNL     1      44.225   4.543  12.655  0.00  0.00    +0.000 A 
ATOM     30  O   UNL     1      44.295   5.382  13.544  0.00  0.00    +0.000 OA
ATOM     31  C   UNL     1      44.758   4.715  11.316  0.00  0.00    +0.000 A 
ATOM     32  H   UNL     1      43.185   3.210  13.780  0.00  0.00    +0.000 HD
ENDBRANCH  19  22
ENDBRANCH   1  20
TORSDOF 7
ENDMDL
MODEL 7
REMARK VINA RESULT:    -6.737      2.004      2.787
REMARK INTER + INTRA:         -10.751
REMARK INTER:                 -10.097
REMARK INTRA:                  -0.654
REMARK UNBOUND:                -1.257
REMARK  Name = 
REMARK  7 active torsions:
REMARK  status: ('A' for Active; 'I' for Inactive)
REMARK    1  A    between atoms: C_2  and  C_19
REMARK    2  A    between atoms: N_3  and  C_4
REMARK    3  A    between atoms: C_4  and  C_5
REMARK    4  A    between atoms: C_8  and  C_9
REMARK    5  A    between atoms: C_9  and  N_10
REMARK    6  A    between atoms: N_10  and  C_11
REMARK    7  A    between atoms: C_11  and  C_12
REMARK                            x       y       z     vdW  Elec       q    Type
REMARK                         _______ _______ _______ _____ _____    ______ ____
ROOT
ATOM      1  C   UNL     1      48.310   6.820  13.797  0.00  0.00    +0.000 C 
ENDROOT
BRANCH   1   2
ATOM      2  C   UNL     1      47.124   6.204  13.105  0.00  0.00    +0.000 A 
ATOM      3  C   UNL     1      46.404   5.179  13.728  0.00  0.00    +0.000 A 
ATOM      4  C   UNL     1      45.286   4.617  13.109  0.00  0.00    +0.000 A 
ATOM      5  C   UNL     1      44.851   5.072  11.856  0.00  0.00    +0.000 A 
ATOM      6  C   UNL     1      45.605   6.064  11.210  0.00  0.00    +0.000 A 
ATOM      7  C   UNL     1      46.731   6.621  11.825  0.00  0.00    +0.000 A 
BRANCH   5   8
ATOM      8  C   UNL     1      43.644   4.469  11.169  0.00  0.00    +0.000 C 
BRANCH   8   9
ATOM      9  N   UNL     1      43.830   3.049  10.860  0.00  0.00    +0.000 NA
ATOM     10  H   UNL     1      43.042   2.728  10.299  0.00  0.00    +0.000 HD
BRANCH   9  11
ATOM     11  C   UNL     1      45.087   2.808  10.154  0.00  0.00    +0.000 C 
BRANCH  11  12
ATOM     12  C   UNL     1      44.833   2.422   8.683  0.00  0.00    +0.000 C 
ATOM     13  C   UNL     1      45.963   1.612   8.057  0.00  0.00    +0.000 C 
ATOM     14  C   UNL     1      46.937   2.682   7.612  0.00  0.00    +0.000 C 
ATOM     15  N   UNL     1      46.085   3.758   7.090  0.00  0.00    +0.000 NA
ATOM     16  C   UNL     1      44.793   3.670   7.797  0.00  0.00    +0.000 C 
ATOM     17  H   UNL     1      45.918   3.581   6.098  0.00  0.00    +0.000 HD
ENDBRANCH  11  12
ENDBRANCH   9  11
ENDBRANCH   8   9
ENDBRANCH   5   8
ENDBRANCH   1   2
BRANCH   1  20
ATOM     18  O   UNL     1      50.274   6.323  15.769  0.00  0.00    +0.000 OA
ATOM     19  C   UNL     1      49.145   6.657  16.118  0.00  0.00    +0.000 C 
ATOM     20  N   UNL     1      48.128   6.867  15.225  0.00  0.00    +0.000 N 
ATOM     21  H   UNL     1      47.265   7.292  15.544  0.00  0.00    +0.000 HD
BRANCH  19  22
ATOM     22  C   UNL     1      48.794   6.798  17.539  0.00  0.00    +0.000 A 
ATOM     23  C   UNL     1      48.402   8.035  18.035  0.00  0.00    +0.000 A 
ATOM     24  S   UNL     1      48.034   8.018  19.700  0.00  0.00    +0.000 S 
ATOM     25  C   UNL     1      48.343   6.349  19.808  0.00  0.00    +0.000 A 
ATOM     26  N   UNL     1      48.175   5.680  20.981  0.00  0.00    +0.000 NA
ATOM     27  C   UNL     1      48.403   4.412  20.911  0.00  0.00    +0.000 A 
ATOM     28  N   UNL     1      48.800   3.753  19.776  0.00  0.00    +0.000 N 
ATOM     29  C   UNL     1      49.071   4.400  18.594  0.00  0.00    +0.000 A 
ATOM     30  O   UNL     1      49.578   3.804  17.653  0.00  0.00    +0.000 OA
ATOM     31  C   UNL     1      48.762   5.818  18.601  0.00  0.00    +0.000 A 
ATOM     32  H   UNL     1      49.003   2.764  19.796  0.00  0.00    +0.000 HD
ENDBRANCH  19  22
ENDBRANCH   1  20
TORSDOF 7
ENDMDL
MODEL 8
REMARK VINA RESULT:    -6.637      2.967      8.790
REMARK INTER + INTRA:         -10.610
REMARK INTER:                  -9.459
REMARK INTRA:                  -1.151
REMARK UNBOUND:                -1.257
REMARK  Name = 
REMARK  7 active torsions:
REMARK  status: ('A' for Active; 'I' for Inactive)
REMARK    1  A    between atoms: C_2  and  C_19
REMARK    2  A    between atoms: N_3  and  C_4
REMARK    3  A    between atoms: C_4  and  C_5
REMARK    4  A    between atoms: C_8  and  C_9
REMARK    5  A    between atoms: C_9  and  N_10
REMARK    6  A    between atoms: N_10  and  C_11
REMARK    7  A    between atoms: C_11  and  C_12
REMARK                            x       y       z     vdW  Elec       q    Type
REMARK                         _______ _______ _______ _____ _____    ______ ____
ROOT
ATOM      1  C   UNL     1      47.238   7.941  12.149  0.00  0.00    +0.000 C 
ENDROOT
BRANCH   1   2
ATOM      2  C   UNL     1      47.964   7.972  13.466  0.00  0.00    +0.000 A 
ATOM      3  C   UNL     1      47.641   8.943  14.421  0.00  0.00    +0.000 A 
ATOM      4  C   UNL     1      48.288   8.966  15.658  0.00  0.00    +0.000 A 
ATOM      5  C   UNL     1      49.267   8.013  15.978  0.00  0.00    +0.000 A 
ATOM      6  C   UNL     1      49.625   7.074  15.000  0.00  0.00    +0.000 A 
ATOM      7  C   UNL     1      48.984   7.055  13.756  0.00  0.00    +0.000 A 
BRANCH   5   8
ATOM      8  C   UNL     1      49.982   8.030  17.313  0.00  0.00    +0.000 C 
BRANCH   8   9
ATOM      9  N   UNL     1      49.248   7.295  18.347  0.00  0.00    +0.000 NA
ATOM     10  H   UNL     1      48.272   7.217  18.065  0.00  0.00    +0.000 HD
BRANCH   9  11
ATOM     11  C   UNL     1      49.818   5.969  18.576  0.00  0.00    +0.000 C 
BRANCH  11  12
ATOM     12  C   UNL     1      48.797   5.034  19.255  0.00  0.00    +0.000 C 
ATOM     13  C   UNL     1      48.366   3.859  18.383  0.00  0.00    +0.000 C 
ATOM     14  C   UNL     1      47.263   4.456  17.536  0.00  0.00    +0.000 C 
ATOM     15  N   UNL     1      46.523   5.326  18.458  0.00  0.00    +0.000 NA
ATOM     16  C   UNL     1      47.474   5.767  19.496  0.00  0.00    +0.000 C 
ATOM     17  H   UNL     1      45.795   4.769  18.908  0.00  0.00    +0.000 HD
ENDBRANCH  11  12
ENDBRANCH   9  11
ENDBRANCH   8   9
ENDBRANCH   5   8
ENDBRANCH   1   2
BRANCH   1  20
ATOM     18  O   UNL     1      44.489   7.559  11.612  0.00  0.00    +0.000 OA
ATOM     19  C   UNL     1      45.235   6.584  11.638  0.00  0.00    +0.000 C 
ATOM     20  N   UNL     1      46.568   6.683  11.940  0.00  0.00    +0.000 N 
ATOM     21  H   UNL     1      47.172   5.882  11.794  0.00  0.00    +0.000 HD
BRANCH  19  22
ATOM     22  C   UNL     1      44.728   5.225  11.401  0.00  0.00    +0.000 A 
ATOM     23  C   UNL     1      43.974   4.588  12.377  0.00  0.00    +0.000 A 
ATOM     24  S   UNL     1      43.469   3.019  11.937  0.00  0.00    +0.000 S 
ATOM     25  C   UNL     1      44.203   3.153  10.408  0.00  0.00    +0.000 A 
ATOM     26  N   UNL     1      44.112   2.146   9.497  0.00  0.00    +0.000 NA
ATOM     27  C   UNL     1      44.677   2.397   8.364  0.00  0.00    +0.000 A 
ATOM     28  N   UNL     1      45.341   3.559   8.065  0.00  0.00    +0.000 N 
ATOM     29  C   UNL     1      45.537   4.563   8.983  0.00  0.00    +0.000 A 
ATOM     30  O   UNL     1      46.273   5.510   8.731  0.00  0.00    +0.000 OA
ATOM     31  C   UNL     1      44.860   4.360  10.250  0.00  0.00    +0.000 A 
ATOM     32  H   UNL     1      45.799   3.678   7.173  0.00  0.00    +0.000 HD
ENDBRANCH  19  22
ENDBRANCH   1  20
TORSDOF 7
ENDMDL
MODEL 9
REMARK VINA RESULT:    -6.234      3.790      7.955
REMARK INTER + INTRA:         -10.043
REMARK INTER:                  -8.423
REMARK INTRA:                  -1.619
REMARK UNBOUND:                -1.257
REMARK  Name = 
REMARK  7 active torsions:
REMARK  status: ('A' for Active; 'I' for Inactive)
REMARK    1  A    between atoms: C_2  and  C_19
REMARK    2  A    between atoms: N_3  and  C_4
REMARK    3  A    between atoms: C_4  and  C_5
REMARK    4  A    between atoms: C_8  and  C_9
REMARK    5  A    between atoms: C_9  and  N_10
REMARK    6  A    between atoms: N_10  and  C_11
REMARK    7  A    between atoms: C_11  and  C_12
REMARK                            x       y       z     vdW  Elec       q    Type
REMARK                         _______ _______ _______ _____ _____    ______ ____
ROOT
ATOM      1  C   UNL     1      48.349   8.807  14.620  0.00  0.00    +0.000 C 
ENDROOT
BRANCH   1   2
ATOM      2  C   UNL     1      49.068   7.963  15.637  0.00  0.00    +0.000 A 
ATOM      3  C   UNL     1      50.243   7.290  15.283  0.00  0.00    +0.000 A 
ATOM      4  C   UNL     1      50.935   6.526  16.225  0.00  0.00    +0.000 A 
ATOM      5  C   UNL     1      50.478   6.422  17.546  0.00  0.00    +0.000 A 
ATOM      6  C   UNL     1      49.272   7.056  17.884  0.00  0.00    +0.000 A 
ATOM      7  C   UNL     1      48.573   7.815  16.940  0.00  0.00    +0.000 A 
BRANCH   5   8
ATOM      8  C   UNL     1      51.214   5.592  18.577  0.00  0.00    +0.000 C 
BRANCH   8   9
ATOM      9  N   UNL     1      50.524   4.334  18.875  0.00  0.00    +0.000 NA
ATOM     10  H   UNL     1      49.611   4.546  19.273  0.00  0.00    +0.000 HD
BRANCH   9  11
ATOM     11  C   UNL     1      50.379   3.501  17.683  0.00  0.00    +0.000 C 
BRANCH  11  12
ATOM     12  C   UNL     1      49.052   2.716  17.712  0.00  0.00    +0.000 C 
ATOM     13  C   UNL     1      48.167   2.961  16.495  0.00  0.00    +0.000 C 
ATOM     14  C   UNL     1      47.429   4.230  16.867  0.00  0.00    +0.000 C 
ATOM     15  N   UNL     1      47.125   4.072  18.294  0.00  0.00    +0.000 NA
ATOM     16  C   UNL     1      48.166   3.197  18.865  0.00  0.00    +0.000 C 
ATOM     17  H   UNL     1      46.226   3.595  18.379  0.00  0.00    +0.000 HD
ENDBRANCH  11  12
ENDBRANCH   9  11
ENDBRANCH   8   9
ENDBRANCH   5   8
ENDBRANCH   1   2
BRANCH   1  20
ATOM     18  O   UNL     1      47.886   8.298  11.878  0.00  0.00    +0.000 OA
ATOM     19  C   UNL     1      47.093   7.866  12.710  0.00  0.00    +0.000 C 
ATOM     20  N   UNL     1      47.223   8.112  14.051  0.00  0.00    +0.000 N 
ATOM     21  H   UNL     1      46.640   7.607  14.709  0.00  0.00    +0.000 HD
BRANCH  19  22
ATOM     22  C   UNL     1      45.908   7.094  12.309  0.00  0.00    +0.000 A 
ATOM     23  C   UNL     1      44.852   7.730  11.670  0.00  0.00    +0.000 A 
ATOM     24  S   UNL     1      43.561   6.686  11.278  0.00  0.00    +0.000 S 
ATOM     25  C   UNL     1      44.386   5.339  11.908  0.00  0.00    +0.000 A 
ATOM     26  N   UNL     1      43.841   4.094  11.851  0.00  0.00    +0.000 NA
ATOM     27  C   UNL     1      44.592   3.158  12.327  0.00  0.00    +0.000 A 
ATOM     28  N   UNL     1      45.836   3.358  12.869  0.00  0.00    +0.000 N 
ATOM     29  C   UNL     1      46.387   4.606  13.031  0.00  0.00    +0.000 A 
ATOM     30  O   UNL     1      47.423   4.758  13.666  0.00  0.00    +0.000 OA
ATOM     31  C   UNL     1      45.612   5.686  12.448  0.00  0.00    +0.000 A 
ATOM     32  H   UNL     1      46.357   2.588  13.263  0.00  0.00    +0.000 HD
ENDBRANCH  19  22
ENDBRANCH   1  20
TORSDOF 7
ENDMDL
