MODEL 1
REMARK VINA RESULT:    -6.732      0.000      0.000
REMARK INTER + INTRA:          -8.816
REMARK INTER:                  -8.110
REMARK INTRA:                  -0.706
REMARK UNBOUND:                -0.706
REMARK  Name = 
REMARK  4 active torsions:
REMARK  status: ('A' for Active; 'I' for Inactive)
REMARK    1  A    between atoms: N_1  and  C_2
REMARK    2  A    between atoms: C_2  and  C_3
REMARK    3  A    between atoms: C_6  and  C_7
REMARK    4  A    between atoms: C_7  and  N_8
REMARK                            x       y       z     vdW  Elec       q    Type
REMARK                         _______ _______ _______ _____ _____    ______ ____
ROOT
ATOM      1  C   UNL     1      44.902   2.896  10.392  0.00  0.00    +0.000 C 
ENDROOT
BRANCH   1   2
ATOM      2  N   UNL     1      44.324   4.086  11.011  0.00  0.00    +0.000 N 
ATOM      3  C   UNL     1      42.986   4.229  11.284  0.00  0.00    +0.000 A 
ATOM      4  C   UNL     1      42.768   5.519  11.699  0.00  0.00    +0.000 A 
ATOM      5  C   UNL     1      44.018   6.191  11.712  0.00  0.00    +0.000 A 
ATOM      6  C   UNL     1      44.418   7.492  12.037  0.00  0.00    +0.000 A 
ATOM      7  N   UNL     1      45.722   7.856  11.976  0.00  0.00    +0.000 NA
ATOM      8  C   UNL     1      46.626   6.931  11.583  0.00  0.00    +0.000 A 
ATOM      9  F   UNL     1      47.910   7.317  11.546  0.00  0.00    +0.000 F 
ATOM     10  C   UNL     1      46.332   5.627  11.221  0.00  0.00    +0.000 A 
ATOM     11  C   UNL     1      44.985   5.265  11.293  0.00  0.00    +0.000 A 
ENDBRANCH   1   2
BRANCH   1  15
ATOM     12  C   UNL     1      47.083   2.927   7.239  0.00  0.00    +0.000 C 
ATOM     13  C   UNL     1      46.324   4.156   7.773  0.00  0.00    +0.000 C 
ATOM     14  C   UNL     1      44.832   3.908   8.011  0.00  0.00    +0.000 C 
ATOM     15  C   UNL     1      44.545   2.689   8.904  0.00  0.00    +0.000 C 
ATOM     16  C   UNL     1      45.274   1.459   8.329  0.00  0.00    +0.000 C 
ATOM     17  C   UNL     1      46.770   1.690   8.100  0.00  0.00    +0.000 C 
BRANCH  12  18
ATOM     18  C   UNL     1      46.830   2.635   5.744  0.00  0.00    +0.000 C 
BRANCH  18  19
ATOM     19  N   UNL     1      48.077   2.487   4.990  0.00  0.00    +0.000 NA
ATOM     20  H   UNL     1      48.803   3.054   5.426  0.00  0.00    +0.000 HD
ATOM     21  H   UNL     1      47.957   2.866   4.050  0.00  0.00    +0.000 HD
ENDBRANCH  18  19
ENDBRANCH  12  18
ENDBRANCH   1  15
TORSDOF 4
ENDMDL
MODEL 2
REMARK VINA RESULT:    -6.568      2.325      5.881
REMARK INTER + INTRA:          -8.618
REMARK INTER:                  -7.971
REMARK INTRA:                  -0.647
REMARK UNBOUND:                -0.706
REMARK  Name = 
REMARK  4 active torsions:
REMARK  status: ('A' for Active; 'I' for Inactive)
REMARK    1  A    between atoms: N_1  and  C_2
REMARK    2  A    between atoms: C_2  and  C_3
REMARK    3  A    between atoms: C_6  and  C_7
REMARK    4  A    between atoms: C_7  and  N_8
REMARK                            x       y       z     vdW  Elec       q    Type
REMARK                         _______ _______ _______ _____ _____    ______ ____
ROOT
ATOM      1  C   UNL     1      44.517   6.650  11.366  0.00  0.00    +0.000 C 
ENDROOT
BRANCH   1   2
ATOM      2  N   UNL     1      44.185   5.266  11.037  0.00  0.00    +0.000 N 
ATOM      3  C   UNL     1      43.367   4.475  11.806  0.00  0.00    +0.000 A 
ATOM      4  C   UNL     1      43.409   3.198  11.304  0.00  0.00    +0.000 A 
ATOM      5  C   UNL     1      44.259   3.204  10.167  0.00  0.00    +0.000 A 
ATOM      6  C   UNL     1      44.678   2.221   9.263  0.00  0.00    +0.000 A 
ATOM      7  N   UNL     1      45.500   2.530   8.230  0.00  0.00    +0.000 NA
ATOM      8  C   UNL     1      45.911   3.811   8.100  0.00  0.00    +0.000 A 
ATOM      9  F   UNL     1      46.711   4.087   7.061  0.00  0.00    +0.000 F 
ATOM     10  C   UNL     1      45.571   4.851   8.950  0.00  0.00    +0.000 A 
ATOM     11  C   UNL     1      44.721   4.519  10.007  0.00  0.00    +0.000 A 
ENDBRANCH   1   2
BRANCH   1  15
ATOM     12  C   UNL     1      48.048   7.587  12.529  0.00  0.00    +0.000 C 
ATOM     13  C   UNL     1      47.535   6.139  12.413  0.00  0.00    +0.000 C 
ATOM     14  C   UNL     1      46.222   5.885  13.158  0.00  0.00    +0.000 C 
ATOM     15  C   UNL     1      45.100   6.867  12.779  0.00  0.00    +0.000 C 
ATOM     16  C   UNL     1      45.615   8.310  12.946  0.00  0.00    +0.000 C 
ATOM     17  C   UNL     1      46.921   8.581  12.195  0.00  0.00    +0.000 C 
BRANCH  12  18
ATOM     18  C   UNL     1      48.686   7.918  13.895  0.00  0.00    +0.000 C 
BRANCH  18  19
ATOM     19  N   UNL     1      49.767   6.991  14.241  0.00  0.00    +0.000 NA
ATOM     20  H   UNL     1      49.943   7.040  15.243  0.00  0.00    +0.000 HD
ATOM     21  H   UNL     1      50.634   7.292  13.794  0.00  0.00    +0.000 HD
ENDBRANCH  18  19
ENDBRANCH  12  18
ENDBRANCH   1  15
TORSDOF 4
ENDMDL
MODEL 3
REMARK VINA RESULT:    -5.802      4.545      6.398
REMARK INTER + INTRA:          -7.695
REMARK INTER:                  -7.289
REMARK INTRA:                  -0.406
REMARK UNBOUND:                -0.706
REMARK  Name = 
REMARK  4 active torsions:
REMARK  status: ('A' for Active; 'I' for Inactive)
REMARK    1  A    between atoms: N_1  and  C_2
REMARK    2  A    between atoms: C_2  and  C_3
REMARK    3  A    between atoms: C_6  and  C_7
REMARK    4  A    between atoms: C_7  and  N_8
REMARK                            x       y       z     vdW  Elec       q    Type
REMARK                         _______ _______ _______ _____ _____    ______ ____
ROOT
ATOM      1  C   UNL     1      47.545   5.710  13.439  0.00  0.00    +0.000 C 
ENDROOT
BRANCH   1   2
ATOM      2  N   UNL     1      48.082   6.018  14.761  0.00  0.00    +0.000 N 
ATOM      3  C   UNL     1      48.874   7.108  15.028  0.00  0.00    +0.000 A 
ATOM      4  C   UNL     1      49.336   6.998  16.315  0.00  0.00    +0.000 A 
ATOM      5  C   UNL     1      48.788   5.815  16.877  0.00  0.00    +0.000 A 
ATOM      6  C   UNL     1      48.896   5.193  18.126  0.00  0.00    +0.000 A 
ATOM      7  N   UNL     1      48.222   4.049  18.394  0.00  0.00    +0.000 NA
ATOM      8  C   UNL     1      47.448   3.518  17.421  0.00  0.00    +0.000 A 
ATOM      9  F   UNL     1      46.782   2.394  17.721  0.00  0.00    +0.000 F 
ATOM     10  C   UNL     1      47.290   4.044  16.149  0.00  0.00    +0.000 A 
ATOM     11  C   UNL     1      47.988   5.225  15.887  0.00  0.00    +0.000 A 
ENDBRANCH   1   2
BRANCH   1  15
ATOM     12  C   UNL     1      45.019   4.500  10.820  0.00  0.00    +0.000 C 
ATOM     13  C   UNL     1      45.827   5.807  10.700  0.00  0.00    +0.000 C 
ATOM     14  C   UNL     1      45.709   6.723  11.920  0.00  0.00    +0.000 C 
ATOM     15  C   UNL     1      46.045   6.024  13.248  0.00  0.00    +0.000 C 
ATOM     16  C   UNL     1      45.195   4.745  13.375  0.00  0.00    +0.000 C 
ATOM     17  C   UNL     1      45.314   3.813  12.166  0.00  0.00    +0.000 C 
BRANCH  12  18
ATOM     18  C   UNL     1      43.500   4.682  10.616  0.00  0.00    +0.000 C 
BRANCH  18  19
ATOM     19  N   UNL     1      42.719   3.679  11.345  0.00  0.00    +0.000 NA
ATOM     20  H   UNL     1      42.231   3.083  10.677  0.00  0.00    +0.000 HD
ATOM     21  H   UNL     1      41.989   4.140  11.888  0.00  0.00    +0.000 HD
ENDBRANCH  18  19
ENDBRANCH  12  18
ENDBRANCH   1  15
TORSDOF 4
ENDMDL
MODEL 4
REMARK VINA RESULT:    -5.473      5.222      7.912
REMARK INTER + INTRA:          -7.298
REMARK INTER:                  -7.002
REMARK INTRA:                  -0.296
REMARK UNBOUND:                -0.706
REMARK  Name = 
REMARK  4 active torsions:
REMARK  status: ('A' for Active; 'I' for Inactive)
REMARK    1  A    between atoms: N_1  and  C_2
REMARK    2  A    between atoms: C_2  and  C_3
REMARK    3  A    between atoms: C_6  and  C_7
REMARK    4  A    between atoms: C_7  and  N_8
REMARK                            x       y       z     vdW  Elec       q    Type
REMARK                         _______ _______ _______ _____ _____    ______ ____
ROOT
ATOM      1  C   UNL     1      47.503   3.874  14.720  0.00  0.00    +0.000 C 
ENDROOT
BRANCH   1   2
ATOM      2  N   UNL     1      47.039   4.673  13.589  0.00  0.00    +0.000 N 
ATOM      3  C   UNL     1      47.591   5.879  13.231  0.00  0.00    +0.000 A 
ATOM      4  C   UNL     1      46.811   6.431  12.245  0.00  0.00    +0.000 A 
ATOM      5  C   UNL     1      45.758   5.523  11.961  0.00  0.00    +0.000 A 
ATOM      6  C   UNL     1      44.678   5.537  11.071  0.00  0.00    +0.000 A 
ATOM      7  N   UNL     1      43.821   4.490  11.001  0.00  0.00    +0.000 NA
ATOM      8  C   UNL     1      44.030   3.434  11.819  0.00  0.00    +0.000 A 
ATOM      9  F   UNL     1      43.174   2.409  11.716  0.00  0.00    +0.000 F 
ATOM     10  C   UNL     1      45.054   3.332  12.746  0.00  0.00    +0.000 A 
ATOM     11  C   UNL     1      45.933   4.416  12.805  0.00  0.00    +0.000 A 
ENDBRANCH   1   2
BRANCH   1  15
ATOM     12  C   UNL     1      49.389   3.818  18.058  0.00  0.00    +0.000 C 
ATOM     13  C   UNL     1      48.351   2.760  17.636  0.00  0.00    +0.000 C 
ATOM     14  C   UNL     1      47.006   3.349  17.205  0.00  0.00    +0.000 C 
ATOM     15  C   UNL     1      47.126   4.424  16.113  0.00  0.00    +0.000 C 
ATOM     16  C   UNL     1      48.132   5.498  16.571  0.00  0.00    +0.000 C 
ATOM     17  C   UNL     1      49.487   4.923  16.992  0.00  0.00    +0.000 C 
BRANCH  12  18
ATOM     18  C   UNL     1      49.135   4.422  19.456  0.00  0.00    +0.000 C 
BRANCH  18  19
ATOM     19  N   UNL     1      48.434   3.491  20.343  0.00  0.00    +0.000 NA
ATOM     20  H   UNL     1      48.136   3.986  21.182  0.00  0.00    +0.000 HD
ATOM     21  H   UNL     1      49.081   2.770  20.664  0.00  0.00    +0.000 HD
ENDBRANCH  18  19
ENDBRANCH  12  18
ENDBRANCH   1  15
TORSDOF 4
ENDMDL
MODEL 5
REMARK VINA RESULT:    -5.361      3.354      5.492
REMARK INTER + INTRA:          -7.164
REMARK INTER:                  -6.770
REMARK INTRA:                  -0.394
REMARK UNBOUND:                -0.706
REMARK  Name = 
REMARK  4 active torsions:
REMARK  status: ('A' for Active; 'I' for Inactive)
REMARK    1  A    between atoms: N_1  and  C_2
REMARK    2  A    between atoms: C_2  and  C_3
REMARK    3  A    between atoms: C_6  and  C_7
REMARK    4  A    between atoms: C_7  and  N_8
REMARK                            x       y       z     vdW  Elec       q    Type
REMARK                         _______ _______ _______ _____ _____    ______ ____
ROOT
ATOM      1  C   UNL     1      47.138   6.525  12.489  0.00  0.00    +0.000 C 
ENDROOT
BRANCH   1   2
ATOM      2  N   UNL     1      47.616   7.897  12.345  0.00  0.00    +0.000 N 
ATOM      3  C   UNL     1      46.827   9.004  12.542  0.00  0.00    +0.000 A 
ATOM      4  C   UNL     1      47.540  10.113  12.159  0.00  0.00    +0.000 A 
ATOM      5  C   UNL     1      48.825   9.682  11.738  0.00  0.00    +0.000 A 
ATOM      6  C   UNL     1      49.959  10.343  11.251  0.00  0.00    +0.000 A 
ATOM      7  N   UNL     1      51.085   9.656  10.942  0.00  0.00    +0.000 NA
ATOM      8  C   UNL     1      51.083   8.314  11.108  0.00  0.00    +0.000 A 
ATOM      9  F   UNL     1      52.217   7.665  10.807  0.00  0.00    +0.000 F 
ATOM     10  C   UNL     1      50.010   7.566  11.563  0.00  0.00    +0.000 A 
ATOM     11  C   UNL     1      48.857   8.287  11.881  0.00  0.00    +0.000 A 
ENDBRANCH   1   2
BRANCH   1  15
ATOM     12  C   UNL     1      44.868   3.756  11.116  0.00  0.00    +0.000 C 
ATOM     13  C   UNL     1      45.230   5.038  10.341  0.00  0.00    +0.000 C 
ATOM     14  C   UNL     1      44.953   6.329  11.115  0.00  0.00    +0.000 C 
ATOM     15  C   UNL     1      45.602   6.363  12.508  0.00  0.00    +0.000 C 
ATOM     16  C   UNL     1      45.193   5.098  13.287  0.00  0.00    +0.000 C 
ATOM     17  C   UNL     1      45.477   3.798  12.529  0.00  0.00    +0.000 C 
BRANCH  12  18
ATOM     18  C   UNL     1      43.353   3.468  11.178  0.00  0.00    +0.000 C 
BRANCH  18  19
ATOM     19  N   UNL     1      43.062   2.153  11.755  0.00  0.00    +0.000 NA
ATOM     20  H   UNL     1      42.710   2.273  12.704  0.00  0.00    +0.000 HD
ATOM     21  H   UNL     1      43.928   1.620  11.847  0.00  0.00    +0.000 HD
ENDBRANCH  18  19
ENDBRANCH  12  18
ENDBRANCH   1  15
TORSDOF 4
ENDMDL
MODEL 6
REMARK VINA RESULT:    -4.970      3.494      5.746
REMARK INTER + INTRA:          -6.693
REMARK INTER:                  -6.158
REMARK INTRA:                  -0.535
REMARK UNBOUND:                -0.706
REMARK  Name = 
REMARK  4 active torsions:
REMARK  status: ('A' for Active; 'I' for Inactive)
REMARK    1  A    between atoms: N_1  and  C_2
REMARK    2  A    between atoms: C_2  and  C_3
REMARK    3  A    between atoms: C_6  and  C_7
REMARK    4  A    between atoms: C_7  and  N_8
REMARK                            x       y       z     vdW  Elec       q    Type
REMARK                         _______ _______ _______ _____ _____    ______ ____
ROOT
ATOM      1  C   UNL     1      46.923   6.854  11.850  0.00  0.00    +0.000 C 
ENDROOT
BRANCH   1   2
ATOM      2  N   UNL     1      47.526   8.008  12.510  0.00  0.00    +0.000 N 
ATOM      3  C   UNL     1      47.351   9.304  12.090  0.00  0.00    +0.000 A 
ATOM      4  C   UNL     1      48.187  10.109  12.822  0.00  0.00    +0.000 A 
ATOM      5  C   UNL     1      48.881   9.288  13.749  0.00  0.00    +0.000 A 
ATOM      6  C   UNL     1      49.843   9.538  14.736  0.00  0.00    +0.000 A 
ATOM      7  N   UNL     1      50.325   8.533  15.507  0.00  0.00    +0.000 NA
ATOM      8  C   UNL     1      49.861   7.282  15.293  0.00  0.00    +0.000 A 
ATOM      9  F   UNL     1      50.346   6.312  16.081  0.00  0.00    +0.000 F 
ATOM     10  C   UNL     1      48.928   6.928  14.331  0.00  0.00    +0.000 A 
ATOM     11  C   UNL     1      48.436   7.974  13.547  0.00  0.00    +0.000 A 
ENDBRANCH   1   2
BRANCH   1  15
ATOM     12  C   UNL     1      45.051   3.507  11.862  0.00  0.00    +0.000 C 
ATOM     13  C   UNL     1      44.932   4.557  10.740  0.00  0.00    +0.000 C 
ATOM     14  C   UNL     1      44.572   5.958  11.239  0.00  0.00    +0.000 C 
ATOM     15  C   UNL     1      45.508   6.479  12.343  0.00  0.00    +0.000 C 
ATOM     16  C   UNL     1      45.578   5.438  13.477  0.00  0.00    +0.000 C 
ATOM     17  C   UNL     1      45.952   4.035  12.993  0.00  0.00    +0.000 C 
BRANCH  12  18
ATOM     18  C   UNL     1      43.693   3.028  12.417  0.00  0.00    +0.000 C 
BRANCH  18  19
ATOM     19  N   UNL     1      42.981   2.165  11.471  0.00  0.00    +0.000 NA
ATOM     20  H   UNL     1      43.605   1.922  10.703  0.00  0.00    +0.000 HD
ATOM     21  H   UNL     1      42.210   2.683  11.048  0.00  0.00    +0.000 HD
ENDBRANCH  18  19
ENDBRANCH  12  18
ENDBRANCH   1  15
TORSDOF 4
ENDMDL
MODEL 7
REMARK VINA RESULT:    -4.854      5.010      7.626
REMARK INTER + INTRA:          -6.553
REMARK INTER:                  -6.078
REMARK INTRA:                  -0.476
REMARK UNBOUND:                -0.706
REMARK  Name = 
REMARK  4 active torsions:
REMARK  status: ('A' for Active; 'I' for Inactive)
REMARK    1  A    between atoms: N_1  and  C_2
REMARK    2  A    between atoms: C_2  and  C_3
REMARK    3  A    between atoms: C_6  and  C_7
REMARK    4  A    between atoms: C_7  and  N_8
REMARK                            x       y       z     vdW  Elec       q    Type
REMARK                         _______ _______ _______ _____ _____    ______ ____
ROOT
ATOM      1  C   UNL     1      47.810   4.449  14.651  0.00  0.00    +0.000 C 
ENDROOT
BRANCH   1   2
ATOM      2  N   UNL     1      46.739   4.427  13.659  0.00  0.00    +0.000 N 
ATOM      3  C   UNL     1      46.176   3.274  13.170  0.00  0.00    +0.000 A 
ATOM      4  C   UNL     1      45.332   3.611  12.141  0.00  0.00    +0.000 A 
ATOM      5  C   UNL     1      45.349   5.024  12.008  0.00  0.00    +0.000 A 
ATOM      6  C   UNL     1      44.704   5.926  11.153  0.00  0.00    +0.000 A 
ATOM      7  N   UNL     1      44.900   7.261  11.274  0.00  0.00    +0.000 NA
ATOM      8  C   UNL     1      45.741   7.700  12.238  0.00  0.00    +0.000 A 
ATOM      9  F   UNL     1      45.903   9.026  12.342  0.00  0.00    +0.000 F 
ATOM     10  C   UNL     1      46.441   6.891  13.119  0.00  0.00    +0.000 A 
ATOM     11  C   UNL     1      46.226   5.517  12.984  0.00  0.00    +0.000 A 
ENDBRANCH   1   2
BRANCH   1  15
ATOM     12  C   UNL     1      49.381   3.885  18.103  0.00  0.00    +0.000 C 
ATOM     13  C   UNL     1      48.244   3.023  17.522  0.00  0.00    +0.000 C 
ATOM     14  C   UNL     1      47.036   3.831  17.042  0.00  0.00    +0.000 C 
ATOM     15  C   UNL     1      47.398   4.950  16.052  0.00  0.00    +0.000 C 
ATOM     16  C   UNL     1      48.503   5.831  16.668  0.00  0.00    +0.000 C 
ATOM     17  C   UNL     1      49.723   5.036  17.139  0.00  0.00    +0.000 C 
BRANCH  12  18
ATOM     18  C   UNL     1      49.098   4.422  19.522  0.00  0.00    +0.000 C 
BRANCH  18  19
ATOM     19  N   UNL     1      48.393   3.443  20.354  0.00  0.00    +0.000 NA
ATOM     20  H   UNL     1      47.391   3.526  20.193  0.00  0.00    +0.000 HD
ATOM     21  H   UNL     1      48.534   3.666  21.340  0.00  0.00    +0.000 HD
ENDBRANCH  18  19
ENDBRANCH  12  18
ENDBRANCH   1  15
TORSDOF 4
ENDMDL
MODEL 8
REMARK VINA RESULT:    -4.852      4.049      6.575
REMARK INTER + INTRA:          -6.550
REMARK INTER:                  -6.031
REMARK INTRA:                  -0.519
REMARK UNBOUND:                -0.706
REMARK  Name = 
REMARK  4 active torsions:
REMARK  status: ('A' for Active; 'I' for Inactive)
REMARK    1  A    between atoms: N_1  and  C_2
REMARK    2  A    between atoms: C_2  and  C_3
REMARK    3  A    between atoms: C_6  and  C_7
REMARK    4  A    between atoms: C_7  and  N_8
REMARK                            x       y       z     vdW  Elec       q    Type
REMARK                         _______ _______ _______ _____ _____    ______ ____
ROOT
ATOM      1  C   UNL     1      46.941   7.083  13.550  0.00  0.00    +0.000 C 
ENDROOT
BRANCH   1   2
ATOM      2  N   UNL     1      48.307   7.429  13.932  0.00  0.00    +0.000 N 
ATOM      3  C   UNL     1      49.132   8.225  13.175  0.00  0.00    +0.000 A 
ATOM      4  C   UNL     1      50.384   8.202  13.737  0.00  0.00    +0.000 A 
ATOM      5  C   UNL     1      50.327   7.389  14.899  0.00  0.00    +0.000 A 
ATOM      6  C   UNL     1      51.268   7.002  15.860  0.00  0.00    +0.000 A 
ATOM      7  N   UNL     1      50.913   6.213  16.903  0.00  0.00    +0.000 NA
ATOM      8  C   UNL     1      49.628   5.802  16.987  0.00  0.00    +0.000 A 
ATOM      9  F   UNL     1      49.304   5.035  18.037  0.00  0.00    +0.000 F 
ATOM     10  C   UNL     1      48.628   6.112  16.079  0.00  0.00    +0.000 A 
ATOM     11  C   UNL     1      49.007   6.929  15.012  0.00  0.00    +0.000 A 
ENDBRANCH   1   2
BRANCH   1  15
ATOM     12  C   UNL     1      43.869   5.459  11.930  0.00  0.00    +0.000 C 
ATOM     13  C   UNL     1      44.513   4.969  13.242  0.00  0.00    +0.000 C 
ATOM     14  C   UNL     1      46.016   4.702  13.133  0.00  0.00    +0.000 C 
ATOM     15  C   UNL     1      46.813   5.893  12.575  0.00  0.00    +0.000 C 
ATOM     16  C   UNL     1      46.185   6.340  11.240  0.00  0.00    +0.000 C 
ATOM     17  C   UNL     1      44.684   6.623  11.339  0.00  0.00    +0.000 C 
BRANCH  12  18
ATOM     18  C   UNL     1      43.659   4.345  10.882  0.00  0.00    +0.000 C 
BRANCH  18  19
ATOM     19  N   UNL     1      42.972   3.179  11.442  0.00  0.00    +0.000 NA
ATOM     20  H   UNL     1      42.188   2.930  10.841  0.00  0.00    +0.000 HD
ATOM     21  H   UNL     1      42.563   3.422  12.344  0.00  0.00    +0.000 HD
ENDBRANCH  18  19
ENDBRANCH  12  18
ENDBRANCH   1  15
TORSDOF 4
ENDMDL
MODEL 9
REMARK VINA RESULT:    -4.775      5.302      6.924
REMARK INTER + INTRA:          -6.458
REMARK INTER:                  -5.931
REMARK INTRA:                  -0.527
REMARK UNBOUND:                -0.706
REMARK  Name = 
REMARK  4 active torsions:
REMARK  status: ('A' for Active; 'I' for Inactive)
REMARK    1  A    between atoms: N_1  and  C_2
REMARK    2  A    between atoms: C_2  and  C_3
REMARK    3  A    between atoms: C_6  and  C_7
REMARK    4  A    between atoms: C_7  and  N_8
REMARK                            x       y       z     vdW  Elec       q    Type
REMARK                         _______ _______ _______ _____ _____    ______ ____
ROOT
ATOM      1  C   UNL     1      46.802   4.398  15.322  0.00  0.00    +0.000 C 
ENDROOT
BRANCH   1   2
ATOM      2  N   UNL     1      47.902   4.075  16.226  0.00  0.00    +0.000 N 
ATOM      3  C   UNL     1      48.227   2.795  16.603  0.00  0.00    +0.000 A 
ATOM      4  C   UNL     1      49.188   2.867  17.581  0.00  0.00    +0.000 A 
ATOM      5  C   UNL     1      49.490   4.238  17.796  0.00  0.00    +0.000 A 
ATOM      6  C   UNL     1      50.369   4.915  18.649  0.00  0.00    +0.000 A 
ATOM      7  N   UNL     1      50.464   6.267  18.620  0.00  0.00    +0.000 NA
ATOM      8  C   UNL     1      49.681   6.945  17.751  0.00  0.00    +0.000 A 
ATOM      9  F   UNL     1      49.807   8.279  17.735  0.00  0.00    +0.000 F 
ATOM     10  C   UNL     1      48.767   6.371  16.881  0.00  0.00    +0.000 A 
ATOM     11  C   UNL     1      48.683   4.977  16.920  0.00  0.00    +0.000 A 
ENDBRANCH   1   2
BRANCH   1  15
ATOM     12  C   UNL     1      45.121   5.895  12.218  0.00  0.00    +0.000 C 
ATOM     13  C   UNL     1      44.777   4.511  12.801  0.00  0.00    +0.000 C 
ATOM     14  C   UNL     1      45.993   3.602  12.996  0.00  0.00    +0.000 C 
ATOM     15  C   UNL     1      47.120   4.248  13.818  0.00  0.00    +0.000 C 
ATOM     16  C   UNL     1      47.483   5.609  13.194  0.00  0.00    +0.000 C 
ATOM     17  C   UNL     1      46.278   6.534  13.007  0.00  0.00    +0.000 C 
BRANCH  12  18
ATOM     18  C   UNL     1      45.429   5.879  10.706  0.00  0.00    +0.000 C 
BRANCH  18  19
ATOM     19  N   UNL     1      44.430   5.124   9.945  0.00  0.00    +0.000 NA
ATOM     20  H   UNL     1      44.162   5.659   9.120  0.00  0.00    +0.000 HD
ATOM     21  H   UNL     1      43.579   5.027  10.499  0.00  0.00    +0.000 HD
ENDBRANCH  18  19
ENDBRANCH  12  18
ENDBRANCH   1  15
TORSDOF 4
ENDMDL
