MODEL 1
REMARK VINA RESULT:    -8.478      0.000      0.000
REMARK INTER + INTRA:         -11.910
REMARK INTER:                 -10.956
REMARK INTRA:                  -0.953
REMARK UNBOUND:                -0.953
REMARK  Name = 
REMARK  6 active torsions:
REMARK  status: ('A' for Active; 'I' for Inactive)
REMARK    1  A    between atoms: C_1  and  C_2
REMARK    2  A    between atoms: C_5  and  C_6
REMARK    3  A    between atoms: C_6  and  C_7
REMARK    4  A    between atoms: C_10  and  C_11
REMARK    5  A    between atoms: C_11  and  N_12
REMARK    6  A    between atoms: C_13  and  C_15
REMARK                            x       y       z     vdW  Elec       q    Type
REMARK                         _______ _______ _______ _____ _____    ______ ____
ROOT
ATOM      1  C   UNL     1      47.196   8.140  13.538  0.00  0.00    +0.000 C 
ENDROOT
BRANCH   1   5
ATOM      2  C   UNL     1      44.783   5.735  10.965  0.00  0.00    +0.000 A 
ATOM      3  C   UNL     1      44.422   7.066  11.194  0.00  0.00    +0.000 A 
ATOM      4  C   UNL     1      45.205   7.863  12.025  0.00  0.00    +0.000 A 
ATOM      5  C   UNL     1      46.326   7.306  12.629  0.00  0.00    +0.000 A 
ATOM      6  N   UNL     1      46.705   6.019  12.414  0.00  0.00    +0.000 NA
ATOM      7  C   UNL     1      45.938   5.273  11.586  0.00  0.00    +0.000 A 
BRANCH   2   8
ATOM      8  C   UNL     1      43.958   4.830  10.094  0.00  0.00    +0.000 C 
BRANCH   8  13
ATOM      9  C   UNL     1      47.327   1.495   6.821  0.00  0.00    +0.000 C 
ATOM     10  C   UNL     1      46.387   2.307   7.653  0.00  0.00    +0.000 A 
ATOM     11  C   UNL     1      45.596   1.731   8.645  0.00  0.00    +0.000 A 
ATOM     12  C   UNL     1      44.766   2.537   9.422  0.00  0.00    +0.000 A 
ATOM     13  C   UNL     1      44.751   3.912   9.194  0.00  0.00    +0.000 A 
ATOM     14  N   UNL     1      45.484   4.489   8.210  0.00  0.00    +0.000 NA
ATOM     15  C   UNL     1      46.274   3.680   7.466  0.00  0.00    +0.000 A 
ENDBRANCH   8  13
ENDBRANCH   2   8
ENDBRANCH   1   5
BRANCH   1  16
ATOM     16  N   UNL     1      47.611   7.410  14.714  0.00  0.00    +0.000 N 
ATOM     17  C   UNL     1      48.867   6.889  14.853  0.00  0.00    +0.000 C 
ATOM     18  O   UNL     1      49.729   7.014  13.984  0.00  0.00    +0.000 OA
ATOM     19  H   UNL     1      46.858   7.094  15.318  0.00  0.00    +0.000 HD
BRANCH  17  20
ATOM     20  C   UNL     1      49.162   6.228  16.134  0.00  0.00    +0.000 A 
ATOM     21  C   UNL     1      50.168   6.731  16.948  0.00  0.00    +0.000 A 
ATOM     22  S   UNL     1      50.345   5.892  18.422  0.00  0.00    +0.000 S 
ATOM     23  C   UNL     1      49.115   4.793  18.008  0.00  0.00    +0.000 A 
ATOM     24  N   UNL     1      48.773   3.777  18.845  0.00  0.00    +0.000 NA
ATOM     25  C   UNL     1      47.850   2.997  18.389  0.00  0.00    +0.000 A 
ATOM     26  N   UNL     1      47.232   3.146  17.176  0.00  0.00    +0.000 N 
ATOM     27  C   UNL     1      47.503   4.190  16.324  0.00  0.00    +0.000 A 
ATOM     28  O   UNL     1      46.866   4.345  15.288  0.00  0.00    +0.000 OA
ATOM     29  C   UNL     1      48.562   5.076  16.771  0.00  0.00    +0.000 A 
ATOM     30  H   UNL     1      46.501   2.515  16.884  0.00  0.00    +0.000 HD
ENDBRANCH  17  20
ENDBRANCH   1  16
TORSDOF 5
ENDMDL
MODEL 2
REMARK VINA RESULT:    -8.015      2.192      3.802
REMARK INTER + INTRA:         -11.311
REMARK INTER:                 -10.375
REMARK INTRA:                  -0.936
REMARK UNBOUND:                -0.953
REMARK  Name = 
REMARK  6 active torsions:
REMARK  status: ('A' for Active; 'I' for Inactive)
REMARK    1  A    between atoms: C_1  and  C_2
REMARK    2  A    between atoms: C_5  and  C_6
REMARK    3  A    between atoms: C_6  and  C_7
REMARK    4  A    between atoms: C_10  and  C_11
REMARK    5  A    between atoms: C_11  and  N_12
REMARK    6  A    between atoms: C_13  and  C_15
REMARK                            x       y       z     vdW  Elec       q    Type
REMARK                         _______ _______ _______ _____ _____    ______ ____
ROOT
ATOM      1  C   UNL     1      46.975   4.759  15.085  0.00  0.00    +0.000 C 
ENDROOT
BRANCH   1   5
ATOM      2  C   UNL     1      44.984   4.216  11.348  0.00  0.00    +0.000 A 
ATOM      3  C   UNL     1      45.323   5.507  11.760  0.00  0.00    +0.000 A 
ATOM      4  C   UNL     1      45.979   5.697  12.973  0.00  0.00    +0.000 A 
ATOM      5  C   UNL     1      46.267   4.589  13.762  0.00  0.00    +0.000 A 
ATOM      6  N   UNL     1      45.959   3.323  13.380  0.00  0.00    +0.000 NA
ATOM      7  C   UNL     1      45.340   3.165  12.186  0.00  0.00    +0.000 A 
BRANCH   2   8
ATOM      8  C   UNL     1      44.257   3.961  10.057  0.00  0.00    +0.000 C 
BRANCH   8  13
ATOM      9  C   UNL     1      47.856   2.158   5.936  0.00  0.00    +0.000 C 
ATOM     10  C   UNL     1      46.866   2.566   6.980  0.00  0.00    +0.000 A 
ATOM     11  C   UNL     1      46.297   1.643   7.856  0.00  0.00    +0.000 A 
ATOM     12  C   UNL     1      45.410   2.078   8.839  0.00  0.00    +0.000 A 
ATOM     13  C   UNL     1      45.116   3.438   8.931  0.00  0.00    +0.000 A 
ATOM     14  N   UNL     1      45.629   4.348   8.067  0.00  0.00    +0.000 NA
ATOM     15  C   UNL     1      46.481   3.895   7.117  0.00  0.00    +0.000 A 
ENDBRANCH   8  13
ENDBRANCH   2   8
ENDBRANCH   1   5
BRANCH   1  16
ATOM     16  N   UNL     1      47.801   5.944  15.112  0.00  0.00    +0.000 N 
ATOM     17  C   UNL     1      48.912   6.050  15.901  0.00  0.00    +0.000 C 
ATOM     18  O   UNL     1      49.284   5.136  16.637  0.00  0.00    +0.000 OA
ATOM     19  H   UNL     1      47.381   6.776  14.708  0.00  0.00    +0.000 HD
BRANCH  17  20
ATOM     20  C   UNL     1      49.690   7.292  15.772  0.00  0.00    +0.000 A 
ATOM     21  C   UNL     1      50.093   7.969  16.915  0.00  0.00    +0.000 A 
ATOM     22  S   UNL     1      51.037   9.354  16.598  0.00  0.00    +0.000 S 
ATOM     23  C   UNL     1      50.901   9.129  14.918  0.00  0.00    +0.000 A 
ATOM     24  N   UNL     1      51.475  10.002  14.047  0.00  0.00    +0.000 NA
ATOM     25  C   UNL     1      51.263   9.732  12.802  0.00  0.00    +0.000 A 
ATOM     26  N   UNL     1      50.536   8.661  12.349  0.00  0.00    +0.000 N 
ATOM     27  C   UNL     1      49.989   7.722  13.190  0.00  0.00    +0.000 A 
ATOM     28  O   UNL     1      49.425   6.728  12.749  0.00  0.00    +0.000 OA
ATOM     29  C   UNL     1      50.165   8.000  14.604  0.00  0.00    +0.000 A 
ATOM     30  H   UNL     1      50.423   8.491  11.362  0.00  0.00    +0.000 HD
ENDBRANCH  17  20
ENDBRANCH   1  16
TORSDOF 5
ENDMDL
MODEL 3
REMARK VINA RESULT:    -7.726      1.895      2.256
REMARK INTER + INTRA:         -10.938
REMARK INTER:                  -9.984
REMARK INTRA:                  -0.954
REMARK UNBOUND:                -0.953
REMARK  Name = 
REMARK  6 active torsions:
REMARK  status: ('A' for Active; 'I' for Inactive)
REMARK    1  A    between atoms: C_1  and  C_2
REMARK    2  A    between atoms: C_5  and  C_6
REMARK    3  A    between atoms: C_6  and  C_7
REMARK    4  A    between atoms: C_10  and  C_11
REMARK    5  A    between atoms: C_11  and  N_12
REMARK    6  A    between atoms: C_13  and  C_15
REMARK                            x       y       z     vdW  Elec       q    Type
REMARK                         _______ _______ _______ _____ _____    ______ ____
ROOT
ATOM      1  C   UNL     1      47.806   7.814  13.804  0.00  0.00    +0.000 C 
ENDROOT
BRANCH   1   5
ATOM      2  C   UNL     1      45.165   5.636  11.253  0.00  0.00    +0.000 A 
ATOM      3  C   UNL     1      45.171   7.032  11.198  0.00  0.00    +0.000 A 
ATOM      4  C   UNL     1      46.033   7.754  12.019  0.00  0.00    +0.000 A 
ATOM      5  C   UNL     1      46.861   7.063  12.897  0.00  0.00    +0.000 A 
ATOM      6  N   UNL     1      46.883   5.706  12.962  0.00  0.00    +0.000 NA
ATOM      7  C   UNL     1      46.050   5.029  12.138  0.00  0.00    +0.000 A 
BRANCH   2   8
ATOM      8  C   UNL     1      44.238   4.813  10.402  0.00  0.00    +0.000 C 
BRANCH   8  13
ATOM      9  C   UNL     1      47.197   1.599   6.647  0.00  0.00    +0.000 C 
ATOM     10  C   UNL     1      46.360   2.385   7.604  0.00  0.00    +0.000 A 
ATOM     11  C   UNL     1      45.613   1.768   8.607  0.00  0.00    +0.000 A 
ATOM     12  C   UNL     1      44.881   2.547   9.502  0.00  0.00    +0.000 A 
ATOM     13  C   UNL     1      44.919   3.935   9.379  0.00  0.00    +0.000 A 
ATOM     14  N   UNL     1      45.609   4.554   8.389  0.00  0.00    +0.000 NA
ATOM     15  C   UNL     1      46.303   3.772   7.530  0.00  0.00    +0.000 A 
ENDBRANCH   8  13
ENDBRANCH   2   8
ENDBRANCH   1   5
BRANCH   1  16
ATOM     16  N   UNL     1      47.876   7.225  15.123  0.00  0.00    +0.000 N 
ATOM     17  C   UNL     1      49.046   6.773  15.666  0.00  0.00    +0.000 C 
ATOM     18  O   UNL     1      50.119   6.845  15.067  0.00  0.00    +0.000 OA
ATOM     19  H   UNL     1      46.986   6.942  15.520  0.00  0.00    +0.000 HD
BRANCH  17  20
ATOM     20  C   UNL     1      48.972   6.260  17.043  0.00  0.00    +0.000 A 
ATOM     21  C   UNL     1      49.432   4.980  17.322  0.00  0.00    +0.000 A 
ATOM     22  S   UNL     1      49.334   4.557  18.971  0.00  0.00    +0.000 S 
ATOM     23  C   UNL     1      48.628   6.053  19.369  0.00  0.00    +0.000 A 
ATOM     24  N   UNL     1      48.265   6.337  20.649  0.00  0.00    +0.000 NA
ATOM     25  C   UNL     1      47.707   7.491  20.802  0.00  0.00    +0.000 A 
ATOM     26  N   UNL     1      47.489   8.392  19.793  0.00  0.00    +0.000 N 
ATOM     27  C   UNL     1      47.891   8.172  18.497  0.00  0.00    +0.000 A 
ATOM     28  O   UNL     1      47.763   9.038  17.638  0.00  0.00    +0.000 OA
ATOM     29  C   UNL     1      48.489   6.872  18.262  0.00  0.00    +0.000 A 
ATOM     30  H   UNL     1      47.067   9.289  19.980  0.00  0.00    +0.000 HD
ENDBRANCH  17  20
ENDBRANCH   1  16
TORSDOF 5
ENDMDL
MODEL 4
REMARK VINA RESULT:    -7.267      2.463      3.547
REMARK INTER + INTRA:         -10.345
REMARK INTER:                  -9.667
REMARK INTRA:                  -0.678
REMARK UNBOUND:                -0.953
REMARK  Name = 
REMARK  6 active torsions:
REMARK  status: ('A' for Active; 'I' for Inactive)
REMARK    1  A    between atoms: C_1  and  C_2
REMARK    2  A    between atoms: C_5  and  C_6
REMARK    3  A    between atoms: C_6  and  C_7
REMARK    4  A    between atoms: C_10  and  C_11
REMARK    5  A    between atoms: C_11  and  N_12
REMARK    6  A    between atoms: C_13  and  C_15
REMARK                            x       y       z     vdW  Elec       q    Type
REMARK                         _______ _______ _______ _____ _____    ______ ____
ROOT
ATOM      1  C   UNL     1      47.171   4.725  15.256  0.00  0.00    +0.000 C 
ENDROOT
BRANCH   1   5
ATOM      2  C   UNL     1      45.240   4.669  11.449  0.00  0.00    +0.000 A 
ATOM      3  C   UNL     1      45.907   5.825  11.860  0.00  0.00    +0.000 A 
ATOM      4  C   UNL     1      46.548   5.855  13.096  0.00  0.00    +0.000 A 
ATOM      5  C   UNL     1      46.491   4.728  13.908  0.00  0.00    +0.000 A 
ATOM      6  N   UNL     1      45.859   3.587  13.529  0.00  0.00    +0.000 NA
ATOM      7  C   UNL     1      45.262   3.580  12.314  0.00  0.00    +0.000 A 
BRANCH   2   8
ATOM      8  C   UNL     1      44.516   4.596  10.134  0.00  0.00    +0.000 C 
BRANCH   8  13
ATOM      9  C   UNL     1      47.751   2.082   6.084  0.00  0.00    +0.000 C 
ATOM     10  C   UNL     1      46.844   2.687   7.108  0.00  0.00    +0.000 A 
ATOM     11  C   UNL     1      46.091   1.901   7.979  0.00  0.00    +0.000 A 
ATOM     12  C   UNL     1      45.292   2.512   8.945  0.00  0.00    +0.000 A 
ATOM     13  C   UNL     1      45.272   3.904   9.025  0.00  0.00    +0.000 A 
ATOM     14  N   UNL     1      45.969   4.687   8.165  0.00  0.00    +0.000 NA
ATOM     15  C   UNL     1      46.728   4.066   7.232  0.00  0.00    +0.000 A 
ENDBRANCH   8  13
ENDBRANCH   2   8
ENDBRANCH   1   5
BRANCH   1  16
ATOM     16  N   UNL     1      47.960   5.917  15.470  0.00  0.00    +0.000 N 
ATOM     17  C   UNL     1      48.518   6.225  16.679  0.00  0.00    +0.000 C 
ATOM     18  O   UNL     1      48.389   5.499  17.664  0.00  0.00    +0.000 OA
ATOM     19  H   UNL     1      47.872   6.631  14.752  0.00  0.00    +0.000 HD
BRANCH  17  20
ATOM     20  C   UNL     1      49.349   7.438  16.726  0.00  0.00    +0.000 A 
ATOM     21  C   UNL     1      48.738   8.685  16.762  0.00  0.00    +0.000 A 
ATOM     22  S   UNL     1      49.836   9.986  16.877  0.00  0.00    +0.000 S 
ATOM     23  C   UNL     1      51.172   8.934  16.835  0.00  0.00    +0.000 A 
ATOM     24  N   UNL     1      52.443   9.416  16.874  0.00  0.00    +0.000 NA
ATOM     25  C   UNL     1      53.360   8.510  16.797  0.00  0.00    +0.000 A 
ATOM     26  N   UNL     1      53.121   7.165  16.695  0.00  0.00    +0.000 N 
ATOM     27  C   UNL     1      51.856   6.629  16.711  0.00  0.00    +0.000 A 
ATOM     28  O   UNL     1      51.681   5.416  16.711  0.00  0.00    +0.000 OA
ATOM     29  C   UNL     1      50.785   7.607  16.757  0.00  0.00    +0.000 A 
ATOM     30  H   UNL     1      53.882   6.504  16.660  0.00  0.00    +0.000 HD
ENDBRANCH  17  20
ENDBRANCH   1  16
TORSDOF 5
ENDMDL
MODEL 5
REMARK VINA RESULT:    -6.941      3.568      4.449
REMARK INTER + INTRA:          -9.923
REMARK INTER:                  -8.929
REMARK INTRA:                  -0.994
REMARK UNBOUND:                -0.953
REMARK  Name = 
REMARK  6 active torsions:
REMARK  status: ('A' for Active; 'I' for Inactive)
REMARK    1  A    between atoms: C_1  and  C_2
REMARK    2  A    between atoms: C_5  and  C_6
REMARK    3  A    between atoms: C_6  and  C_7
REMARK    4  A    between atoms: C_10  and  C_11
REMARK    5  A    between atoms: C_11  and  N_12
REMARK    6  A    between atoms: C_13  and  C_15
REMARK                            x       y       z     vdW  Elec       q    Type
REMARK                         _______ _______ _______ _____ _____    ______ ____
ROOT
ATOM      1  C   UNL     1      46.007   8.645  13.271  0.00  0.00    +0.000 C 
ENDROOT
BRANCH   1   5
ATOM      2  C   UNL     1      44.622   5.176  11.203  0.00  0.00    +0.000 A 
ATOM      3  C   UNL     1      45.649   5.048  12.141  0.00  0.00    +0.000 A 
ATOM      4  C   UNL     1      46.105   6.170  12.828  0.00  0.00    +0.000 A 
ATOM      5  C   UNL     1      45.535   7.406  12.547  0.00  0.00    +0.000 A 
ATOM      6  N   UNL     1      44.527   7.557  11.649  0.00  0.00    +0.000 NA
ATOM      7  C   UNL     1      44.090   6.446  11.011  0.00  0.00    +0.000 A 
BRANCH   2   8
ATOM      8  C   UNL     1      44.111   3.998  10.422  0.00  0.00    +0.000 C 
BRANCH   8  13
ATOM      9  C   UNL     1      47.394   1.797   6.231  0.00  0.00    +0.000 C 
ATOM     10  C   UNL     1      46.606   2.422   7.338  0.00  0.00    +0.000 A 
ATOM     11  C   UNL     1      46.426   3.802   7.424  0.00  0.00    +0.000 A 
ATOM     12  C   UNL     1      45.648   4.334   8.451  0.00  0.00    +0.000 A 
ATOM     13  C   UNL     1      45.057   3.469   9.370  0.00  0.00    +0.000 A 
ATOM     14  N   UNL     1      45.249   2.127   9.326  0.00  0.00    +0.000 NA
ATOM     15  C   UNL     1      46.016   1.640   8.323  0.00  0.00    +0.000 A 
ENDBRANCH   8  13
ENDBRANCH   2   8
ENDBRANCH   1   5
BRANCH   1  16
ATOM     16  N   UNL     1      47.422   8.875  13.089  0.00  0.00    +0.000 N 
ATOM     17  C   UNL     1      48.289   8.995  14.139  0.00  0.00    +0.000 C 
ATOM     18  O   UNL     1      47.919   8.908  15.309  0.00  0.00    +0.000 OA
ATOM     19  H   UNL     1      47.697   9.186  12.163  0.00  0.00    +0.000 HD
BRANCH  17  20
ATOM     20  C   UNL     1      49.710   9.161  13.798  0.00  0.00    +0.000 A 
ATOM     21  C   UNL     1      50.510   9.986  14.577  0.00  0.00    +0.000 A 
ATOM     22  S   UNL     1      52.144  10.023  14.087  0.00  0.00    +0.000 S 
ATOM     23  C   UNL     1      51.834   8.974  12.785  0.00  0.00    +0.000 A 
ATOM     24  N   UNL     1      52.827   8.610  11.929  0.00  0.00    +0.000 NA
ATOM     25  C   UNL     1      52.446   7.840  10.965  0.00  0.00    +0.000 A 
ATOM     26  N   UNL     1      51.163   7.394  10.785  0.00  0.00    +0.000 N 
ATOM     27  C   UNL     1      50.141   7.688  11.656  0.00  0.00    +0.000 A 
ATOM     28  O   UNL     1      49.027   7.197  11.515  0.00  0.00    +0.000 OA
ATOM     29  C   UNL     1      50.507   8.583  12.737  0.00  0.00    +0.000 A 
ATOM     30  H   UNL     1      50.931   6.776  10.022  0.00  0.00    +0.000 HD
ENDBRANCH  17  20
ENDBRANCH   1  16
TORSDOF 5
ENDMDL
MODEL 6
REMARK VINA RESULT:    -6.886      2.741      3.672
REMARK INTER + INTRA:          -9.852
REMARK INTER:                  -9.224
REMARK INTRA:                  -0.628
REMARK UNBOUND:                -0.953
REMARK  Name = 
REMARK  6 active torsions:
REMARK  status: ('A' for Active; 'I' for Inactive)
REMARK    1  A    between atoms: C_1  and  C_2
REMARK    2  A    between atoms: C_5  and  C_6
REMARK    3  A    between atoms: C_6  and  C_7
REMARK    4  A    between atoms: C_10  and  C_11
REMARK    5  A    between atoms: C_11  and  N_12
REMARK    6  A    between atoms: C_13  and  C_15
REMARK                            x       y       z     vdW  Elec       q    Type
REMARK                         _______ _______ _______ _____ _____    ______ ____
ROOT
ATOM      1  C   UNL     1      47.445   4.615  15.225  0.00  0.00    +0.000 C 
ENDROOT
BRANCH   1   5
ATOM      2  C   UNL     1      45.247   4.412  11.570  0.00  0.00    +0.000 A 
ATOM      3  C   UNL     1      45.526   3.233  12.267  0.00  0.00    +0.000 A 
ATOM      4  C   UNL     1      46.235   3.286  13.464  0.00  0.00    +0.000 A 
ATOM      5  C   UNL     1      46.670   4.521  13.932  0.00  0.00    +0.000 A 
ATOM      6  N   UNL     1      46.403   5.683  13.281  0.00  0.00    +0.000 NA
ATOM      7  C   UNL     1      45.695   5.603  12.131  0.00  0.00    +0.000 A 
BRANCH   2   8
ATOM      8  C   UNL     1      44.504   4.404  10.264  0.00  0.00    +0.000 C 
BRANCH   8  13
ATOM      9  C   UNL     1      47.672   2.094   6.044  0.00  0.00    +0.000 C 
ATOM     10  C   UNL     1      46.784   2.645   7.113  0.00  0.00    +0.000 A 
ATOM     11  C   UNL     1      46.079   1.815   7.983  0.00  0.00    +0.000 A 
ATOM     12  C   UNL     1      45.296   2.376   8.991  0.00  0.00    +0.000 A 
ATOM     13  C   UNL     1      45.242   3.764   9.112  0.00  0.00    +0.000 A 
ATOM     14  N   UNL     1      45.890   4.590   8.255  0.00  0.00    +0.000 NA
ATOM     15  C   UNL     1      46.636   4.016   7.281  0.00  0.00    +0.000 A 
ENDBRANCH   8  13
ENDBRANCH   2   8
ENDBRANCH   1   5
BRANCH   1  16
ATOM     16  N   UNL     1      47.790   5.980  15.554  0.00  0.00    +0.000 N 
ATOM     17  C   UNL     1      48.674   6.297  16.547  0.00  0.00    +0.000 C 
ATOM     18  O   UNL     1      49.238   5.438  17.223  0.00  0.00    +0.000 OA
ATOM     19  H   UNL     1      47.165   6.688  15.181  0.00  0.00    +0.000 HD
BRANCH  17  20
ATOM     20  C   UNL     1      48.976   7.727  16.721  0.00  0.00    +0.000 A 
ATOM     21  C   UNL     1      49.788   8.372  15.799  0.00  0.00    +0.000 A 
ATOM     22  S   UNL     1      49.991  10.038  16.107  0.00  0.00    +0.000 S 
ATOM     23  C   UNL     1      49.039   9.949  17.514  0.00  0.00    +0.000 A 
ATOM     24  N   UNL     1      48.826  11.050  18.285  0.00  0.00    +0.000 NA
ATOM     25  C   UNL     1      48.117  10.832  19.341  0.00  0.00    +0.000 A 
ATOM     26  N   UNL     1      47.592   9.616  19.692  0.00  0.00    +0.000 N 
ATOM     27  C   UNL     1      47.732   8.491  18.914  0.00  0.00    +0.000 A 
ATOM     28  O   UNL     1      47.171   7.442  19.211  0.00  0.00    +0.000 OA
ATOM     29  C   UNL     1      48.554   8.671  17.733  0.00  0.00    +0.000 A 
ATOM     30  H   UNL     1      47.026   9.514  20.521  0.00  0.00    +0.000 HD
ENDBRANCH  17  20
ENDBRANCH   1  16
TORSDOF 5
ENDMDL
MODEL 7
REMARK VINA RESULT:    -6.231      1.848      2.671
REMARK INTER + INTRA:          -9.005
REMARK INTER:                  -8.124
REMARK INTRA:                  -0.881
REMARK UNBOUND:                -0.953
REMARK  Name = 
REMARK  6 active torsions:
REMARK  status: ('A' for Active; 'I' for Inactive)
REMARK    1  A    between atoms: C_1  and  C_2
REMARK    2  A    between atoms: C_5  and  C_6
REMARK    3  A    between atoms: C_6  and  C_7
REMARK    4  A    between atoms: C_10  and  C_11
REMARK    5  A    between atoms: C_11  and  N_12
REMARK    6  A    between atoms: C_13  and  C_15
REMARK                            x       y       z     vdW  Elec       q    Type
REMARK                         _______ _______ _______ _____ _____    ______ ____
ROOT
ATOM      1  C   UNL     1      49.831   7.371  14.476  0.00  0.00    +0.000 C 
ENDROOT
BRANCH   1   5
ATOM      2  C   UNL     1      45.933   6.659  12.887  0.00  0.00    +0.000 A 
ATOM      3  C   UNL     1      46.401   7.972  12.986  0.00  0.00    +0.000 A 
ATOM      4  C   UNL     1      47.673   8.217  13.495  0.00  0.00    +0.000 A 
ATOM      5  C   UNL     1      48.448   7.142  13.916  0.00  0.00    +0.000 A 
ATOM      6  N   UNL     1      48.021   5.856  13.820  0.00  0.00    +0.000 NA
ATOM      7  C   UNL     1      46.788   5.645  13.303  0.00  0.00    +0.000 A 
BRANCH   2   8
ATOM      8  C   UNL     1      44.559   6.345  12.365  0.00  0.00    +0.000 C 
BRANCH   8  13
ATOM      9  C   UNL     1      44.676   1.745   8.899  0.00  0.00    +0.000 C 
ATOM     10  C   UNL     1      44.560   2.932   9.802  0.00  0.00    +0.000 A 
ATOM     11  C   UNL     1      43.858   2.875  11.005  0.00  0.00    +0.000 A 
ATOM     12  C   UNL     1      43.813   3.995  11.832  0.00  0.00    +0.000 A 
ATOM     13  C   UNL     1      44.483   5.153  11.440  0.00  0.00    +0.000 A 
ATOM     14  N   UNL     1      45.140   5.242  10.257  0.00  0.00    +0.000 NA
ATOM     15  C   UNL     1      45.159   4.141   9.471  0.00  0.00    +0.000 A 
ENDBRANCH   8  13
ENDBRANCH   2   8
ENDBRANCH   1   5
BRANCH   1  16
ATOM     16  N   UNL     1      49.915   7.025  15.877  0.00  0.00    +0.000 N 
ATOM     17  C   UNL     1      51.092   6.687  16.483  0.00  0.00    +0.000 C 
ATOM     18  O   UNL     1      52.160   6.662  15.873  0.00  0.00    +0.000 OA
ATOM     19  H   UNL     1      49.029   6.808  16.324  0.00  0.00    +0.000 HD
BRANCH  17  20
ATOM     20  C   UNL     1      51.031   6.423  17.929  0.00  0.00    +0.000 A 
ATOM     21  C   UNL     1      51.991   6.973  18.767  0.00  0.00    +0.000 A 
ATOM     22  S   UNL     1      51.746   6.625  20.418  0.00  0.00    +0.000 S 
ATOM     23  C   UNL     1      50.372   5.683  20.071  0.00  0.00    +0.000 A 
ATOM     24  N   UNL     1      49.683   5.060  21.065  0.00  0.00    +0.000 NA
ATOM     25  C   UNL     1      48.685   4.349  20.657  0.00  0.00    +0.000 A 
ATOM     26  N   UNL     1      48.307   4.214  19.347  0.00  0.00    +0.000 N 
ATOM     27  C   UNL     1      48.938   4.871  18.317  0.00  0.00    +0.000 A 
ATOM     28  O   UNL     1      48.517   4.800  17.168  0.00  0.00    +0.000 OA
ATOM     29  C   UNL     1      50.092   5.654  18.716  0.00  0.00    +0.000 A 
ATOM     30  H   UNL     1      47.504   3.660  19.093  0.00  0.00    +0.000 HD
ENDBRANCH  17  20
ENDBRANCH   1  16
TORSDOF 5
ENDMDL
MODEL 8
REMARK VINA RESULT:    -6.102      3.367      5.521
REMARK INTER + INTRA:          -8.839
REMARK INTER:                  -8.412
REMARK INTRA:                  -0.427
REMARK UNBOUND:                -0.953
REMARK  Name = 
REMARK  6 active torsions:
REMARK  status: ('A' for Active; 'I' for Inactive)
REMARK    1  A    between atoms: C_1  and  C_2
REMARK    2  A    between atoms: C_5  and  C_6
REMARK    3  A    between atoms: C_6  and  C_7
REMARK    4  A    between atoms: C_10  and  C_11
REMARK    5  A    between atoms: C_11  and  N_12
REMARK    6  A    between atoms: C_13  and  C_15
REMARK                            x       y       z     vdW  Elec       q    Type
REMARK                         _______ _______ _______ _____ _____    ______ ____
ROOT
ATOM      1  C   UNL     1      48.259   3.106  17.868  0.00  0.00    +0.000 C 
ENDROOT
BRANCH   1   5
ATOM      2  C   UNL     1      47.602   5.881  14.691  0.00  0.00    +0.000 A 
ATOM      3  C   UNL     1      48.410   6.254  15.768  0.00  0.00    +0.000 A 
ATOM      4  C   UNL     1      48.639   5.356  16.807  0.00  0.00    +0.000 A 
ATOM      5  C   UNL     1      48.036   4.104  16.757  0.00  0.00    +0.000 A 
ATOM      6  N   UNL     1      47.255   3.712  15.717  0.00  0.00    +0.000 NA
ATOM      7  C   UNL     1      47.066   4.598  14.711  0.00  0.00    +0.000 A 
BRANCH   2   8
ATOM      8  C   UNL     1      47.308   6.823  13.557  0.00  0.00    +0.000 C 
BRANCH   8  13
ATOM      9  C   UNL     1      43.681   4.560   9.697  0.00  0.00    +0.000 C 
ATOM     10  C   UNL     1      44.561   5.205  10.719  0.00  0.00    +0.000 A 
ATOM     11  C   UNL     1      44.136   5.412  12.030  0.00  0.00    +0.000 A 
ATOM     12  C   UNL     1      45.009   5.980  12.958  0.00  0.00    +0.000 A 
ATOM     13  C   UNL     1      46.298   6.321  12.553  0.00  0.00    +0.000 A 
ATOM     14  N   UNL     1      46.720   6.161  11.275  0.00  0.00    +0.000 NA
ATOM     15  C   UNL     1      45.848   5.616  10.394  0.00  0.00    +0.000 A 
ENDBRANCH   8  13
ENDBRANCH   2   8
ENDBRANCH   1   5
BRANCH   1  16
ATOM     16  N   UNL     1      49.663   2.846  18.092  0.00  0.00    +0.000 N 
ATOM     17  C   UNL     1      50.420   2.097  17.235  0.00  0.00    +0.000 C 
ATOM     18  O   UNL     1      49.952   1.598  16.212  0.00  0.00    +0.000 OA
ATOM     19  H   UNL     1      49.996   3.039  19.032  0.00  0.00    +0.000 HD
BRANCH  17  20
ATOM     20  C   UNL     1      51.849   1.975  17.561  0.00  0.00    +0.000 A 
ATOM     21  C   UNL     1      52.415   0.714  17.702  0.00  0.00    +0.000 A 
ATOM     22  S   UNL     1      54.090   0.742  18.018  0.00  0.00    +0.000 S 
ATOM     23  C   UNL     1      54.115   2.443  18.027  0.00  0.00    +0.000 A 
ATOM     24  N   UNL     1      55.268   3.124  18.270  0.00  0.00    +0.000 NA
ATOM     25  C   UNL     1      55.136   4.408  18.283  0.00  0.00    +0.000 A 
ATOM     26  N   UNL     1      53.958   5.074  18.066  0.00  0.00    +0.000 N 
ATOM     27  C   UNL     1      52.783   4.430  17.760  0.00  0.00    +0.000 A 
ATOM     28  O   UNL     1      51.769   5.060  17.481  0.00  0.00    +0.000 OA
ATOM     29  C   UNL     1      52.867   2.982  17.770  0.00  0.00    +0.000 A 
ATOM     30  H   UNL     1      53.923   6.082  18.069  0.00  0.00    +0.000 HD
ENDBRANCH  17  20
ENDBRANCH   1  16
TORSDOF 5
ENDMDL
MODEL 9
REMARK VINA RESULT:    -5.723      2.844      4.590
REMARK INTER + INTRA:          -8.349
REMARK INTER:                  -7.634
REMARK INTRA:                  -0.715
REMARK UNBOUND:                -0.953
REMARK  Name = 
REMARK  6 active torsions:
REMARK  status: ('A' for Active; 'I' for Inactive)
REMARK    1  A    between atoms: C_1  and  C_2
REMARK    2  A    between atoms: C_5  and  C_6
REMARK    3  A    between atoms: C_6  and  C_7
REMARK    4  A    between atoms: C_10  and  C_11
REMARK    5  A    between atoms: C_11  and  N_12
REMARK    6  A    between atoms: C_13  and  C_15
REMARK                            x       y       z     vdW  Elec       q    Type
REMARK                         _______ _______ _______ _____ _____    ______ ____
ROOT
ATOM      1  C   UNL     1      49.390   7.093  17.749  0.00  0.00    +0.000 C 
ENDROOT
BRANCH   1   5
ATOM      2  C   UNL     1      48.033   7.409  13.713  0.00  0.00    +0.000 A 
ATOM      3  C   UNL     1      48.296   8.574  14.439  0.00  0.00    +0.000 A 
ATOM      4  C   UNL     1      48.746   8.485  15.753  0.00  0.00    +0.000 A 
ATOM      5  C   UNL     1      48.906   7.227  16.325  0.00  0.00    +0.000 A 
ATOM      6  N   UNL     1      48.668   6.080  15.638  0.00  0.00    +0.000 NA
ATOM      7  C   UNL     1      48.251   6.196  14.356  0.00  0.00    +0.000 A 
BRANCH   2   8
ATOM      8  C   UNL     1      47.525   7.454  12.300  0.00  0.00    +0.000 C 
BRANCH   8  13
ATOM      9  C   UNL     1      43.013   3.992  11.382  0.00  0.00    +0.000 C 
ATOM     10  C   UNL     1      44.129   4.957  11.628  0.00  0.00    +0.000 A 
ATOM     11  C   UNL     1      44.133   5.811  12.729  0.00  0.00    +0.000 A 
ATOM     12  C   UNL     1      45.216   6.664  12.938  0.00  0.00    +0.000 A 
ATOM     13  C   UNL     1      46.282   6.636  12.040  0.00  0.00    +0.000 A 
ATOM     14  N   UNL     1      46.282   5.839  10.943  0.00  0.00    +0.000 NA
ATOM     15  C   UNL     1      45.213   5.029  10.761  0.00  0.00    +0.000 A 
ENDBRANCH   8  13
ENDBRANCH   2   8
ENDBRANCH   1   5
BRANCH   1  16
ATOM     16  N   UNL     1      50.279   5.966  17.918  0.00  0.00    +0.000 N 
ATOM     17  C   UNL     1      51.617   6.036  17.648  0.00  0.00    +0.000 C 
ATOM     18  O   UNL     1      52.152   7.069  17.249  0.00  0.00    +0.000 OA
ATOM     19  H   UNL     1      49.823   5.063  18.008  0.00  0.00    +0.000 HD
BRANCH  17  20
ATOM     20  C   UNL     1      52.405   4.826  17.930  0.00  0.00    +0.000 A 
ATOM     21  C   UNL     1      53.707   4.950  18.395  0.00  0.00    +0.000 A 
ATOM     22  S   UNL     1      54.463   3.459  18.733  0.00  0.00    +0.000 S 
ATOM     23  C   UNL     1      53.094   2.588  18.223  0.00  0.00    +0.000 A 
ATOM     24  N   UNL     1      53.087   1.227  18.234  0.00  0.00    +0.000 NA
ATOM     25  C   UNL     1      51.999   0.696  17.787  0.00  0.00    +0.000 A 
ATOM     26  N   UNL     1      50.912   1.401  17.340  0.00  0.00    +0.000 N 
ATOM     27  C   UNL     1      50.853   2.774  17.365  0.00  0.00    +0.000 A 
ATOM     28  O   UNL     1      49.831   3.370  17.044  0.00  0.00    +0.000 OA
ATOM     29  C   UNL     1      52.066   3.424  17.823  0.00  0.00    +0.000 A 
ATOM     30  H   UNL     1      50.081   0.927  17.021  0.00  0.00    +0.000 HD
ENDBRANCH  17  20
ENDBRANCH   1  16
TORSDOF 5
ENDMDL
