MODEL 1
REMARK VINA RESULT:    -7.767      0.000      0.000
REMARK INTER + INTRA:         -12.336
REMARK INTER:                 -11.173
REMARK INTRA:                  -1.164
REMARK UNBOUND:                -1.164
REMARK  Name = 
REMARK  11 active torsions:
REMARK  status: ('A' for Active; 'I' for Inactive)
REMARK    1  A    between atoms: C_1  and  C_2
REMARK    2  A    between atoms: C_2  and  C_3
REMARK    3  A    between atoms: C_2  and  C_16
REMARK    4  A    between atoms: C_3  and  N_4
REMARK    5  A    between atoms: N_4  and  C_5
REMARK    6  A    between atoms: C_8  and  S_9
REMARK    7  A    between atoms: S_9  and  N_10
REMARK    8  A    between atoms: C_20  and  O_21
REMARK    9  A    between atoms: O_21  and  C_22
REMARK   10  A    between atoms: C_24  and  C_25
REMARK   11  A    between atoms: C_24  and  C_26
REMARK                            x       y       z     vdW  Elec       q    Type
REMARK                         _______ _______ _______ _____ _____    ______ ____
ROOT
ATOM      1  C   UNL     1      44.371   4.932  11.933  0.00  0.00    +0.000 C 
ENDROOT
BRANCH   1   3
ATOM      2  C   UNL     1      44.408   7.429  11.352  0.00  0.00    +0.000 C 
ATOM      3  C   UNL     1      44.786   6.357  12.379  0.00  0.00    +0.000 C 
BRANCH   3   4
ATOM      4  C   UNL     1      46.281   6.404  12.692  0.00  0.00    +0.000 A 
ATOM      5  C   UNL     1      47.152   7.128  11.872  0.00  0.00    +0.000 A 
ATOM      6  C   UNL     1      48.503   7.183  12.203  0.00  0.00    +0.000 A 
ATOM      7  N   UNL     1      49.051   6.599  13.294  0.00  0.00    +0.000 NA
ATOM      8  C   UNL     1      48.196   5.924  14.087  0.00  0.00    +0.000 A 
ATOM      9  C   UNL     1      46.833   5.784  13.822  0.00  0.00    +0.000 A 
BRANCH   8  10
ATOM     10  O   UNL     1      48.619   5.481  15.326  0.00  0.00    +0.000 OA
BRANCH  10  11
ATOM     11  C   UNL     1      47.680   4.699  16.097  0.00  0.00    +0.000 C 
ATOM     12  C   UNL     1      47.694   5.167  17.539  0.00  0.00    +0.000 C 
ATOM     13  C   UNL     1      48.151   3.772  17.213  0.00  0.00    +0.000 C 
ATOM     14  C   UNL     1      47.241   2.674  17.711  0.00  0.00    +0.000 C 
ATOM     15  C   UNL     1      49.614   3.428  17.307  0.00  0.00    +0.000 C 
ENDBRANCH  10  11
ENDBRANCH   8  10
ENDBRANCH   3   4
ENDBRANCH   1   3
BRANCH   1  16
ATOM     16  N   UNL     1      43.872   4.888  10.551  0.00  0.00    +0.000 N 
ATOM     17  H   UNL     1      43.652   5.811  10.171  0.00  0.00    +0.000 HD
BRANCH  16  18
ATOM     18  C   UNL     1      44.684   4.198   9.620  0.00  0.00    +0.000 A 
ATOM     19  C   UNL     1      45.582   4.856   8.770  0.00  0.00    +0.000 A 
ATOM     20  C   UNL     1      46.387   4.141   7.878  0.00  0.00    +0.000 A 
ATOM     21  C   UNL     1      46.329   2.746   7.854  0.00  0.00    +0.000 A 
ATOM     22  C   UNL     1      45.478   2.057   8.716  0.00  0.00    +0.000 A 
ATOM     23  C   UNL     1      44.683   2.788   9.597  0.00  0.00    +0.000 A 
ATOM     24  F   UNL     1      43.861   2.122  10.424  0.00  0.00    +0.000 F 
BRANCH  21  25
ATOM     25  S   UNL     1      47.302   1.864   6.672  0.00  0.00    +0.000 S 
ATOM     26  O   UNL     1      48.684   2.266   6.798  0.00  0.00    +0.000 OA
ATOM     27  O   UNL     1      46.900   0.477   6.668  0.00  0.00    +0.000 OA
BRANCH  25  28
ATOM     28  N   UNL     1      46.760   2.509   5.221  0.00  0.00    +0.000 NA
ATOM     29  H   UNL     1      45.782   2.251   5.075  0.00  0.00    +0.000 HD
ATOM     30  H   UNL     1      46.922   3.516   5.208  0.00  0.00    +0.000 HD
ENDBRANCH  25  28
ENDBRANCH  21  25
ENDBRANCH  16  18
ENDBRANCH   1  16
TORSDOF 8
ENDMDL
MODEL 2
REMARK VINA RESULT:    -7.618      3.524      8.106
REMARK INTER + INTRA:         -12.122
REMARK INTER:                 -10.928
REMARK INTRA:                  -1.194
REMARK UNBOUND:                -1.164
REMARK  Name = 
REMARK  11 active torsions:
REMARK  status: ('A' for Active; 'I' for Inactive)
REMARK    1  A    between atoms: C_1  and  C_2
REMARK    2  A    between atoms: C_2  and  C_3
REMARK    3  A    between atoms: C_2  and  C_16
REMARK    4  A    between atoms: C_3  and  N_4
REMARK    5  A    between atoms: N_4  and  C_5
REMARK    6  A    between atoms: C_8  and  S_9
REMARK    7  A    between atoms: S_9  and  N_10
REMARK    8  A    between atoms: C_20  and  O_21
REMARK    9  A    between atoms: O_21  and  C_22
REMARK   10  A    between atoms: C_24  and  C_25
REMARK   11  A    between atoms: C_24  and  C_26
REMARK                            x       y       z     vdW  Elec       q    Type
REMARK                         _______ _______ _______ _____ _____    ______ ____
ROOT
ATOM      1  C   UNL     1      47.179   6.652  11.719  0.00  0.00    +0.000 C 
ENDROOT
BRANCH   1   3
ATOM      2  C   UNL     1      44.992   7.882  12.247  0.00  0.00    +0.000 C 
ATOM      3  C   UNL     1      45.721   6.939  11.284  0.00  0.00    +0.000 C 
BRANCH   3   4
ATOM      4  C   UNL     1      44.948   5.631  11.111  0.00  0.00    +0.000 A 
ATOM      5  C   UNL     1      43.738   5.432  11.781  0.00  0.00    +0.000 A 
ATOM      6  C   UNL     1      43.038   4.246  11.576  0.00  0.00    +0.000 A 
ATOM      7  N   UNL     1      43.432   3.258  10.740  0.00  0.00    +0.000 NA
ATOM      8  C   UNL     1      44.589   3.473  10.084  0.00  0.00    +0.000 A 
ATOM      9  C   UNL     1      45.377   4.613  10.248  0.00  0.00    +0.000 A 
BRANCH   8  10
ATOM     10  O   UNL     1      44.960   2.625   9.057  0.00  0.00    +0.000 OA
BRANCH  10  11
ATOM     11  C   UNL     1      46.007   3.086   8.175  0.00  0.00    +0.000 C 
ATOM     12  C   UNL     1      45.612   2.819   6.735  0.00  0.00    +0.000 C 
ATOM     13  C   UNL     1      46.803   2.108   7.315  0.00  0.00    +0.000 C 
ATOM     14  C   UNL     1      48.134   2.528   6.738  0.00  0.00    +0.000 C 
ATOM     15  C   UNL     1      46.716   0.635   7.614  0.00  0.00    +0.000 C 
ENDBRANCH  10  11
ENDBRANCH   8  10
ENDBRANCH   3   4
ENDBRANCH   1   3
BRANCH   1  16
ATOM     16  N   UNL     1      47.525   7.274  13.006  0.00  0.00    +0.000 N 
ATOM     17  H   UNL     1      46.895   8.034  13.270  0.00  0.00    +0.000 HD
BRANCH  16  18
ATOM     18  C   UNL     1      47.653   6.392  14.106  0.00  0.00    +0.000 A 
ATOM     19  C   UNL     1      47.025   5.141  14.146  0.00  0.00    +0.000 A 
ATOM     20  C   UNL     1      47.192   4.284  15.239  0.00  0.00    +0.000 A 
ATOM     21  C   UNL     1      48.028   4.658  16.294  0.00  0.00    +0.000 A 
ATOM     22  C   UNL     1      48.702   5.877  16.266  0.00  0.00    +0.000 A 
ATOM     23  C   UNL     1      48.521   6.718  15.169  0.00  0.00    +0.000 A 
ATOM     24  F   UNL     1      49.169   7.893  15.146  0.00  0.00    +0.000 F 
BRANCH  21  25
ATOM     25  S   UNL     1      48.172   3.593  17.697  0.00  0.00    +0.000 S 
ATOM     26  O   UNL     1      49.123   2.547  17.404  0.00  0.00    +0.000 OA
ATOM     27  O   UNL     1      48.253   4.397  18.893  0.00  0.00    +0.000 OA
BRANCH  25  28
ATOM     28  N   UNL     1      46.665   2.858  17.733  0.00  0.00    +0.000 NA
ATOM     29  H   UNL     1      46.083   3.301  18.446  0.00  0.00    +0.000 HD
ATOM     30  H   UNL     1      46.250   2.872  16.801  0.00  0.00    +0.000 HD
ENDBRANCH  25  28
ENDBRANCH  21  25
ENDBRANCH  16  18
ENDBRANCH   1  16
TORSDOF 8
ENDMDL
MODEL 3
REMARK VINA RESULT:    -7.292      1.441      2.051
REMARK INTER + INTRA:         -11.652
REMARK INTER:                 -10.507
REMARK INTRA:                  -1.145
REMARK UNBOUND:                -1.164
REMARK  Name = 
REMARK  11 active torsions:
REMARK  status: ('A' for Active; 'I' for Inactive)
REMARK    1  A    between atoms: C_1  and  C_2
REMARK    2  A    between atoms: C_2  and  C_3
REMARK    3  A    between atoms: C_2  and  C_16
REMARK    4  A    between atoms: C_3  and  N_4
REMARK    5  A    between atoms: N_4  and  C_5
REMARK    6  A    between atoms: C_8  and  S_9
REMARK    7  A    between atoms: S_9  and  N_10
REMARK    8  A    between atoms: C_20  and  O_21
REMARK    9  A    between atoms: O_21  and  C_22
REMARK   10  A    between atoms: C_24  and  C_25
REMARK   11  A    between atoms: C_24  and  C_26
REMARK                            x       y       z     vdW  Elec       q    Type
REMARK                         _______ _______ _______ _____ _____    ______ ____
ROOT
ATOM      1  C   UNL     1      44.223   4.087  12.119  0.00  0.00    +0.000 C 
ENDROOT
BRANCH   1   3
ATOM      2  C   UNL     1      43.898   6.616  11.847  0.00  0.00    +0.000 C 
ATOM      3  C   UNL     1      44.422   5.491  12.744  0.00  0.00    +0.000 C 
BRANCH   3   4
ATOM      4  C   UNL     1      45.893   5.713  13.097  0.00  0.00    +0.000 A 
ATOM      5  C   UNL     1      46.673   6.599  12.348  0.00  0.00    +0.000 A 
ATOM      6  C   UNL     1      47.999   6.810  12.716  0.00  0.00    +0.000 A 
ATOM      7  N   UNL     1      48.601   6.231  13.780  0.00  0.00    +0.000 NA
ATOM      8  C   UNL     1      47.832   5.397  14.505  0.00  0.00    +0.000 A 
ATOM      9  C   UNL     1      46.504   5.097  14.198  0.00  0.00    +0.000 A 
BRANCH   8  10
ATOM     10  O   UNL     1      48.290   4.930  15.724  0.00  0.00    +0.000 OA
BRANCH  10  11
ATOM     11  C   UNL     1      48.922   5.892  16.597  0.00  0.00    +0.000 C 
ATOM     12  C   UNL     1      49.690   5.163  17.683  0.00  0.00    +0.000 C 
ATOM     13  C   UNL     1      48.512   6.018  18.062  0.00  0.00    +0.000 C 
ATOM     14  C   UNL     1      48.859   7.270  18.832  0.00  0.00    +0.000 C 
ATOM     15  C   UNL     1      47.236   5.364  18.521  0.00  0.00    +0.000 C 
ENDBRANCH  10  11
ENDBRANCH   8  10
ENDBRANCH   3   4
ENDBRANCH   1   3
BRANCH   1  16
ATOM     16  N   UNL     1      43.711   4.143  10.741  0.00  0.00    +0.000 N 
ATOM     17  H   UNL     1      43.416   5.080  10.457  0.00  0.00    +0.000 HD
BRANCH  16  18
ATOM     18  C   UNL     1      44.562   3.616   9.741  0.00  0.00    +0.000 A 
ATOM     19  C   UNL     1      44.569   2.259   9.396  0.00  0.00    +0.000 A 
ATOM     20  C   UNL     1      45.406   1.775   8.385  0.00  0.00    +0.000 A 
ATOM     21  C   UNL     1      46.224   2.659   7.677  0.00  0.00    +0.000 A 
ATOM     22  C   UNL     1      46.210   4.022   7.966  0.00  0.00    +0.000 A 
ATOM     23  C   UNL     1      45.370   4.485   8.978  0.00  0.00    +0.000 A 
ATOM     24  F   UNL     1      45.362   5.798   9.256  0.00  0.00    +0.000 F 
BRANCH  21  25
ATOM     25  S   UNL     1      47.325   2.020   6.452  0.00  0.00    +0.000 S 
ATOM     26  O   UNL     1      47.736   0.689   6.832  0.00  0.00    +0.000 OA
ATOM     27  O   UNL     1      46.801   2.322   5.142  0.00  0.00    +0.000 OA
BRANCH  25  28
ATOM     28  N   UNL     1      48.673   2.998   6.650  0.00  0.00    +0.000 NA
ATOM     29  H   UNL     1      49.520   2.427   6.626  0.00  0.00    +0.000 HD
ATOM     30  H   UNL     1      48.665   3.744   5.955  0.00  0.00    +0.000 HD
ENDBRANCH  25  28
ENDBRANCH  21  25
ENDBRANCH  16  18
ENDBRANCH   1  16
TORSDOF 8
ENDMDL
MODEL 4
REMARK VINA RESULT:    -6.737      1.638      1.977
REMARK INTER + INTRA:         -10.855
REMARK INTER:                  -9.912
REMARK INTRA:                  -0.943
REMARK UNBOUND:                -1.164
REMARK  Name = 
REMARK  11 active torsions:
REMARK  status: ('A' for Active; 'I' for Inactive)
REMARK    1  A    between atoms: C_1  and  C_2
REMARK    2  A    between atoms: C_2  and  C_3
REMARK    3  A    between atoms: C_2  and  C_16
REMARK    4  A    between atoms: C_3  and  N_4
REMARK    5  A    between atoms: N_4  and  C_5
REMARK    6  A    between atoms: C_8  and  S_9
REMARK    7  A    between atoms: S_9  and  N_10
REMARK    8  A    between atoms: C_20  and  O_21
REMARK    9  A    between atoms: O_21  and  C_22
REMARK   10  A    between atoms: C_24  and  C_25
REMARK   11  A    between atoms: C_24  and  C_26
REMARK                            x       y       z     vdW  Elec       q    Type
REMARK                         _______ _______ _______ _____ _____    ______ ____
ROOT
ATOM      1  C   UNL     1      44.040   3.719  12.005  0.00  0.00    +0.000 C 
ENDROOT
BRANCH   1   3
ATOM      2  C   UNL     1      42.832   5.839  12.791  0.00  0.00    +0.000 C 
ATOM      3  C   UNL     1      44.062   4.942  12.955  0.00  0.00    +0.000 C 
BRANCH   3   4
ATOM      4  C   UNL     1      45.351   5.742  12.765  0.00  0.00    +0.000 A 
ATOM      5  C   UNL     1      45.370   6.862  11.929  0.00  0.00    +0.000 A 
ATOM      6  C   UNL     1      46.548   7.593  11.803  0.00  0.00    +0.000 A 
ATOM      7  N   UNL     1      47.698   7.314  12.461  0.00  0.00    +0.000 NA
ATOM      8  C   UNL     1      47.658   6.246  13.280  0.00  0.00    +0.000 A 
ATOM      9  C   UNL     1      46.536   5.432  13.447  0.00  0.00    +0.000 A 
BRANCH   8  10
ATOM     10  O   UNL     1      48.708   6.012  14.149  0.00  0.00    +0.000 OA
BRANCH  10  11
ATOM     11  C   UNL     1      48.526   6.430  15.520  0.00  0.00    +0.000 C 
ATOM     12  C   UNL     1      48.549   7.944  15.596  0.00  0.00    +0.000 C 
ATOM     13  C   UNL     1      49.634   7.157  16.278  0.00  0.00    +0.000 C 
ATOM     14  C   UNL     1      49.601   7.208  17.787  0.00  0.00    +0.000 C 
ATOM     15  C   UNL     1      51.027   7.162  15.706  0.00  0.00    +0.000 C 
ENDBRANCH  10  11
ENDBRANCH   8  10
ENDBRANCH   3   4
ENDBRANCH   1   3
BRANCH   1  16
ATOM     16  N   UNL     1      43.678   4.074  10.625  0.00  0.00    +0.000 N 
ATOM     17  H   UNL     1      43.506   5.073  10.496  0.00  0.00    +0.000 HD
BRANCH  16  18
ATOM     18  C   UNL     1      44.569   3.636   9.617  0.00  0.00    +0.000 A 
ATOM     19  C   UNL     1      45.391   4.517   8.903  0.00  0.00    +0.000 A 
ATOM     20  C   UNL     1      46.279   4.048   7.930  0.00  0.00    +0.000 A 
ATOM     21  C   UNL     1      46.382   2.676   7.686  0.00  0.00    +0.000 A 
ATOM     22  C   UNL     1      45.611   1.768   8.409  0.00  0.00    +0.000 A 
ATOM     23  C   UNL     1      44.731   2.256   9.374  0.00  0.00    +0.000 A 
ATOM     24  F   UNL     1      43.987   1.379  10.066  0.00  0.00    +0.000 F 
BRANCH  21  25
ATOM     25  S   UNL     1      47.458   2.108   6.405  0.00  0.00    +0.000 S 
ATOM     26  O   UNL     1      48.822   2.426   6.754  0.00  0.00    +0.000 OA
ATOM     27  O   UNL     1      47.054   0.782   6.002  0.00  0.00    +0.000 OA
BRANCH  25  28
ATOM     28  N   UNL     1      47.053   3.124   5.133  0.00  0.00    +0.000 NA
ATOM     29  H   UNL     1      46.415   3.850   5.462  0.00  0.00    +0.000 HD
ATOM     30  H   UNL     1      47.900   3.491   4.699  0.00  0.00    +0.000 HD
ENDBRANCH  25  28
ENDBRANCH  21  25
ENDBRANCH  16  18
ENDBRANCH   1  16
TORSDOF 8
ENDMDL
MODEL 5
REMARK VINA RESULT:    -6.688      1.869      3.844
REMARK INTER + INTRA:         -10.784
REMARK INTER:                  -9.854
REMARK INTRA:                  -0.930
REMARK UNBOUND:                -1.164
REMARK  Name = 
REMARK  11 active torsions:
REMARK  status: ('A' for Active; 'I' for Inactive)
REMARK    1  A    between atoms: C_1  and  C_2
REMARK    2  A    between atoms: C_2  and  C_3
REMARK    3  A    between atoms: C_2  and  C_16
REMARK    4  A    between atoms: C_3  and  N_4
REMARK    5  A    between atoms: N_4  and  C_5
REMARK    6  A    between atoms: C_8  and  S_9
REMARK    7  A    between atoms: S_9  and  N_10
REMARK    8  A    between atoms: C_20  and  O_21
REMARK    9  A    between atoms: O_21  and  C_22
REMARK   10  A    between atoms: C_24  and  C_25
REMARK   11  A    between atoms: C_24  and  C_26
REMARK                            x       y       z     vdW  Elec       q    Type
REMARK                         _______ _______ _______ _____ _____    ______ ____
ROOT
ATOM      1  C   UNL     1      44.301   3.976  12.212  0.00  0.00    +0.000 C 
ENDROOT
BRANCH   1   3
ATOM      2  C   UNL     1      44.056   6.510  11.905  0.00  0.00    +0.000 C 
ATOM      3  C   UNL     1      44.376   5.372  12.879  0.00  0.00    +0.000 C 
BRANCH   3   4
ATOM      4  C   UNL     1      45.744   5.579  13.531  0.00  0.00    +0.000 A 
ATOM      5  C   UNL     1      46.304   4.577  14.329  0.00  0.00    +0.000 A 
ATOM      6  C   UNL     1      47.567   4.778  14.879  0.00  0.00    +0.000 A 
ATOM      7  N   UNL     1      48.324   5.882  14.679  0.00  0.00    +0.000 NA
ATOM      8  C   UNL     1      47.781   6.829  13.890  0.00  0.00    +0.000 A 
ATOM      9  C   UNL     1      46.510   6.734  13.321  0.00  0.00    +0.000 A 
BRANCH   8  10
ATOM     10  O   UNL     1      48.559   7.887  13.457  0.00  0.00    +0.000 OA
BRANCH  10  11
ATOM     11  C   UNL     1      49.772   7.557  12.744  0.00  0.00    +0.000 C 
ATOM     12  C   UNL     1      50.897   8.458  13.215  0.00  0.00    +0.000 C 
ATOM     13  C   UNL     1      50.424   8.555  11.791  0.00  0.00    +0.000 C 
ATOM     14  C   UNL     1      51.414   8.068  10.759  0.00  0.00    +0.000 C 
ATOM     15  C   UNL     1      49.639   9.761  11.349  0.00  0.00    +0.000 C 
ENDBRANCH  10  11
ENDBRANCH   8  10
ENDBRANCH   3   4
ENDBRANCH   1   3
BRANCH   1  16
ATOM     16  N   UNL     1      43.735   4.021  10.855  0.00  0.00    +0.000 N 
ATOM     17  H   UNL     1      43.377   4.943  10.597  0.00  0.00    +0.000 HD
BRANCH  16  18
ATOM     18  C   UNL     1      44.576   3.557   9.816  0.00  0.00    +0.000 A 
ATOM     19  C   UNL     1      44.612   2.214   9.418  0.00  0.00    +0.000 A 
ATOM     20  C   UNL     1      45.437   1.794   8.371  0.00  0.00    +0.000 A 
ATOM     21  C   UNL     1      46.214   2.727   7.679  0.00  0.00    +0.000 A 
ATOM     22  C   UNL     1      46.169   4.077   8.021  0.00  0.00    +0.000 A 
ATOM     23  C   UNL     1      45.341   4.476   9.068  0.00  0.00    +0.000 A 
ATOM     24  F   UNL     1      45.304   5.777   9.397  0.00  0.00    +0.000 F 
BRANCH  21  25
ATOM     25  S   UNL     1      47.302   2.166   6.406  0.00  0.00    +0.000 S 
ATOM     26  O   UNL     1      46.793   2.592   5.123  0.00  0.00    +0.000 OA
ATOM     27  O   UNL     1      48.667   2.404   6.812  0.00  0.00    +0.000 OA
BRANCH  25  28
ATOM     28  N   UNL     1      47.083   0.504   6.465  0.00  0.00    +0.000 NA
ATOM     29  H   UNL     1      47.628   0.058   5.725  0.00  0.00    +0.000 HD
ATOM     30  H   UNL     1      47.305   0.159   7.399  0.00  0.00    +0.000 HD
ENDBRANCH  25  28
ENDBRANCH  21  25
ENDBRANCH  16  18
ENDBRANCH   1  16
TORSDOF 8
ENDMDL
MODEL 6
REMARK VINA RESULT:    -6.620      3.060      4.618
REMARK INTER + INTRA:         -10.686
REMARK INTER:                  -9.465
REMARK INTRA:                  -1.221
REMARK UNBOUND:                -1.164
REMARK  Name = 
REMARK  11 active torsions:
REMARK  status: ('A' for Active; 'I' for Inactive)
REMARK    1  A    between atoms: C_1  and  C_2
REMARK    2  A    between atoms: C_2  and  C_3
REMARK    3  A    between atoms: C_2  and  C_16
REMARK    4  A    between atoms: C_3  and  N_4
REMARK    5  A    between atoms: N_4  and  C_5
REMARK    6  A    between atoms: C_8  and  S_9
REMARK    7  A    between atoms: S_9  and  N_10
REMARK    8  A    between atoms: C_20  and  O_21
REMARK    9  A    between atoms: O_21  and  C_22
REMARK   10  A    between atoms: C_24  and  C_25
REMARK   11  A    between atoms: C_24  and  C_26
REMARK                            x       y       z     vdW  Elec       q    Type
REMARK                         _______ _______ _______ _____ _____    ______ ____
ROOT
ATOM      1  C   UNL     1      48.687   7.068  13.830  0.00  0.00    +0.000 C 
ENDROOT
BRANCH   1   3
ATOM      2  C   UNL     1      50.914   8.137  14.517  0.00  0.00    +0.000 C 
ATOM      3  C   UNL     1      49.390   8.156  14.680  0.00  0.00    +0.000 C 
BRANCH   3   4
ATOM      4  C   UNL     1      48.996   8.021  16.151  0.00  0.00    +0.000 A 
ATOM      5  C   UNL     1      48.340   9.069  16.805  0.00  0.00    +0.000 A 
ATOM      6  C   UNL     1      47.960   8.904  18.134  0.00  0.00    +0.000 A 
ATOM      7  N   UNL     1      48.158   7.776  18.854  0.00  0.00    +0.000 NA
ATOM      8  C   UNL     1      48.772   6.768  18.205  0.00  0.00    +0.000 A 
ATOM      9  C   UNL     1      49.218   6.848  16.885  0.00  0.00    +0.000 A 
BRANCH   8  10
ATOM     10  O   UNL     1      48.823   5.513  18.784  0.00  0.00    +0.000 OA
BRANCH  10  11
ATOM     11  C   UNL     1      48.286   4.415  18.015  0.00  0.00    +0.000 C 
ATOM     12  C   UNL     1      48.363   3.139  18.831  0.00  0.00    +0.000 C 
ATOM     13  C   UNL     1      49.172   3.255  17.569  0.00  0.00    +0.000 C 
ATOM     14  C   UNL     1      48.719   2.357  16.441  0.00  0.00    +0.000 C 
ATOM     15  C   UNL     1      50.668   3.404  17.655  0.00  0.00    +0.000 C 
ENDBRANCH  10  11
ENDBRANCH   8  10
ENDBRANCH   3   4
ENDBRANCH   1   3
BRANCH   1  16
ATOM     16  N   UNL     1      47.225   7.078  13.987  0.00  0.00    +0.000 N 
ATOM     17  H   UNL     1      46.818   8.014  13.934  0.00  0.00    +0.000 HD
BRANCH  16  18
ATOM     18  C   UNL     1      46.502   6.223  13.121  0.00  0.00    +0.000 A 
ATOM     19  C   UNL     1      46.175   6.583  11.807  0.00  0.00    +0.000 A 
ATOM     20  C   UNL     1      45.481   5.705  10.970  0.00  0.00    +0.000 A 
ATOM     21  C   UNL     1      45.137   4.431  11.429  0.00  0.00    +0.000 A 
ATOM     22  C   UNL     1      45.485   4.025  12.716  0.00  0.00    +0.000 A 
ATOM     23  C   UNL     1      46.176   4.915  13.536  0.00  0.00    +0.000 A 
ATOM     24  F   UNL     1      46.506   4.522  14.776  0.00  0.00    +0.000 F 
BRANCH  21  25
ATOM     25  S   UNL     1      44.199   3.362  10.381  0.00  0.00    +0.000 S 
ATOM     26  O   UNL     1      45.091   2.425   9.738  0.00  0.00    +0.000 OA
ATOM     27  O   UNL     1      43.009   2.939  11.080  0.00  0.00    +0.000 OA
BRANCH  25  28
ATOM     28  N   UNL     1      43.684   4.413   9.180  0.00  0.00    +0.000 NA
ATOM     29  H   UNL     1      44.135   4.173   8.296  0.00  0.00    +0.000 HD
ATOM     30  H   UNL     1      42.665   4.411   9.132  0.00  0.00    +0.000 HD
ENDBRANCH  25  28
ENDBRANCH  21  25
ENDBRANCH  16  18
ENDBRANCH   1  16
TORSDOF 8
ENDMDL
MODEL 7
REMARK VINA RESULT:    -6.296      3.162      4.634
REMARK INTER + INTRA:         -10.220
REMARK INTER:                  -9.179
REMARK INTRA:                  -1.040
REMARK UNBOUND:                -1.164
REMARK  Name = 
REMARK  11 active torsions:
REMARK  status: ('A' for Active; 'I' for Inactive)
REMARK    1  A    between atoms: C_1  and  C_2
REMARK    2  A    between atoms: C_2  and  C_3
REMARK    3  A    between atoms: C_2  and  C_16
REMARK    4  A    between atoms: C_3  and  N_4
REMARK    5  A    between atoms: N_4  and  C_5
REMARK    6  A    between atoms: C_8  and  S_9
REMARK    7  A    between atoms: S_9  and  N_10
REMARK    8  A    between atoms: C_20  and  O_21
REMARK    9  A    between atoms: O_21  and  C_22
REMARK   10  A    between atoms: C_24  and  C_25
REMARK   11  A    between atoms: C_24  and  C_26
REMARK                            x       y       z     vdW  Elec       q    Type
REMARK                         _______ _______ _______ _____ _____    ______ ____
ROOT
ATOM      1  C   UNL     1      48.496   7.811  13.479  0.00  0.00    +0.000 C 
ENDROOT
BRANCH   1   3
ATOM      2  C   UNL     1      49.939   9.878  13.946  0.00  0.00    +0.000 C 
ATOM      3  C   UNL     1      49.269   8.635  14.540  0.00  0.00    +0.000 C 
BRANCH   3   4
ATOM      4  C   UNL     1      50.291   7.754  15.259  0.00  0.00    +0.000 A 
ATOM      5  C   UNL     1      51.659   7.935  15.037  0.00  0.00    +0.000 A 
ATOM      6  C   UNL     1      52.568   7.143  15.734  0.00  0.00    +0.000 A 
ATOM      7  N   UNL     1      52.225   6.207  16.649  0.00  0.00    +0.000 NA
ATOM      8  C   UNL     1      50.905   6.059  16.869  0.00  0.00    +0.000 A 
ATOM      9  C   UNL     1      49.917   6.781  16.197  0.00  0.00    +0.000 A 
BRANCH   8  10
ATOM     10  O   UNL     1      50.471   5.287  17.931  0.00  0.00    +0.000 OA
BRANCH  10  11
ATOM     11  C   UNL     1      49.079   4.900  17.932  0.00  0.00    +0.000 C 
ATOM     12  C   UNL     1      48.801   4.009  19.127  0.00  0.00    +0.000 C 
ATOM     13  C   UNL     1      48.664   3.444  17.740  0.00  0.00    +0.000 C 
ATOM     14  C   UNL     1      47.248   3.116  17.327  0.00  0.00    +0.000 C 
ATOM     15  C   UNL     1      49.681   2.455  17.236  0.00  0.00    +0.000 C 
ENDBRANCH  10  11
ENDBRANCH   8  10
ENDBRANCH   3   4
ENDBRANCH   1   3
BRANCH   1  16
ATOM     16  N   UNL     1      47.158   7.406  13.934  0.00  0.00    +0.000 N 
ATOM     17  H   UNL     1      46.532   8.196  14.103  0.00  0.00    +0.000 HD
BRANCH  16  18
ATOM     18  C   UNL     1      46.484   6.463  13.122  0.00  0.00    +0.000 A 
ATOM     19  C   UNL     1      46.381   5.109  13.465  0.00  0.00    +0.000 A 
ATOM     20  C   UNL     1      45.687   4.209  12.651  0.00  0.00    +0.000 A 
ATOM     21  C   UNL     1      45.051   4.666  11.494  0.00  0.00    +0.000 A 
ATOM     22  C   UNL     1      45.098   6.014  11.145  0.00  0.00    +0.000 A 
ATOM     23  C   UNL     1      45.796   6.895  11.969  0.00  0.00    +0.000 A 
ATOM     24  F   UNL     1      45.841   8.193  11.629  0.00  0.00    +0.000 F 
BRANCH  21  25
ATOM     25  S   UNL     1      44.240   3.501  10.441  0.00  0.00    +0.000 S 
ATOM     26  O   UNL     1      45.220   2.597   9.888  0.00  0.00    +0.000 OA
ATOM     27  O   UNL     1      43.038   3.034  11.091  0.00  0.00    +0.000 OA
BRANCH  25  28
ATOM     28  N   UNL     1      43.733   4.473   9.171  0.00  0.00    +0.000 NA
ATOM     29  H   UNL     1      44.544   4.899   8.719  0.00  0.00    +0.000 HD
ATOM     30  H   UNL     1      43.148   3.933   8.533  0.00  0.00    +0.000 HD
ENDBRANCH  25  28
ENDBRANCH  21  25
ENDBRANCH  16  18
ENDBRANCH   1  16
TORSDOF 8
ENDMDL
MODEL 8
REMARK VINA RESULT:    -6.253      4.762      7.733
REMARK INTER + INTRA:         -10.159
REMARK INTER:                  -8.584
REMARK INTRA:                  -1.574
REMARK UNBOUND:                -1.164
REMARK  Name = 
REMARK  11 active torsions:
REMARK  status: ('A' for Active; 'I' for Inactive)
REMARK    1  A    between atoms: C_1  and  C_2
REMARK    2  A    between atoms: C_2  and  C_3
REMARK    3  A    between atoms: C_2  and  C_16
REMARK    4  A    between atoms: C_3  and  N_4
REMARK    5  A    between atoms: N_4  and  C_5
REMARK    6  A    between atoms: C_8  and  S_9
REMARK    7  A    between atoms: S_9  and  N_10
REMARK    8  A    between atoms: C_20  and  O_21
REMARK    9  A    between atoms: O_21  and  C_22
REMARK   10  A    between atoms: C_24  and  C_25
REMARK   11  A    between atoms: C_24  and  C_26
REMARK                            x       y       z     vdW  Elec       q    Type
REMARK                         _______ _______ _______ _____ _____    ______ ____
ROOT
ATOM      1  C   UNL     1      49.547   7.871  12.456  0.00  0.00    +0.000 C 
ENDROOT
BRANCH   1   3
ATOM      2  C   UNL     1      49.720  10.418  12.695  0.00  0.00    +0.000 C 
ATOM      3  C   UNL     1      49.085   9.252  11.929  0.00  0.00    +0.000 C 
BRANCH   3   4
ATOM      4  C   UNL     1      47.560   9.349  11.953  0.00  0.00    +0.000 A 
ATOM      5  C   UNL     1      46.928  10.587  11.794  0.00  0.00    +0.000 A 
ATOM      6  C   UNL     1      45.537  10.640  11.783  0.00  0.00    +0.000 A 
ATOM      7  N   UNL     1      44.728   9.561  11.890  0.00  0.00    +0.000 NA
ATOM      8  C   UNL     1      45.350   8.373  12.019  0.00  0.00    +0.000 A 
ATOM      9  C   UNL     1      46.736   8.221  12.075  0.00  0.00    +0.000 A 
BRANCH   8  10
ATOM     10  O   UNL     1      44.618   7.204  11.919  0.00  0.00    +0.000 OA
BRANCH  10  11
ATOM     11  C   UNL     1      45.364   5.967  11.881  0.00  0.00    +0.000 C 
ATOM     12  C   UNL     1      44.779   5.055  10.821  0.00  0.00    +0.000 C 
ATOM     13  C   UNL     1      44.714   4.641  12.265  0.00  0.00    +0.000 C 
ATOM     14  C   UNL     1      45.581   3.457  12.624  0.00  0.00    +0.000 C 
ATOM     15  C   UNL     1      43.391   4.657  12.984  0.00  0.00    +0.000 C 
ENDBRANCH  10  11
ENDBRANCH   8  10
ENDBRANCH   3   4
ENDBRANCH   1   3
BRANCH   1  16
ATOM     16  N   UNL     1      50.020   7.918  13.848  0.00  0.00    +0.000 N 
ATOM     17  H   UNL     1      49.998   8.858  14.250  0.00  0.00    +0.000 HD
BRANCH  16  18
ATOM     18  C   UNL     1      49.391   7.026  14.748  0.00  0.00    +0.000 A 
ATOM     19  C   UNL     1      48.271   6.264  14.394  0.00  0.00    +0.000 A 
ATOM     20  C   UNL     1      47.688   5.373  15.301  0.00  0.00    +0.000 A 
ATOM     21  C   UNL     1      48.248   5.207  16.570  0.00  0.00    +0.000 A 
ATOM     22  C   UNL     1      49.388   5.918  16.939  0.00  0.00    +0.000 A 
ATOM     23  C   UNL     1      49.954   6.801  16.022  0.00  0.00    +0.000 A 
ATOM     24  F   UNL     1      51.050   7.487  16.382  0.00  0.00    +0.000 F 
BRANCH  21  25
ATOM     25  S   UNL     1      47.457   4.130  17.726  0.00  0.00    +0.000 S 
ATOM     26  O   UNL     1      46.525   3.280  17.023  0.00  0.00    +0.000 OA
ATOM     27  O   UNL     1      48.447   3.604  18.636  0.00  0.00    +0.000 OA
BRANCH  25  28
ATOM     28  N   UNL     1      46.527   5.201  18.621  0.00  0.00    +0.000 NA
ATOM     29  H   UNL     1      46.913   6.144  18.539  0.00  0.00    +0.000 HD
ATOM     30  H   UNL     1      45.550   5.135  18.335  0.00  0.00    +0.000 HD
ENDBRANCH  25  28
ENDBRANCH  21  25
ENDBRANCH  16  18
ENDBRANCH   1  16
TORSDOF 8
ENDMDL
MODEL 9
REMARK VINA RESULT:    -5.887      3.922      6.204
REMARK INTER + INTRA:          -9.632
REMARK INTER:                  -8.667
REMARK INTRA:                  -0.965
REMARK UNBOUND:                -1.164
REMARK  Name = 
REMARK  11 active torsions:
REMARK  status: ('A' for Active; 'I' for Inactive)
REMARK    1  A    between atoms: C_1  and  C_2
REMARK    2  A    between atoms: C_2  and  C_3
REMARK    3  A    between atoms: C_2  and  C_16
REMARK    4  A    between atoms: C_3  and  N_4
REMARK    5  A    between atoms: N_4  and  C_5
REMARK    6  A    between atoms: C_8  and  S_9
REMARK    7  A    between atoms: S_9  and  N_10
REMARK    8  A    between atoms: C_20  and  O_21
REMARK    9  A    between atoms: O_21  and  C_22
REMARK   10  A    between atoms: C_24  and  C_25
REMARK   11  A    between atoms: C_24  and  C_26
REMARK                            x       y       z     vdW  Elec       q    Type
REMARK                         _______ _______ _______ _____ _____    ______ ____
ROOT
ATOM      1  C   UNL     1      47.663   4.800  16.290  0.00  0.00    +0.000 C 
ENDROOT
BRANCH   1   3
ATOM      2  C   UNL     1      49.403   6.586  16.887  0.00  0.00    +0.000 C 
ATOM      3  C   UNL     1      48.763   5.251  17.283  0.00  0.00    +0.000 C 
BRANCH   3   4
ATOM      4  C   UNL     1      49.823   4.161  17.437  0.00  0.00    +0.000 A 
ATOM      5  C   UNL     1      49.518   2.831  17.130  0.00  0.00    +0.000 A 
ATOM      6  C   UNL     1      50.514   1.865  17.245  0.00  0.00    +0.000 A 
ATOM      7  N   UNL     1      51.791   2.120  17.614  0.00  0.00    +0.000 NA
ATOM      8  C   UNL     1      52.076   3.408  17.884  0.00  0.00    +0.000 A 
ATOM      9  C   UNL     1      51.139   4.441  17.830  0.00  0.00    +0.000 A 
BRANCH   8  10
ATOM     10  O   UNL     1      53.392   3.795  18.057  0.00  0.00    +0.000 OA
BRANCH  10  11
ATOM     11  C   UNL     1      53.818   4.991  17.369  0.00  0.00    +0.000 C 
ATOM     12  C   UNL     1      55.332   5.019  17.291  0.00  0.00    +0.000 C 
ATOM     13  C   UNL     1      54.617   6.075  18.088  0.00  0.00    +0.000 C 
ATOM     14  C   UNL     1      54.687   7.466  17.505  0.00  0.00    +0.000 C 
ATOM     15  C   UNL     1      54.691   6.049  19.592  0.00  0.00    +0.000 C 
ENDBRANCH  10  11
ENDBRANCH   8  10
ENDBRANCH   3   4
ENDBRANCH   1   3
BRANCH   1  16
ATOM     16  N   UNL     1      47.684   5.558  15.030  0.00  0.00    +0.000 N 
ATOM     17  H   UNL     1      48.627   5.712  14.666  0.00  0.00    +0.000 HD
BRANCH  16  18
ATOM     18  C   UNL     1      46.875   5.049  13.986  0.00  0.00    +0.000 A 
ATOM     19  C   UNL     1      46.696   3.677  13.772  0.00  0.00    +0.000 A 
ATOM     20  C   UNL     1      45.870   3.208  12.745  0.00  0.00    +0.000 A 
ATOM     21  C   UNL     1      45.178   4.117  11.940  0.00  0.00    +0.000 A 
ATOM     22  C   UNL     1      45.300   5.488  12.154  0.00  0.00    +0.000 A 
ATOM     23  C   UNL     1      46.129   5.935  13.181  0.00  0.00    +0.000 A 
ATOM     24  F   UNL     1      46.247   7.257  13.382  0.00  0.00    +0.000 F 
BRANCH  21  25
ATOM     25  S   UNL     1      44.195   3.508  10.604  0.00  0.00    +0.000 S 
ATOM     26  O   UNL     1      45.057   2.901   9.617  0.00  0.00    +0.000 OA
ATOM     27  O   UNL     1      43.038   2.829  11.139  0.00  0.00    +0.000 OA
BRANCH  25  28
ATOM     28  N   UNL     1      43.623   4.927   9.916  0.00  0.00    +0.000 NA
ATOM     29  H   UNL     1      44.387   5.601   9.833  0.00  0.00    +0.000 HD
ATOM     30  H   UNL     1      43.164   4.721   9.029  0.00  0.00    +0.000 HD
ENDBRANCH  25  28
ENDBRANCH  21  25
ENDBRANCH  16  18
ENDBRANCH   1  16
TORSDOF 8
ENDMDL
