MODEL 1
REMARK VINA RESULT:    -6.523      0.000      0.000
REMARK INTER + INTRA:          -9.663
REMARK INTER:                  -9.001
REMARK INTRA:                  -0.662
REMARK UNBOUND:                -0.662
REMARK  Name = 
REMARK  7 active torsions:
REMARK  status: ('A' for Active; 'I' for Inactive)
REMARK    1  A    between atoms: C_2  and  C_3
REMARK    2  A    between atoms: N_5  and  C_6
REMARK    3  A    between atoms: C_6  and  C_7
REMARK    4  A    between atoms: C_10  and  C_11
REMARK    5  A    between atoms: N_13  and  C_14
REMARK    6  A    between atoms: C_14  and  C_15
REMARK    7  A    between atoms: C_15  and  N_16
REMARK                            x       y       z     vdW  Elec       q    Type
REMARK                         _______ _______ _______ _____ _____    ______ ____
ROOT
ATOM      1  C   UNL     1      44.166   5.229  11.504  0.00  0.00    +0.000 A 
ATOM      2  C   UNL     1      43.697   3.933  11.741  0.00  0.00    +0.000 A 
ATOM      3  C   UNL     1      44.001   2.906  10.844  0.00  0.00    +0.000 A 
ATOM      4  C   UNL     1      44.746   3.212   9.708  0.00  0.00    +0.000 A 
ATOM      5  N   UNL     1      45.127   4.481   9.392  0.00  0.00    +0.000 NA
ATOM      6  C   UNL     1      44.833   5.446  10.298  0.00  0.00    +0.000 A 
ENDROOT
BRANCH   4   7
ATOM      7  C   UNL     1      45.234   2.113   8.800  0.00  0.00    +0.000 C 
ATOM      8  O   UNL     1      44.655   1.032   8.753  0.00  0.00    +0.000 OA
ATOM      9  N   UNL     1      46.362   2.395   8.049  0.00  0.00    +0.000 N 
ATOM     10  H   UNL     1      46.731   3.340   8.071  0.00  0.00    +0.000 HD
BRANCH   9  11
ATOM     11  C   UNL     1      46.939   1.426   7.130  0.00  0.00    +0.000 C 
BRANCH  11  12
ATOM     12  C   UNL     1      48.339   1.842   6.657  0.00  0.00    +0.000 C 
BRANCH  12  13
ATOM     13  N   UNL     1      48.353   2.203   5.233  0.00  0.00    +0.000 NA
ATOM     14  H   UNL     1      49.292   2.045   4.869  0.00  0.00    +0.000 HD
ATOM     15  H   UNL     1      48.181   3.204   5.147  0.00  0.00    +0.000 HD
ENDBRANCH  12  13
ENDBRANCH  11  12
ENDBRANCH   9  11
ENDBRANCH   4   7
BRANCH   1  16
ATOM     16  C   UNL     1      44.040   6.314  12.545  0.00  0.00    +0.000 C 
BRANCH  16  19
ATOM     17  C   UNL     1      47.420   7.298  13.492  0.00  0.00    +0.000 A 
ATOM     18  C   UNL     1      46.422   6.355  13.361  0.00  0.00    +0.000 A 
ATOM     19  N   UNL     1      45.325   6.969  12.795  0.00  0.00    +0.000 N 
ATOM     20  C   UNL     1      45.646   8.279  12.471  0.00  0.00    +0.000 A 
ATOM     21  C   UNL     1      44.895   9.282  11.838  0.00  0.00    +0.000 A 
ATOM     22  C   UNL     1      45.484  10.536  11.655  0.00  0.00    +0.000 A 
ATOM     23  C   UNL     1      46.781  10.790  12.091  0.00  0.00    +0.000 A 
ATOM     24  C   UNL     1      47.523   9.789  12.724  0.00  0.00    +0.000 A 
ATOM     25  C   UNL     1      46.953   8.510  12.913  0.00  0.00    +0.000 A 
BRANCH  17  27
ATOM     26  N   UNL     1      49.721   6.891  14.607  0.00  0.00    +0.000 NA
ATOM     27  C   UNL     1      48.695   7.071  14.104  0.00  0.00    +0.000 C 
ENDBRANCH  17  27
ENDBRANCH  16  19
ENDBRANCH   1  16
TORSDOF 7
ENDMDL
MODEL 2
REMARK VINA RESULT:    -6.117      2.127      2.695
REMARK INTER + INTRA:          -9.103
REMARK INTER:                  -8.537
REMARK INTRA:                  -0.566
REMARK UNBOUND:                -0.662
REMARK  Name = 
REMARK  7 active torsions:
REMARK  status: ('A' for Active; 'I' for Inactive)
REMARK    1  A    between atoms: C_2  and  C_3
REMARK    2  A    between atoms: N_5  and  C_6
REMARK    3  A    between atoms: C_6  and  C_7
REMARK    4  A    between atoms: C_10  and  C_11
REMARK    5  A    between atoms: N_13  and  C_14
REMARK    6  A    between atoms: C_14  and  C_15
REMARK    7  A    between atoms: C_15  and  N_16
REMARK                            x       y       z     vdW  Elec       q    Type
REMARK                         _______ _______ _______ _____ _____    ______ ____
ROOT
ATOM      1  C   UNL     1      46.349   5.940  12.874  0.00  0.00    +0.000 A 
ATOM      2  C   UNL     1      46.076   4.670  13.391  0.00  0.00    +0.000 A 
ATOM      3  C   UNL     1      45.521   3.687  12.570  0.00  0.00    +0.000 A 
ATOM      4  C   UNL     1      45.220   4.013  11.250  0.00  0.00    +0.000 A 
ATOM      5  N   UNL     1      45.372   5.269  10.744  0.00  0.00    +0.000 NA
ATOM      6  C   UNL     1      45.935   6.189  11.566  0.00  0.00    +0.000 A 
ENDROOT
BRANCH   4   7
ATOM      7  C   UNL     1      44.771   2.946  10.285  0.00  0.00    +0.000 C 
ATOM      8  O   UNL     1      43.610   2.548  10.282  0.00  0.00    +0.000 OA
ATOM      9  N   UNL     1      45.739   2.445   9.433  0.00  0.00    +0.000 N 
ATOM     10  H   UNL     1      46.653   2.886   9.430  0.00  0.00    +0.000 HD
BRANCH   9  11
ATOM     11  C   UNL     1      45.444   1.413   8.451  0.00  0.00    +0.000 C 
BRANCH  11  12
ATOM     12  C   UNL     1      46.702   0.951   7.702  0.00  0.00    +0.000 C 
BRANCH  12  13
ATOM     13  N   UNL     1      46.839  -0.512   7.709  0.00  0.00    +0.000 NA
ATOM     14  H   UNL     1      45.935  -0.922   7.475  0.00  0.00    +0.000 HD
ATOM     15  H   UNL     1      47.049  -0.818   8.659  0.00  0.00    +0.000 HD
ENDBRANCH  12  13
ENDBRANCH  11  12
ENDBRANCH   9  11
ENDBRANCH   4   7
BRANCH   1  16
ATOM     16  C   UNL     1      47.136   6.958  13.662  0.00  0.00    +0.000 C 
BRANCH  16  19
ATOM     17  C   UNL     1      49.930   8.176  11.663  0.00  0.00    +0.000 A 
ATOM     18  C   UNL     1      49.301   7.193  12.397  0.00  0.00    +0.000 A 
ATOM     19  N   UNL     1      48.080   7.683  12.810  0.00  0.00    +0.000 N 
ATOM     20  C   UNL     1      47.879   8.941  12.262  0.00  0.00    +0.000 A 
ATOM     21  C   UNL     1      46.785   9.816  12.342  0.00  0.00    +0.000 A 
ATOM     22  C   UNL     1      46.872  11.049  11.688  0.00  0.00    +0.000 A 
ATOM     23  C   UNL     1      48.013  11.404  10.977  0.00  0.00    +0.000 A 
ATOM     24  C   UNL     1      49.101  10.530  10.903  0.00  0.00    +0.000 A 
ATOM     25  C   UNL     1      49.035   9.275  11.548  0.00  0.00    +0.000 A 
BRANCH  17  27
ATOM     26  N   UNL     1      52.314   8.004  10.667  0.00  0.00    +0.000 NA
ATOM     27  C   UNL     1      51.251   8.082  11.117  0.00  0.00    +0.000 C 
ENDBRANCH  17  27
ENDBRANCH  16  19
ENDBRANCH   1  16
TORSDOF 7
ENDMDL
MODEL 3
REMARK VINA RESULT:    -6.075      2.199      3.493
REMARK INTER + INTRA:          -9.044
REMARK INTER:                  -8.271
REMARK INTRA:                  -0.773
REMARK UNBOUND:                -0.662
REMARK  Name = 
REMARK  7 active torsions:
REMARK  status: ('A' for Active; 'I' for Inactive)
REMARK    1  A    between atoms: C_2  and  C_3
REMARK    2  A    between atoms: N_5  and  C_6
REMARK    3  A    between atoms: C_6  and  C_7
REMARK    4  A    between atoms: C_10  and  C_11
REMARK    5  A    between atoms: N_13  and  C_14
REMARK    6  A    between atoms: C_14  and  C_15
REMARK    7  A    between atoms: C_15  and  N_16
REMARK                            x       y       z     vdW  Elec       q    Type
REMARK                         _______ _______ _______ _____ _____    ______ ____
ROOT
ATOM      1  C   UNL     1      45.719   6.733  12.598  0.00  0.00    +0.000 A 
ATOM      2  C   UNL     1      45.976   5.500  13.206  0.00  0.00    +0.000 A 
ATOM      3  C   UNL     1      45.550   4.319  12.594  0.00  0.00    +0.000 A 
ATOM      4  C   UNL     1      44.843   4.405  11.397  0.00  0.00    +0.000 A 
ATOM      5  N   UNL     1      44.482   5.591  10.834  0.00  0.00    +0.000 NA
ATOM      6  C   UNL     1      44.934   6.715  11.446  0.00  0.00    +0.000 A 
ENDROOT
BRANCH   4   7
ATOM      7  C   UNL     1      44.505   3.158  10.622  0.00  0.00    +0.000 C 
ATOM      8  O   UNL     1      43.501   2.504  10.888  0.00  0.00    +0.000 OA
ATOM      9  N   UNL     1      45.391   2.799   9.622  0.00  0.00    +0.000 N 
ATOM     10  H   UNL     1      46.148   3.437   9.398  0.00  0.00    +0.000 HD
BRANCH   9  11
ATOM     11  C   UNL     1      45.186   1.620   8.795  0.00  0.00    +0.000 C 
BRANCH  11  12
ATOM     12  C   UNL     1      46.412   1.304   7.927  0.00  0.00    +0.000 C 
BRANCH  12  13
ATOM     13  N   UNL     1      46.700  -0.137   7.888  0.00  0.00    +0.000 NA
ATOM     14  H   UNL     1      47.421  -0.340   8.580  0.00  0.00    +0.000 HD
ATOM     15  H   UNL     1      47.107  -0.366   6.982  0.00  0.00    +0.000 HD
ENDBRANCH  12  13
ENDBRANCH  11  12
ENDBRANCH   9  11
ENDBRANCH   4   7
BRANCH   1  16
ATOM     16  C   UNL     1      46.339   8.008  13.113  0.00  0.00    +0.000 C 
BRANCH  16  19
ATOM     17  C   UNL     1      49.838   7.808  12.109  0.00  0.00    +0.000 A 
ATOM     18  C   UNL     1      48.492   7.861  11.814  0.00  0.00    +0.000 A 
ATOM     19  N   UNL     1      47.798   7.978  13.000  0.00  0.00    +0.000 N 
ATOM     20  C   UNL     1      48.698   8.100  14.049  0.00  0.00    +0.000 A 
ATOM     21  C   UNL     1      48.489   8.293  15.424  0.00  0.00    +0.000 A 
ATOM     22  C   UNL     1      49.605   8.363  16.262  0.00  0.00    +0.000 A 
ATOM     23  C   UNL     1      50.893   8.244  15.750  0.00  0.00    +0.000 A 
ATOM     24  C   UNL     1      51.096   8.049  14.381  0.00  0.00    +0.000 A 
ATOM     25  C   UNL     1      49.984   7.982  13.513  0.00  0.00    +0.000 A 
BRANCH  17  27
ATOM     26  N   UNL     1      51.725   7.457  10.372  0.00  0.00    +0.000 NA
ATOM     27  C   UNL     1      50.886   7.615  11.152  0.00  0.00    +0.000 C 
ENDBRANCH  17  27
ENDBRANCH  16  19
ENDBRANCH   1  16
TORSDOF 7
ENDMDL
MODEL 4
REMARK VINA RESULT:    -6.041      1.711      2.284
REMARK INTER + INTRA:          -8.998
REMARK INTER:                  -8.222
REMARK INTRA:                  -0.776
REMARK UNBOUND:                -0.662
REMARK  Name = 
REMARK  7 active torsions:
REMARK  status: ('A' for Active; 'I' for Inactive)
REMARK    1  A    between atoms: C_2  and  C_3
REMARK    2  A    between atoms: N_5  and  C_6
REMARK    3  A    between atoms: C_6  and  C_7
REMARK    4  A    between atoms: C_10  and  C_11
REMARK    5  A    between atoms: N_13  and  C_14
REMARK    6  A    between atoms: C_14  and  C_15
REMARK    7  A    between atoms: C_15  and  N_16
REMARK                            x       y       z     vdW  Elec       q    Type
REMARK                         _______ _______ _______ _____ _____    ______ ____
ROOT
ATOM      1  C   UNL     1      44.801   5.074  11.518  0.00  0.00    +0.000 A 
ATOM      2  C   UNL     1      44.485   3.713  11.581  0.00  0.00    +0.000 A 
ATOM      3  C   UNL     1      44.716   2.892  10.475  0.00  0.00    +0.000 A 
ATOM      4  C   UNL     1      45.230   3.465   9.315  0.00  0.00    +0.000 A 
ATOM      5  N   UNL     1      45.447   4.803   9.183  0.00  0.00    +0.000 NA
ATOM      6  C   UNL     1      45.234   5.564  10.286  0.00  0.00    +0.000 A 
ENDROOT
BRANCH   4   7
ATOM      7  C   UNL     1      45.644   2.596   8.156  0.00  0.00    +0.000 C 
ATOM      8  O   UNL     1      45.832   1.392   8.307  0.00  0.00    +0.000 OA
ATOM      9  N   UNL     1      45.810   3.235   6.940  0.00  0.00    +0.000 N 
ATOM     10  H   UNL     1      45.548   4.213   6.870  0.00  0.00    +0.000 HD
BRANCH   9  11
ATOM     11  C   UNL     1      46.206   2.517   5.738  0.00  0.00    +0.000 C 
BRANCH  11  12
ATOM     12  C   UNL     1      47.654   2.824   5.333  0.00  0.00    +0.000 C 
BRANCH  12  13
ATOM     13  N   UNL     1      48.576   1.754   5.737  0.00  0.00    +0.000 NA
ATOM     14  H   UNL     1      48.964   1.328   4.895  0.00  0.00    +0.000 HD
ATOM     15  H   UNL     1      48.043   1.021   6.203  0.00  0.00    +0.000 HD
ENDBRANCH  12  13
ENDBRANCH  11  12
ENDBRANCH   9  11
ENDBRANCH   4   7
BRANCH   1  16
ATOM     16  C   UNL     1      44.766   5.948  12.748  0.00  0.00    +0.000 C 
BRANCH  16  19
ATOM     17  C   UNL     1      47.506   5.074  14.988  0.00  0.00    +0.000 A 
ATOM     18  C   UNL     1      46.284   4.811  14.406  0.00  0.00    +0.000 A 
ATOM     19  N   UNL     1      46.002   5.833  13.523  0.00  0.00    +0.000 N 
ATOM     20  C   UNL     1      47.083   6.700  13.463  0.00  0.00    +0.000 A 
ATOM     21  C   UNL     1      47.300   7.848  12.684  0.00  0.00    +0.000 A 
ATOM     22  C   UNL     1      48.500   8.544  12.850  0.00  0.00    +0.000 A 
ATOM     23  C   UNL     1      49.457   8.117  13.765  0.00  0.00    +0.000 A 
ATOM     24  C   UNL     1      49.235   6.975  14.540  0.00  0.00    +0.000 A 
ATOM     25  C   UNL     1      48.033   6.249  14.385  0.00  0.00    +0.000 A 
BRANCH  17  27
ATOM     26  N   UNL     1      48.621   3.653  16.843  0.00  0.00    +0.000 NA
ATOM     27  C   UNL     1      48.118   4.284  16.014  0.00  0.00    +0.000 C 
ENDBRANCH  17  27
ENDBRANCH  16  19
ENDBRANCH   1  16
TORSDOF 7
ENDMDL
MODEL 5
REMARK VINA RESULT:    -5.817      3.243      7.901
REMARK INTER + INTRA:          -8.688
REMARK INTER:                  -8.223
REMARK INTRA:                  -0.466
REMARK UNBOUND:                -0.662
REMARK  Name = 
REMARK  7 active torsions:
REMARK  status: ('A' for Active; 'I' for Inactive)
REMARK    1  A    between atoms: C_2  and  C_3
REMARK    2  A    between atoms: N_5  and  C_6
REMARK    3  A    between atoms: C_6  and  C_7
REMARK    4  A    between atoms: C_10  and  C_11
REMARK    5  A    between atoms: N_13  and  C_14
REMARK    6  A    between atoms: C_14  and  C_15
REMARK    7  A    between atoms: C_15  and  N_16
REMARK                            x       y       z     vdW  Elec       q    Type
REMARK                         _______ _______ _______ _____ _____    ______ ____
ROOT
ATOM      1  C   UNL     1      46.606   7.280  12.530  0.00  0.00    +0.000 A 
ATOM      2  C   UNL     1      47.214   6.057  12.831  0.00  0.00    +0.000 A 
ATOM      3  C   UNL     1      48.026   5.941  13.960  0.00  0.00    +0.000 A 
ATOM      4  C   UNL     1      48.238   7.069  14.748  0.00  0.00    +0.000 A 
ATOM      5  N   UNL     1      47.751   8.299  14.426  0.00  0.00    +0.000 NA
ATOM      6  C   UNL     1      46.947   8.366  13.335  0.00  0.00    +0.000 A 
ENDROOT
BRANCH   4   7
ATOM      7  C   UNL     1      48.973   6.955  16.059  0.00  0.00    +0.000 C 
ATOM      8  O   UNL     1      50.145   7.307  16.156  0.00  0.00    +0.000 OA
ATOM      9  N   UNL     1      48.258   6.424  17.118  0.00  0.00    +0.000 N 
ATOM     10  H   UNL     1      47.268   6.242  16.987  0.00  0.00    +0.000 HD
BRANCH   9  11
ATOM     11  C   UNL     1      48.843   6.259  18.439  0.00  0.00    +0.000 C 
BRANCH  11  12
ATOM     12  C   UNL     1      47.805   5.814  19.479  0.00  0.00    +0.000 C 
BRANCH  12  13
ATOM     13  N   UNL     1      46.540   5.408  18.852  0.00  0.00    +0.000 NA
ATOM     14  H   UNL     1      46.549   5.714  17.879  0.00  0.00    +0.000 HD
ATOM     15  H   UNL     1      45.775   5.912  19.299  0.00  0.00    +0.000 HD
ENDBRANCH  12  13
ENDBRANCH  11  12
ENDBRANCH   9  11
ENDBRANCH   4   7
BRANCH   1  16
ATOM     16  C   UNL     1      45.561   7.394  11.448  0.00  0.00    +0.000 C 
BRANCH  16  19
ATOM     17  C   UNL     1      45.602   4.625   9.077  0.00  0.00    +0.000 A 
ATOM     18  C   UNL     1      46.013   5.875   9.491  0.00  0.00    +0.000 A 
ATOM     19  N   UNL     1      45.418   6.141  10.706  0.00  0.00    +0.000 N 
ATOM     20  C   UNL     1      44.703   5.027  11.122  0.00  0.00    +0.000 A 
ATOM     21  C   UNL     1      43.976   4.786  12.298  0.00  0.00    +0.000 A 
ATOM     22  C   UNL     1      43.332   3.553  12.440  0.00  0.00    +0.000 A 
ATOM     23  C   UNL     1      43.405   2.588  11.442  0.00  0.00    +0.000 A 
ATOM     24  C   UNL     1      44.128   2.833  10.271  0.00  0.00    +0.000 A 
ATOM     25  C   UNL     1      44.794   4.068  10.107  0.00  0.00    +0.000 A 
BRANCH  17  27
ATOM     26  N   UNL     1      46.226   3.530   6.815  0.00  0.00    +0.000 NA
ATOM     27  C   UNL     1      45.944   4.015   7.828  0.00  0.00    +0.000 C 
ENDBRANCH  17  27
ENDBRANCH  16  19
ENDBRANCH   1  16
TORSDOF 7
ENDMDL
MODEL 6
REMARK VINA RESULT:    -5.804      4.374      7.222
REMARK INTER + INTRA:          -8.671
REMARK INTER:                  -7.755
REMARK INTRA:                  -0.916
REMARK UNBOUND:                -0.662
REMARK  Name = 
REMARK  7 active torsions:
REMARK  status: ('A' for Active; 'I' for Inactive)
REMARK    1  A    between atoms: C_2  and  C_3
REMARK    2  A    between atoms: N_5  and  C_6
REMARK    3  A    between atoms: C_6  and  C_7
REMARK    4  A    between atoms: C_10  and  C_11
REMARK    5  A    between atoms: N_13  and  C_14
REMARK    6  A    between atoms: C_14  and  C_15
REMARK    7  A    between atoms: C_15  and  N_16
REMARK                            x       y       z     vdW  Elec       q    Type
REMARK                         _______ _______ _______ _____ _____    ______ ____
ROOT
ATOM      1  C   UNL     1      48.279   5.361  16.161  0.00  0.00    +0.000 A 
ATOM      2  C   UNL     1      48.360   6.247  15.082  0.00  0.00    +0.000 A 
ATOM      3  C   UNL     1      47.551   6.056  13.960  0.00  0.00    +0.000 A 
ATOM      4  C   UNL     1      46.698   4.956  13.933  0.00  0.00    +0.000 A 
ATOM      5  N   UNL     1      46.672   4.014  14.917  0.00  0.00    +0.000 NA
ATOM      6  C   UNL     1      47.455   4.247  16.000  0.00  0.00    +0.000 A 
ENDROOT
BRANCH   4   7
ATOM      7  C   UNL     1      45.695   4.798  12.820  0.00  0.00    +0.000 C 
ATOM      8  O   UNL     1      45.913   5.264  11.705  0.00  0.00    +0.000 OA
ATOM      9  N   UNL     1      44.530   4.121  13.136  0.00  0.00    +0.000 N 
ATOM     10  H   UNL     1      44.460   3.685  14.050  0.00  0.00    +0.000 HD
BRANCH   9  11
ATOM     11  C   UNL     1      43.477   3.896  12.158  0.00  0.00    +0.000 C 
BRANCH  11  12
ATOM     12  C   UNL     1      42.650   5.163  11.898  0.00  0.00    +0.000 C 
BRANCH  12  13
ATOM     13  N   UNL     1      43.043   5.827  10.648  0.00  0.00    +0.000 NA
ATOM     14  H   UNL     1      42.209   6.231  10.221  0.00  0.00    +0.000 HD
ATOM     15  H   UNL     1      43.381   5.123   9.994  0.00  0.00    +0.000 HD
ENDBRANCH  12  13
ENDBRANCH  11  12
ENDBRANCH   9  11
ENDBRANCH   4   7
BRANCH   1  16
ATOM     16  C   UNL     1      48.976   5.647  17.468  0.00  0.00    +0.000 C 
BRANCH  16  19
ATOM     17  C   UNL     1      51.961   3.583  17.821  0.00  0.00    +0.000 A 
ATOM     18  C   UNL     1      50.592   3.752  17.846  0.00  0.00    +0.000 A 
ATOM     19  N   UNL     1      50.316   5.059  17.501  0.00  0.00    +0.000 N 
ATOM     20  C   UNL     1      51.496   5.703  17.159  0.00  0.00    +0.000 A 
ATOM     21  C   UNL     1      51.732   7.008  16.696  0.00  0.00    +0.000 A 
ATOM     22  C   UNL     1      53.051   7.394  16.443  0.00  0.00    +0.000 A 
ATOM     23  C   UNL     1      54.107   6.512  16.646  0.00  0.00    +0.000 A 
ATOM     24  C   UNL     1      53.868   5.215  17.110  0.00  0.00    +0.000 A 
ATOM     25  C   UNL     1      52.542   4.799  17.366  0.00  0.00    +0.000 A 
BRANCH  17  27
ATOM     26  N   UNL     1      53.211   1.419  18.495  0.00  0.00    +0.000 NA
ATOM     27  C   UNL     1      52.651   2.384  18.189  0.00  0.00    +0.000 C 
ENDBRANCH  17  27
ENDBRANCH  16  19
ENDBRANCH   1  16
TORSDOF 7
ENDMDL
MODEL 7
REMARK VINA RESULT:    -5.794      4.701      7.832
REMARK INTER + INTRA:          -8.657
REMARK INTER:                  -7.866
REMARK INTRA:                  -0.791
REMARK UNBOUND:                -0.662
REMARK  Name = 
REMARK  7 active torsions:
REMARK  status: ('A' for Active; 'I' for Inactive)
REMARK    1  A    between atoms: C_2  and  C_3
REMARK    2  A    between atoms: N_5  and  C_6
REMARK    3  A    between atoms: C_6  and  C_7
REMARK    4  A    between atoms: C_10  and  C_11
REMARK    5  A    between atoms: N_13  and  C_14
REMARK    6  A    between atoms: C_14  and  C_15
REMARK    7  A    between atoms: C_15  and  N_16
REMARK                            x       y       z     vdW  Elec       q    Type
REMARK                         _______ _______ _______ _____ _____    ______ ____
ROOT
ATOM      1  C   UNL     1      48.250   5.224  16.472  0.00  0.00    +0.000 A 
ATOM      2  C   UNL     1      48.609   6.220  15.558  0.00  0.00    +0.000 A 
ATOM      3  C   UNL     1      48.000   6.265  14.302  0.00  0.00    +0.000 A 
ATOM      4  C   UNL     1      47.065   5.285  13.979  0.00  0.00    +0.000 A 
ATOM      5  N   UNL     1      46.772   4.240  14.802  0.00  0.00    +0.000 NA
ATOM      6  C   UNL     1      47.366   4.245  16.022  0.00  0.00    +0.000 A 
ENDROOT
BRANCH   4   7
ATOM      7  C   UNL     1      46.267   5.385  12.704  0.00  0.00    +0.000 C 
ATOM      8  O   UNL     1      46.639   6.108  11.784  0.00  0.00    +0.000 OA
ATOM      9  N   UNL     1      45.106   4.635  12.648  0.00  0.00    +0.000 N 
ATOM     10  H   UNL     1      44.911   3.991  13.408  0.00  0.00    +0.000 HD
BRANCH   9  11
ATOM     11  C   UNL     1      44.242   4.636  11.477  0.00  0.00    +0.000 C 
BRANCH  11  12
ATOM     12  C   UNL     1      42.821   5.113  11.809  0.00  0.00    +0.000 C 
BRANCH  12  13
ATOM     13  N   UNL     1      42.652   5.377  13.245  0.00  0.00    +0.000 NA
ATOM     14  H   UNL     1      42.229   6.298  13.356  0.00  0.00    +0.000 HD
ATOM     15  H   UNL     1      43.572   5.434  13.678  0.00  0.00    +0.000 HD
ENDBRANCH  12  13
ENDBRANCH  11  12
ENDBRANCH   9  11
ENDBRANCH   4   7
BRANCH   1  16
ATOM     16  C   UNL     1      48.725   5.263  17.904  0.00  0.00    +0.000 C 
BRANCH  16  19
ATOM     17  C   UNL     1      52.353   5.355  18.247  0.00  0.00    +0.000 A 
ATOM     18  C   UNL     1      51.113   5.954  18.311  0.00  0.00    +0.000 A 
ATOM     19  N   UNL     1      50.162   5.004  18.000  0.00  0.00    +0.000 N 
ATOM     20  C   UNL     1      50.779   3.773  17.834  0.00  0.00    +0.000 A 
ATOM     21  C   UNL     1      50.244   2.504  17.563  0.00  0.00    +0.000 A 
ATOM     22  C   UNL     1      51.125   1.427  17.430  0.00  0.00    +0.000 A 
ATOM     23  C   UNL     1      52.499   1.604  17.558  0.00  0.00    +0.000 A 
ATOM     24  C   UNL     1      53.027   2.871  17.825  0.00  0.00    +0.000 A 
ATOM     25  C   UNL     1      52.157   3.974  17.972  0.00  0.00    +0.000 A 
BRANCH  17  27
ATOM     26  N   UNL     1      54.618   6.565  18.577  0.00  0.00    +0.000 NA
ATOM     27  C   UNL     1      53.604   6.026  18.435  0.00  0.00    +0.000 C 
ENDBRANCH  17  27
ENDBRANCH  16  19
ENDBRANCH   1  16
TORSDOF 7
ENDMDL
MODEL 8
REMARK VINA RESULT:    -5.708      4.140      6.529
REMARK INTER + INTRA:          -8.538
REMARK INTER:                  -7.763
REMARK INTRA:                  -0.774
REMARK UNBOUND:                -0.662
REMARK  Name = 
REMARK  7 active torsions:
REMARK  status: ('A' for Active; 'I' for Inactive)
REMARK    1  A    between atoms: C_2  and  C_3
REMARK    2  A    between atoms: N_5  and  C_6
REMARK    3  A    between atoms: C_6  and  C_7
REMARK    4  A    between atoms: C_10  and  C_11
REMARK    5  A    between atoms: N_13  and  C_14
REMARK    6  A    between atoms: C_14  and  C_15
REMARK    7  A    between atoms: C_15  and  N_16
REMARK                            x       y       z     vdW  Elec       q    Type
REMARK                         _______ _______ _______ _____ _____    ______ ____
ROOT
ATOM      1  C   UNL     1      48.199   6.161  15.086  0.00  0.00    +0.000 A 
ATOM      2  C   UNL     1      48.074   6.558  13.750  0.00  0.00    +0.000 A 
ATOM      3  C   UNL     1      47.197   5.881  12.900  0.00  0.00    +0.000 A 
ATOM      4  C   UNL     1      46.485   4.796  13.405  0.00  0.00    +0.000 A 
ATOM      5  N   UNL     1      46.662   4.316  14.667  0.00  0.00    +0.000 NA
ATOM      6  C   UNL     1      47.505   5.014  15.468  0.00  0.00    +0.000 A 
ENDROOT
BRANCH   4   7
ATOM      7  C   UNL     1      45.412   4.138  12.575  0.00  0.00    +0.000 C 
ATOM      8  O   UNL     1      45.019   3.005  12.838  0.00  0.00    +0.000 OA
ATOM      9  N   UNL     1      44.922   4.876  11.512  0.00  0.00    +0.000 N 
ATOM     10  H   UNL     1      45.227   5.838  11.412  0.00  0.00    +0.000 HD
BRANCH   9  11
ATOM     11  C   UNL     1      43.884   4.363  10.631  0.00  0.00    +0.000 C 
BRANCH  11  12
ATOM     12  C   UNL     1      44.464   3.531   9.479  0.00  0.00    +0.000 C 
BRANCH  12  13
ATOM     13  N   UNL     1      44.520   2.100   9.809  0.00  0.00    +0.000 NA
ATOM     14  H   UNL     1      44.380   1.995  10.814  0.00  0.00    +0.000 HD
ATOM     15  H   UNL     1      45.460   1.756   9.618  0.00  0.00    +0.000 HD
ENDBRANCH  12  13
ENDBRANCH  11  12
ENDBRANCH   9  11
ENDBRANCH   4   7
BRANCH   1  16
ATOM     16  C   UNL     1      48.970   6.989  16.084  0.00  0.00    +0.000 C 
BRANCH  16  19
ATOM     17  C   UNL     1      50.854   4.765  18.272  0.00  0.00    +0.000 A 
ATOM     18  C   UNL     1      50.708   5.477  17.100  0.00  0.00    +0.000 A 
ATOM     19  N   UNL     1      49.513   6.161  17.162  0.00  0.00    +0.000 N 
ATOM     20  C   UNL     1      48.936   5.970  18.408  0.00  0.00    +0.000 A 
ATOM     21  C   UNL     1      47.759   6.491  18.969  0.00  0.00    +0.000 A 
ATOM     22  C   UNL     1      47.413   6.103  20.266  0.00  0.00    +0.000 A 
ATOM     23  C   UNL     1      48.211   5.220  20.987  0.00  0.00    +0.000 A 
ATOM     24  C   UNL     1      49.381   4.702  20.424  0.00  0.00    +0.000 A 
ATOM     25  C   UNL     1      49.756   5.085  19.117  0.00  0.00    +0.000 A 
BRANCH  17  27
ATOM     26  N   UNL     1      52.798   3.139  18.804  0.00  0.00    +0.000 NA
ATOM     27  C   UNL     1      51.933   3.870  18.566  0.00  0.00    +0.000 C 
ENDBRANCH  17  27
ENDBRANCH  16  19
ENDBRANCH   1  16
TORSDOF 7
ENDMDL
MODEL 9
REMARK VINA RESULT:    -5.701      5.511      7.774
REMARK INTER + INTRA:          -8.529
REMARK INTER:                  -8.034
REMARK INTRA:                  -0.496
REMARK UNBOUND:                -0.662
REMARK  Name = 
REMARK  7 active torsions:
REMARK  status: ('A' for Active; 'I' for Inactive)
REMARK    1  A    between atoms: C_2  and  C_3
REMARK    2  A    between atoms: N_5  and  C_6
REMARK    3  A    between atoms: C_6  and  C_7
REMARK    4  A    between atoms: C_10  and  C_11
REMARK    5  A    between atoms: N_13  and  C_14
REMARK    6  A    between atoms: C_14  and  C_15
REMARK    7  A    between atoms: C_15  and  N_16
REMARK                            x       y       z     vdW  Elec       q    Type
REMARK                         _______ _______ _______ _____ _____    ______ ____
ROOT
ATOM      1  C   UNL     1      48.168   3.496  16.614  0.00  0.00    +0.000 A 
ATOM      2  C   UNL     1      48.920   4.121  17.614  0.00  0.00    +0.000 A 
ATOM      3  C   UNL     1      50.164   3.603  17.978  0.00  0.00    +0.000 A 
ATOM      4  C   UNL     1      50.613   2.444  17.350  0.00  0.00    +0.000 A 
ATOM      5  N   UNL     1      49.861   1.750  16.452  0.00  0.00    +0.000 NA
ATOM      6  C   UNL     1      48.669   2.297  16.107  0.00  0.00    +0.000 A 
ENDROOT
BRANCH   4   7
ATOM      7  C   UNL     1      52.013   1.941  17.593  0.00  0.00    +0.000 C 
ATOM      8  O   UNL     1      52.913   2.712  17.913  0.00  0.00    +0.000 OA
ATOM      9  N   UNL     1      52.213   0.582  17.420  0.00  0.00    +0.000 N 
ATOM     10  H   UNL     1      51.404  -0.005  17.245  0.00  0.00    +0.000 HD
BRANCH   9  11
ATOM     11  C   UNL     1      53.514  -0.038  17.622  0.00  0.00    +0.000 C 
BRANCH  11  12
ATOM     12  C   UNL     1      54.343  -0.076  16.331  0.00  0.00    +0.000 C 
BRANCH  12  13
ATOM     13  N   UNL     1      54.271  -1.386  15.671  0.00  0.00    +0.000 NA
ATOM     14  H   UNL     1      55.213  -1.659  15.392  0.00  0.00    +0.000 HD
ATOM     15  H   UNL     1      53.739  -1.289  14.807  0.00  0.00    +0.000 HD
ENDBRANCH  12  13
ENDBRANCH  11  12
ENDBRANCH   9  11
ENDBRANCH   4   7
BRANCH   1  16
ATOM     16  C   UNL     1      46.925   4.137  16.048  0.00  0.00    +0.000 C 
BRANCH  16  19
ATOM     17  C   UNL     1      48.224   6.676  13.778  0.00  0.00    +0.000 A 
ATOM     18  C   UNL     1      48.270   5.967  14.959  0.00  0.00    +0.000 A 
ATOM     19  N   UNL     1      47.245   5.045  14.945  0.00  0.00    +0.000 N 
ATOM     20  C   UNL     1      46.601   5.091  13.717  0.00  0.00    +0.000 A 
ATOM     21  C   UNL     1      45.543   4.325  13.202  0.00  0.00    +0.000 A 
ATOM     22  C   UNL     1      45.082   4.611  11.915  0.00  0.00    +0.000 A 
ATOM     23  C   UNL     1      45.651   5.632  11.160  0.00  0.00    +0.000 A 
ATOM     24  C   UNL     1      46.702   6.394  11.678  0.00  0.00    +0.000 A 
ATOM     25  C   UNL     1      47.192   6.119  12.974  0.00  0.00    +0.000 A 
BRANCH  17  27
ATOM     26  N   UNL     1      49.775   8.660  13.176  0.00  0.00    +0.000 NA
ATOM     27  C   UNL     1      49.079   7.775  13.440  0.00  0.00    +0.000 C 
ENDBRANCH  17  27
ENDBRANCH  16  19
ENDBRANCH   1  16
TORSDOF 7
ENDMDL
