MODEL 1
REMARK VINA RESULT:    -8.530      0.000      0.000
REMARK INTER + INTRA:         -11.789
REMARK INTER:                 -11.023
REMARK INTRA:                  -0.766
REMARK UNBOUND:                -0.766
REMARK  Name = 
REMARK  5 active torsions:
REMARK  status: ('A' for Active; 'I' for Inactive)
REMARK    1  A    between atoms: C_2  and  C_4
REMARK    2  A    between atoms: C_7  and  O_8
REMARK    3  A    between atoms: O_8  and  C_9
REMARK    4  A    between atoms: C_9  and  C_10
REMARK    5  A    between atoms: C_14  and  C_15
REMARK                            x       y       z     vdW  Elec       q    Type
REMARK                         _______ _______ _______ _____ _____    ______ ____
ROOT
ATOM      1  C   UNL     1      43.812   5.158  10.679  0.00  0.00    +0.000 C 
ENDROOT
BRANCH   1   2
ATOM      2  C   UNL     1      44.913   5.094  11.704  0.00  0.00    +0.000 A 
ATOM      3  C   UNL     1      44.805   4.224  12.781  0.00  0.00    +0.000 A 
ATOM      4  N   UNL     1      45.702   4.154  13.785  0.00  0.00    +0.000 NA
ATOM      5  C   UNL     1      46.755   5.005  13.720  0.00  0.00    +0.000 A 
ATOM      6  C   UNL     1      46.985   5.930  12.698  0.00  0.00    +0.000 A 
ATOM      7  C   UNL     1      46.020   5.952  11.677  0.00  0.00    +0.000 A 
BRANCH   6   8
ATOM      8  C   UNL     1      48.154   6.831  12.692  0.00  0.00    +0.000 A 
ATOM      9  C   UNL     1      48.506   7.600  11.573  0.00  0.00    +0.000 A 
ATOM     10  C   UNL     1      49.614   8.446  11.608  0.00  0.00    +0.000 A 
ATOM     11  C   UNL     1      50.352   8.515  12.775  0.00  0.00    +0.000 A 
ATOM     12  N   UNL     1      50.064   7.801  13.879  0.00  0.00    +0.000 NA
ATOM     13  C   UNL     1      48.985   6.981  13.807  0.00  0.00    +0.000 A 
ENDBRANCH   6   8
ENDBRANCH   1   2
BRANCH   1  14
ATOM     14  O   UNL     1      43.540   3.858  10.139  0.00  0.00    +0.000 OA
BRANCH  14  18
ATOM     15  C   UNL     1      46.440   2.598   7.503  0.00  0.00    +0.000 A 
ATOM     16  C   UNL     1      45.894   1.692   8.416  0.00  0.00    +0.000 A 
ATOM     17  C   UNL     1      44.916   2.131   9.307  0.00  0.00    +0.000 A 
ATOM     18  C   UNL     1      44.515   3.457   9.249  0.00  0.00    +0.000 A 
ATOM     19  N   UNL     1      45.028   4.355   8.382  0.00  0.00    +0.000 NA
ATOM     20  C   UNL     1      45.987   3.908   7.535  0.00  0.00    +0.000 A 
BRANCH  15  22
ATOM     21  N   UNL     1      47.546   2.980   5.373  0.00  0.00    +0.000 N 
ATOM     22  C   UNL     1      47.486   2.244   6.523  0.00  0.00    +0.000 C 
ATOM     23  O   UNL     1      48.295   1.356   6.749  0.00  0.00    +0.000 OA
ATOM     24  H   UNL     1      48.338   2.795   4.769  0.00  0.00    +0.000 HD
ATOM     25  H   UNL     1      47.075   3.866   5.265  0.00  0.00    +0.000 HD
ENDBRANCH  15  22
ENDBRANCH  14  18
ENDBRANCH   1  14
TORSDOF 5
ENDMDL
MODEL 2
REMARK VINA RESULT:    -8.103      1.791      2.753
REMARK INTER + INTRA:         -11.238
REMARK INTER:                 -10.634
REMARK INTRA:                  -0.604
REMARK UNBOUND:                -0.766
REMARK  Name = 
REMARK  5 active torsions:
REMARK  status: ('A' for Active; 'I' for Inactive)
REMARK    1  A    between atoms: C_2  and  C_4
REMARK    2  A    between atoms: C_7  and  O_8
REMARK    3  A    between atoms: O_8  and  C_9
REMARK    4  A    between atoms: C_9  and  C_10
REMARK    5  A    between atoms: C_14  and  C_15
REMARK                            x       y       z     vdW  Elec       q    Type
REMARK                         _______ _______ _______ _____ _____    ______ ____
ROOT
ATOM      1  C   UNL     1      43.896   4.077  11.238  0.00  0.00    +0.000 C 
ENDROOT
BRANCH   1   2
ATOM      2  C   UNL     1      44.847   5.010  11.939  0.00  0.00    +0.000 A 
ATOM      3  C   UNL     1      45.089   6.274  11.416  0.00  0.00    +0.000 A 
ATOM      4  N   UNL     1      45.979   7.146  11.931  0.00  0.00    +0.000 NA
ATOM      5  C   UNL     1      46.676   6.731  13.017  0.00  0.00    +0.000 A 
ATOM      6  C   UNL     1      46.536   5.489  13.643  0.00  0.00    +0.000 A 
ATOM      7  C   UNL     1      45.589   4.628  13.065  0.00  0.00    +0.000 A 
BRANCH   6   8
ATOM      8  C   UNL     1      47.332   5.102  14.824  0.00  0.00    +0.000 A 
ATOM      9  C   UNL     1      47.155   3.875  15.481  0.00  0.00    +0.000 A 
ATOM     10  C   UNL     1      47.933   3.541  16.589  0.00  0.00    +0.000 A 
ATOM     11  C   UNL     1      48.888   4.443  17.019  0.00  0.00    +0.000 A 
ATOM     12  N   UNL     1      49.102   5.634  16.430  0.00  0.00    +0.000 NA
ATOM     13  C   UNL     1      48.322   5.931  15.360  0.00  0.00    +0.000 A 
ENDBRANCH   6   8
ENDBRANCH   1   2
BRANCH   1  14
ATOM     14  O   UNL     1      43.747   4.441   9.859  0.00  0.00    +0.000 OA
BRANCH  14  18
ATOM     15  C   UNL     1      46.622   2.655   7.515  0.00  0.00    +0.000 A 
ATOM     16  C   UNL     1      45.827   1.870   8.354  0.00  0.00    +0.000 A 
ATOM     17  C   UNL     1      44.861   2.486   9.147  0.00  0.00    +0.000 A 
ATOM     18  C   UNL     1      44.718   3.863   9.068  0.00  0.00    +0.000 A 
ATOM     19  N   UNL     1      45.475   4.647   8.270  0.00  0.00    +0.000 NA
ATOM     20  C   UNL     1      46.417   4.027   7.520  0.00  0.00    +0.000 A 
BRANCH  15  22
ATOM     21  N   UNL     1      47.979   2.806   5.504  0.00  0.00    +0.000 N 
ATOM     22  C   UNL     1      47.680   2.110   6.642  0.00  0.00    +0.000 C 
ATOM     23  O   UNL     1      48.296   1.099   6.945  0.00  0.00    +0.000 OA
ATOM     24  H   UNL     1      48.781   2.477   4.981  0.00  0.00    +0.000 HD
ATOM     25  H   UNL     1      47.682   3.759   5.352  0.00  0.00    +0.000 HD
ENDBRANCH  15  22
ENDBRANCH  14  18
ENDBRANCH   1  14
TORSDOF 5
ENDMDL
MODEL 3
REMARK VINA RESULT:    -7.911      2.722      3.253
REMARK INTER + INTRA:         -10.990
REMARK INTER:                 -10.263
REMARK INTRA:                  -0.727
REMARK UNBOUND:                -0.766
REMARK  Name = 
REMARK  5 active torsions:
REMARK  status: ('A' for Active; 'I' for Inactive)
REMARK    1  A    between atoms: C_2  and  C_4
REMARK    2  A    between atoms: C_7  and  O_8
REMARK    3  A    between atoms: O_8  and  C_9
REMARK    4  A    between atoms: C_9  and  C_10
REMARK    5  A    between atoms: C_14  and  C_15
REMARK                            x       y       z     vdW  Elec       q    Type
REMARK                         _______ _______ _______ _____ _____    ______ ____
ROOT
ATOM      1  C   UNL     1      44.073   3.901  11.586  0.00  0.00    +0.000 C 
ENDROOT
BRANCH   1   2
ATOM      2  C   UNL     1      44.823   5.153  11.955  0.00  0.00    +0.000 A 
ATOM      3  C   UNL     1      45.927   5.077  12.795  0.00  0.00    +0.000 A 
ATOM      4  N   UNL     1      46.611   6.150  13.239  0.00  0.00    +0.000 NA
ATOM      5  C   UNL     1      46.164   7.365  12.838  0.00  0.00    +0.000 A 
ATOM      6  C   UNL     1      45.069   7.586  11.998  0.00  0.00    +0.000 A 
ATOM      7  C   UNL     1      44.400   6.430  11.563  0.00  0.00    +0.000 A 
BRANCH   6   8
ATOM      8  C   UNL     1      44.634   8.940  11.603  0.00  0.00    +0.000 A 
ATOM      9  C   UNL     1      43.602   9.159  10.678  0.00  0.00    +0.000 A 
ATOM     10  C   UNL     1      43.214  10.454  10.336  0.00  0.00    +0.000 A 
ATOM     11  C   UNL     1      43.865  11.516  10.935  0.00  0.00    +0.000 A 
ATOM     12  N   UNL     1      44.862  11.368  11.827  0.00  0.00    +0.000 NA
ATOM     13  C   UNL     1      45.220  10.095  12.131  0.00  0.00    +0.000 A 
ENDBRANCH   6   8
ENDBRANCH   1   2
BRANCH   1  14
ATOM     14  O   UNL     1      43.599   3.969  10.234  0.00  0.00    +0.000 OA
BRANCH  14  18
ATOM     15  C   UNL     1      46.439   2.658   7.558  0.00  0.00    +0.000 A 
ATOM     16  C   UNL     1      45.801   1.740   8.396  0.00  0.00    +0.000 A 
ATOM     17  C   UNL     1      44.845   2.195   9.301  0.00  0.00    +0.000 A 
ATOM     18  C   UNL     1      44.556   3.551   9.332  0.00  0.00    +0.000 A 
ATOM     19  N   UNL     1      45.160   4.462   8.539  0.00  0.00    +0.000 NA
ATOM     20  C   UNL     1      46.096   3.996   7.677  0.00  0.00    +0.000 A 
BRANCH  15  22
ATOM     21  N   UNL     1      47.489   2.972   5.388  0.00  0.00    +0.000 N 
ATOM     22  C   UNL     1      47.472   2.288   6.571  0.00  0.00    +0.000 C 
ATOM     23  O   UNL     1      48.309   1.430   6.817  0.00  0.00    +0.000 OA
ATOM     24  H   UNL     1      48.272   2.781   4.776  0.00  0.00    +0.000 HD
ATOM     25  H   UNL     1      46.993   3.842   5.253  0.00  0.00    +0.000 HD
ENDBRANCH  15  22
ENDBRANCH  14  18
ENDBRANCH   1  14
TORSDOF 5
ENDMDL
MODEL 4
REMARK VINA RESULT:    -7.797      2.572      6.611
REMARK INTER + INTRA:         -10.842
REMARK INTER:                 -10.111
REMARK INTRA:                  -0.731
REMARK UNBOUND:                -0.766
REMARK  Name = 
REMARK  5 active torsions:
REMARK  status: ('A' for Active; 'I' for Inactive)
REMARK    1  A    between atoms: C_2  and  C_4
REMARK    2  A    between atoms: C_7  and  O_8
REMARK    3  A    between atoms: O_8  and  C_9
REMARK    4  A    between atoms: C_9  and  C_10
REMARK    5  A    between atoms: C_14  and  C_15
REMARK                            x       y       z     vdW  Elec       q    Type
REMARK                         _______ _______ _______ _____ _____    ______ ____
ROOT
ATOM      1  C   UNL     1      43.721   6.174  11.229  0.00  0.00    +0.000 C 
ENDROOT
BRANCH   1   2
ATOM      2  C   UNL     1      43.869   4.762  10.728  0.00  0.00    +0.000 A 
ATOM      3  C   UNL     1      43.230   3.722  11.390  0.00  0.00    +0.000 A 
ATOM      4  N   UNL     1      43.366   2.422  11.061  0.00  0.00    +0.000 NA
ATOM      5  C   UNL     1      44.195   2.142  10.026  0.00  0.00    +0.000 A 
ATOM      6  C   UNL     1      44.900   3.086   9.275  0.00  0.00    +0.000 A 
ATOM      7  C   UNL     1      44.712   4.424   9.661  0.00  0.00    +0.000 A 
BRANCH   6   8
ATOM      8  C   UNL     1      45.790   2.709   8.160  0.00  0.00    +0.000 A 
ATOM      9  C   UNL     1      46.103   3.592   7.115  0.00  0.00    +0.000 A 
ATOM     10  C   UNL     1      46.955   3.201   6.082  0.00  0.00    +0.000 A 
ATOM     11  C   UNL     1      47.489   1.927   6.117  0.00  0.00    +0.000 A 
ATOM     12  N   UNL     1      47.224   1.037   7.091  0.00  0.00    +0.000 NA
ATOM     13  C   UNL     1      46.385   1.446   8.076  0.00  0.00    +0.000 A 
ENDBRANCH   6   8
ENDBRANCH   1   2
BRANCH   1  14
ATOM     14  O   UNL     1      43.989   6.248  12.636  0.00  0.00    +0.000 OA
BRANCH  14  18
ATOM     15  C   UNL     1      47.980   6.909  13.402  0.00  0.00    +0.000 A 
ATOM     16  C   UNL     1      47.467   5.612  13.475  0.00  0.00    +0.000 A 
ATOM     17  C   UNL     1      46.114   5.400  13.218  0.00  0.00    +0.000 A 
ATOM     18  C   UNL     1      45.323   6.492  12.892  0.00  0.00    +0.000 A 
ATOM     19  N   UNL     1      45.791   7.757  12.820  0.00  0.00    +0.000 NA
ATOM     20  C   UNL     1      47.106   7.939  13.087  0.00  0.00    +0.000 A 
BRANCH  15  22
ATOM     21  N   UNL     1      50.226   7.353  12.586  0.00  0.00    +0.000 N 
ATOM     22  C   UNL     1      49.393   7.248  13.664  0.00  0.00    +0.000 C 
ATOM     23  O   UNL     1      49.794   7.467  14.798  0.00  0.00    +0.000 OA
ATOM     24  H   UNL     1      51.159   7.696  12.779  0.00  0.00    +0.000 HD
ATOM     25  H   UNL     1      49.886   7.434  11.638  0.00  0.00    +0.000 HD
ENDBRANCH  15  22
ENDBRANCH  14  18
ENDBRANCH   1  14
TORSDOF 5
ENDMDL
MODEL 5
REMARK VINA RESULT:    -7.479      1.705      2.266
REMARK INTER + INTRA:         -10.432
REMARK INTER:                  -9.718
REMARK INTRA:                  -0.714
REMARK UNBOUND:                -0.766
REMARK  Name = 
REMARK  5 active torsions:
REMARK  status: ('A' for Active; 'I' for Inactive)
REMARK    1  A    between atoms: C_2  and  C_4
REMARK    2  A    between atoms: C_7  and  O_8
REMARK    3  A    between atoms: O_8  and  C_9
REMARK    4  A    between atoms: C_9  and  C_10
REMARK    5  A    between atoms: C_14  and  C_15
REMARK                            x       y       z     vdW  Elec       q    Type
REMARK                         _______ _______ _______ _____ _____    ______ ____
ROOT
ATOM      1  C   UNL     1      44.267   4.388  11.620  0.00  0.00    +0.000 C 
ENDROOT
BRANCH   1   2
ATOM      2  C   UNL     1      44.739   5.793  11.886  0.00  0.00    +0.000 A 
ATOM      3  C   UNL     1      44.081   6.867  11.300  0.00  0.00    +0.000 A 
ATOM      4  N   UNL     1      44.477   8.150  11.418  0.00  0.00    +0.000 NA
ATOM      5  C   UNL     1      45.598   8.374  12.147  0.00  0.00    +0.000 A 
ATOM      6  C   UNL     1      46.356   7.391  12.788  0.00  0.00    +0.000 A 
ATOM      7  C   UNL     1      45.890   6.075  12.634  0.00  0.00    +0.000 A 
BRANCH   6   8
ATOM      8  C   UNL     1      47.571   7.707  13.565  0.00  0.00    +0.000 A 
ATOM      9  C   UNL     1      48.312   6.723  14.236  0.00  0.00    +0.000 A 
ATOM     10  C   UNL     1      49.459   7.060  14.954  0.00  0.00    +0.000 A 
ATOM     11  C   UNL     1      49.853   8.385  14.982  0.00  0.00    +0.000 A 
ATOM     12  N   UNL     1      49.181   9.372  14.360  0.00  0.00    +0.000 NA
ATOM     13  C   UNL     1      48.065   9.010  13.678  0.00  0.00    +0.000 A 
ENDBRANCH   6   8
ENDBRANCH   1   2
BRANCH   1  14
ATOM     14  O   UNL     1      43.745   4.268  10.290  0.00  0.00    +0.000 OA
BRANCH  14  18
ATOM     15  C   UNL     1      46.429   2.460   7.744  0.00  0.00    +0.000 A 
ATOM     16  C   UNL     1      46.258   3.846   7.699  0.00  0.00    +0.000 A 
ATOM     17  C   UNL     1      45.344   4.446   8.563  0.00  0.00    +0.000 A 
ATOM     18  C   UNL     1      44.637   3.641   9.443  0.00  0.00    +0.000 A 
ATOM     19  N   UNL     1      44.777   2.300   9.504  0.00  0.00    +0.000 NA
ATOM     20  C   UNL     1      45.661   1.738   8.646  0.00  0.00    +0.000 A 
BRANCH  15  22
ATOM     21  N   UNL     1      48.456   2.391   6.406  0.00  0.00    +0.000 N 
ATOM     22  C   UNL     1      47.360   1.720   6.870  0.00  0.00    +0.000 C 
ATOM     23  O   UNL     1      47.182   0.539   6.606  0.00  0.00    +0.000 OA
ATOM     24  H   UNL     1      49.137   1.834   5.904  0.00  0.00    +0.000 HD
ATOM     25  H   UNL     1      48.770   3.266   6.801  0.00  0.00    +0.000 HD
ENDBRANCH  15  22
ENDBRANCH  14  18
ENDBRANCH   1  14
TORSDOF 5
ENDMDL
MODEL 6
REMARK VINA RESULT:    -7.437      2.504      6.990
REMARK INTER + INTRA:         -10.377
REMARK INTER:                  -9.912
REMARK INTRA:                  -0.466
REMARK UNBOUND:                -0.766
REMARK  Name = 
REMARK  5 active torsions:
REMARK  status: ('A' for Active; 'I' for Inactive)
REMARK    1  A    between atoms: C_2  and  C_4
REMARK    2  A    between atoms: C_7  and  O_8
REMARK    3  A    between atoms: O_8  and  C_9
REMARK    4  A    between atoms: C_9  and  C_10
REMARK    5  A    between atoms: C_14  and  C_15
REMARK                            x       y       z     vdW  Elec       q    Type
REMARK                         _______ _______ _______ _____ _____    ______ ____
ROOT
ATOM      1  C   UNL     1      44.046   6.142  11.389  0.00  0.00    +0.000 C 
ENDROOT
BRANCH   1   2
ATOM      2  C   UNL     1      44.085   4.753  10.811  0.00  0.00    +0.000 A 
ATOM      3  C   UNL     1      43.365   3.731  11.415  0.00  0.00    +0.000 A 
ATOM      4  N   UNL     1      43.400   2.444  11.015  0.00  0.00    +0.000 NA
ATOM      5  C   UNL     1      44.209   2.157   9.965  0.00  0.00    +0.000 A 
ATOM      6  C   UNL     1      44.988   3.084   9.267  0.00  0.00    +0.000 A 
ATOM      7  C   UNL     1      44.903   4.408   9.727  0.00  0.00    +0.000 A 
BRANCH   6   8
ATOM      8  C   UNL     1      45.850   2.700   8.132  0.00  0.00    +0.000 A 
ATOM      9  C   UNL     1      46.179   3.594   7.102  0.00  0.00    +0.000 A 
ATOM     10  C   UNL     1      47.003   3.196   6.050  0.00  0.00    +0.000 A 
ATOM     11  C   UNL     1      47.495   1.904   6.050  0.00  0.00    +0.000 A 
ATOM     12  N   UNL     1      47.212   1.003   7.010  0.00  0.00    +0.000 NA
ATOM     13  C   UNL     1      46.400   1.420   8.014  0.00  0.00    +0.000 A 
ENDBRANCH   6   8
ENDBRANCH   1   2
BRANCH   1  14
ATOM     14  O   UNL     1      45.213   6.885  11.013  0.00  0.00    +0.000 OA
BRANCH  14  18
ATOM     15  C   UNL     1      48.024   7.027  14.018  0.00  0.00    +0.000 A 
ATOM     16  C   UNL     1      47.801   8.155  13.226  0.00  0.00    +0.000 A 
ATOM     17  C   UNL     1      46.851   8.094  12.208  0.00  0.00    +0.000 A 
ATOM     18  C   UNL     1      46.153   6.910  12.024  0.00  0.00    +0.000 A 
ATOM     19  N   UNL     1      46.351   5.803  12.770  0.00  0.00    +0.000 NA
ATOM     20  C   UNL     1      47.290   5.882  13.744  0.00  0.00    +0.000 A 
BRANCH  15  22
ATOM     21  N   UNL     1      48.534   6.836  16.387  0.00  0.00    +0.000 N 
ATOM     22  C   UNL     1      49.012   6.976  15.114  0.00  0.00    +0.000 C 
ATOM     23  O   UNL     1      50.213   7.016  14.890  0.00  0.00    +0.000 OA
ATOM     24  H   UNL     1      49.230   6.690  17.108  0.00  0.00    +0.000 HD
ATOM     25  H   UNL     1      47.588   6.546  16.587  0.00  0.00    +0.000 HD
ENDBRANCH  15  22
ENDBRANCH  14  18
ENDBRANCH   1  14
TORSDOF 5
ENDMDL
MODEL 7
REMARK VINA RESULT:    -7.208      2.856      7.299
REMARK INTER + INTRA:         -10.080
REMARK INTER:                  -9.583
REMARK INTRA:                  -0.498
REMARK UNBOUND:                -0.766
REMARK  Name = 
REMARK  5 active torsions:
REMARK  status: ('A' for Active; 'I' for Inactive)
REMARK    1  A    between atoms: C_2  and  C_4
REMARK    2  A    between atoms: C_7  and  O_8
REMARK    3  A    between atoms: O_8  and  C_9
REMARK    4  A    between atoms: C_9  and  C_10
REMARK    5  A    between atoms: C_14  and  C_15
REMARK                            x       y       z     vdW  Elec       q    Type
REMARK                         _______ _______ _______ _____ _____    ______ ____
ROOT
ATOM      1  C   UNL     1      45.071   6.018  11.922  0.00  0.00    +0.000 C 
ENDROOT
BRANCH   1   2
ATOM      2  C   UNL     1      44.724   4.780  11.140  0.00  0.00    +0.000 A 
ATOM      3  C   UNL     1      43.715   3.938  11.589  0.00  0.00    +0.000 A 
ATOM      4  N   UNL     1      43.387   2.771  10.998  0.00  0.00    +0.000 NA
ATOM      5  C   UNL     1      44.114   2.418   9.909  0.00  0.00    +0.000 A 
ATOM      6  C   UNL     1      45.154   3.166   9.352  0.00  0.00    +0.000 A 
ATOM      7  C   UNL     1      45.444   4.374  10.008  0.00  0.00    +0.000 A 
BRANCH   6   8
ATOM      8  C   UNL     1      45.906   2.718   8.164  0.00  0.00    +0.000 A 
ATOM      9  C   UNL     1      46.180   3.568   7.082  0.00  0.00    +0.000 A 
ATOM     10  C   UNL     1      46.901   3.109   5.980  0.00  0.00    +0.000 A 
ATOM     11  C   UNL     1      47.346   1.801   5.983  0.00  0.00    +0.000 A 
ATOM     12  N   UNL     1      47.113   0.939   6.991  0.00  0.00    +0.000 NA
ATOM     13  C   UNL     1      46.400   1.415   8.044  0.00  0.00    +0.000 A 
ENDBRANCH   6   8
ENDBRANCH   1   2
BRANCH   1  14
ATOM     14  O   UNL     1      46.490   6.225  11.948  0.00  0.00    +0.000 OA
BRANCH  14  18
ATOM     15  C   UNL     1      48.062   5.329  15.647  0.00  0.00    +0.000 A 
ATOM     16  C   UNL     1      47.157   4.449  15.048  0.00  0.00    +0.000 A 
ATOM     17  C   UNL     1      46.628   4.765  13.798  0.00  0.00    +0.000 A 
ATOM     18  C   UNL     1      47.027   5.945  13.189  0.00  0.00    +0.000 A 
ATOM     19  N   UNL     1      47.894   6.816  13.746  0.00  0.00    +0.000 NA
ATOM     20  C   UNL     1      48.385   6.494  14.967  0.00  0.00    +0.000 A 
BRANCH  15  22
ATOM     21  N   UNL     1      48.146   5.773  18.035  0.00  0.00    +0.000 N 
ATOM     22  C   UNL     1      48.676   5.100  16.970  0.00  0.00    +0.000 C 
ATOM     23  O   UNL     1      49.595   4.307  17.116  0.00  0.00    +0.000 OA
ATOM     24  H   UNL     1      48.507   5.516  18.945  0.00  0.00    +0.000 HD
ATOM     25  H   UNL     1      47.244   6.226  18.001  0.00  0.00    +0.000 HD
ENDBRANCH  15  22
ENDBRANCH  14  18
ENDBRANCH   1  14
TORSDOF 5
ENDMDL
MODEL 8
REMARK VINA RESULT:    -6.639      2.830      7.113
REMARK INTER + INTRA:          -9.346
REMARK INTER:                  -8.663
REMARK INTRA:                  -0.684
REMARK UNBOUND:                -0.766
REMARK  Name = 
REMARK  5 active torsions:
REMARK  status: ('A' for Active; 'I' for Inactive)
REMARK    1  A    between atoms: C_2  and  C_4
REMARK    2  A    between atoms: C_7  and  O_8
REMARK    3  A    between atoms: O_8  and  C_9
REMARK    4  A    between atoms: C_9  and  C_10
REMARK    5  A    between atoms: C_14  and  C_15
REMARK                            x       y       z     vdW  Elec       q    Type
REMARK                         _______ _______ _______ _____ _____    ______ ____
ROOT
ATOM      1  C   UNL     1      45.802   6.972  12.379  0.00  0.00    +0.000 C 
ENDROOT
BRANCH   1   2
ATOM      2  C   UNL     1      45.051   6.065  11.441  0.00  0.00    +0.000 A 
ATOM      3  C   UNL     1      43.666   5.985  11.516  0.00  0.00    +0.000 A 
ATOM      4  N   UNL     1      42.918   5.146  10.771  0.00  0.00    +0.000 NA
ATOM      5  C   UNL     1      43.587   4.333   9.917  0.00  0.00    +0.000 A 
ATOM      6  C   UNL     1      44.973   4.308   9.742  0.00  0.00    +0.000 A 
ATOM      7  C   UNL     1      45.697   5.208  10.540  0.00  0.00    +0.000 A 
BRANCH   6   8
ATOM      8  C   UNL     1      45.635   3.392   8.793  0.00  0.00    +0.000 A 
ATOM      9  C   UNL     1      46.327   3.851   7.662  0.00  0.00    +0.000 A 
ATOM     10  C   UNL     1      46.948   2.955   6.792  0.00  0.00    +0.000 A 
ATOM     11  C   UNL     1      46.872   1.604   7.076  0.00  0.00    +0.000 A 
ATOM     12  N   UNL     1      46.222   1.105   8.144  0.00  0.00    +0.000 NA
ATOM     13  C   UNL     1      45.622   2.004   8.964  0.00  0.00    +0.000 A 
ENDBRANCH   6   8
ENDBRANCH   1   2
BRANCH   1  14
ATOM     14  O   UNL     1      46.773   6.235  13.135  0.00  0.00    +0.000 OA
BRANCH  14  18
ATOM     15  C   UNL     1      50.472   8.031  12.934  0.00  0.00    +0.000 A 
ATOM     16  C   UNL     1      49.622   8.072  11.827  0.00  0.00    +0.000 A 
ATOM     17  C   UNL     1      48.374   7.457  11.904  0.00  0.00    +0.000 A 
ATOM     18  C   UNL     1      48.018   6.828  13.088  0.00  0.00    +0.000 A 
ATOM     19  N   UNL     1      48.821   6.767  14.171  0.00  0.00    +0.000 NA
ATOM     20  C   UNL     1      50.035   7.360  14.067  0.00  0.00    +0.000 A 
BRANCH  15  22
ATOM     21  N   UNL     1      52.698   8.182  13.898  0.00  0.00    +0.000 N 
ATOM     22  C   UNL     1      51.817   8.639  12.959  0.00  0.00    +0.000 C 
ATOM     23  O   UNL     1      52.145   9.490  12.144  0.00  0.00    +0.000 OA
ATOM     24  H   UNL     1      53.646   8.531  13.823  0.00  0.00    +0.000 HD
ATOM     25  H   UNL     1      52.557   7.321  14.407  0.00  0.00    +0.000 HD
ENDBRANCH  15  22
ENDBRANCH  14  18
ENDBRANCH   1  14
TORSDOF 5
ENDMDL
MODEL 9
REMARK VINA RESULT:    -6.422      4.652      8.131
REMARK INTER + INTRA:          -9.065
REMARK INTER:                  -8.347
REMARK INTRA:                  -0.718
REMARK UNBOUND:                -0.766
REMARK  Name = 
REMARK  5 active torsions:
REMARK  status: ('A' for Active; 'I' for Inactive)
REMARK    1  A    between atoms: C_2  and  C_4
REMARK    2  A    between atoms: C_7  and  O_8
REMARK    3  A    between atoms: O_8  and  C_9
REMARK    4  A    between atoms: C_9  and  C_10
REMARK    5  A    between atoms: C_14  and  C_15
REMARK                            x       y       z     vdW  Elec       q    Type
REMARK                         _______ _______ _______ _____ _____    ______ ____
ROOT
ATOM      1  C   UNL     1      48.851   6.556  15.818  0.00  0.00    +0.000 C 
ENDROOT
BRANCH   1   2
ATOM      2  C   UNL     1      48.353   6.600  14.398  0.00  0.00    +0.000 A 
ATOM      3  C   UNL     1      48.953   7.452  13.479  0.00  0.00    +0.000 A 
ATOM      4  N   UNL     1      48.526   7.614  12.211  0.00  0.00    +0.000 NA
ATOM      5  C   UNL     1      47.435   6.900  11.842  0.00  0.00    +0.000 A 
ATOM      6  C   UNL     1      46.735   6.010  12.661  0.00  0.00    +0.000 A 
ATOM      7  C   UNL     1      47.230   5.879  13.969  0.00  0.00    +0.000 A 
BRANCH   6   8
ATOM      8  C   UNL     1      45.549   5.266  12.193  0.00  0.00    +0.000 A 
ATOM      9  C   UNL     1      44.689   4.592  13.072  0.00  0.00    +0.000 A 
ATOM     10  C   UNL     1      43.573   3.906  12.592  0.00  0.00    +0.000 A 
ATOM     11  C   UNL     1      43.332   3.913  11.231  0.00  0.00    +0.000 A 
ATOM     12  N   UNL     1      44.122   4.541  10.340  0.00  0.00    +0.000 NA
ATOM     13  C   UNL     1      45.203   5.191  10.840  0.00  0.00    +0.000 A 
ENDBRANCH   6   8
ENDBRANCH   1   2
BRANCH   1  14
ATOM     14  O   UNL     1      48.260   5.464  16.534  0.00  0.00    +0.000 OA
BRANCH  14  18
ATOM     15  C   UNL     1      50.968   2.478  17.373  0.00  0.00    +0.000 A 
ATOM     16  C   UNL     1      49.656   2.145  17.027  0.00  0.00    +0.000 A 
ATOM     17  C   UNL     1      48.746   3.164  16.749  0.00  0.00    +0.000 A 
ATOM     18  C   UNL     1      49.182   4.479  16.822  0.00  0.00    +0.000 A 
ATOM     19  N   UNL     1      50.441   4.830  17.160  0.00  0.00    +0.000 NA
ATOM     20  C   UNL     1      51.303   3.822  17.438  0.00  0.00    +0.000 A 
BRANCH  15  22
ATOM     21  N   UNL     1      51.593   0.249  18.113  0.00  0.00    +0.000 N 
ATOM     22  C   UNL     1      52.008   1.483  17.696  0.00  0.00    +0.000 C 
ATOM     23  O   UNL     1      53.196   1.736  17.557  0.00  0.00    +0.000 OA
ATOM     24  H   UNL     1      52.317  -0.450  18.219  0.00  0.00    +0.000 HD
ATOM     25  H   UNL     1      50.644  -0.077  17.996  0.00  0.00    +0.000 HD
ENDBRANCH  15  22
ENDBRANCH  14  18
ENDBRANCH   1  14
TORSDOF 5
ENDMDL
