MODEL 1
REMARK VINA RESULT:    -7.247      0.000      0.000
REMARK INTER + INTRA:          -9.635
REMARK INTER:                  -8.942
REMARK INTRA:                  -0.693
REMARK UNBOUND:                -0.693
REMARK  Name = 
REMARK  4 active torsions:
REMARK  status: ('A' for Active; 'I' for Inactive)
REMARK    1  A    between atoms: C_2  and  C_3
REMARK    2  A    between atoms: C_6  and  C_7
REMARK    3  A    between atoms: C_7  and  N_8
REMARK    4  A    between atoms: C_13  and  C_14
REMARK                            x       y       z     vdW  Elec       q    Type
REMARK                         _______ _______ _______ _____ _____    ______ ____
ROOT
ATOM      1  N   UNL     1      45.150   5.912  11.066  0.00  0.00    +0.000 N 
ATOM      2  C   UNL     1      46.245   6.016  11.926  0.00  0.00    +0.000 A 
ATOM      3  C   UNL     1      46.378   5.248  13.073  0.00  0.00    +0.000 A 
ATOM      4  C   UNL     1      47.407   5.533  13.963  0.00  0.00    +0.000 A 
ATOM      5  C   UNL     1      48.298   6.556  13.664  0.00  0.00    +0.000 A 
ATOM      6  C   UNL     1      48.150   7.251  12.469  0.00  0.00    +0.000 A 
ATOM      7  N   UNL     1      47.121   6.995  11.622  0.00  0.00    +0.000 NA
ATOM      8  H   UNL     1      45.333   6.554  10.295  0.00  0.00    +0.000 HD
ENDROOT
BRANCH   6   9
ATOM      9  C   UNL     1      49.093   8.292  12.031  0.00  0.00    +0.000 A 
ATOM     10  C   UNL     1      48.793   9.654  12.152  0.00  0.00    +0.000 A 
ATOM     11  N   UNL     1      49.608  10.673  11.764  0.00  0.00    +0.000 NA
ATOM     12  C   UNL     1      50.788  10.320  11.211  0.00  0.00    +0.000 A 
ATOM     13  C   UNL     1      51.180   9.007  11.036  0.00  0.00    +0.000 A 
ATOM     14  F   UNL     1      52.359   8.711  10.474  0.00  0.00    +0.000 F 
ATOM     15  C   UNL     1      50.331   7.987  11.446  0.00  0.00    +0.000 A 
ENDBRANCH   6   9
BRANCH   1  16
ATOM     16  C   UNL     1      44.534   4.635  10.654  0.00  0.00    +0.000 C 
ATOM     17  C   UNL     1      43.648   3.792  11.552  0.00  0.00    +0.000 C 
ATOM     18  C   UNL     1      43.011   4.693  10.549  0.00  0.00    +0.000 C 
BRANCH  16  22
ATOM     19  C   UNL     1      46.656   2.712   7.439  0.00  0.00    +0.000 A 
ATOM     20  C   UNL     1      46.027   1.920   8.396  0.00  0.00    +0.000 A 
ATOM     21  C   UNL     1      45.335   2.536   9.441  0.00  0.00    +0.000 A 
ATOM     22  C   UNL     1      45.278   3.930   9.514  0.00  0.00    +0.000 A 
ATOM     23  N   UNL     1      45.902   4.701   8.581  0.00  0.00    +0.000 NA
ATOM     24  C   UNL     1      46.564   4.086   7.574  0.00  0.00    +0.000 A 
BRANCH  19  26
ATOM     25  N   UNL     1      47.961   1.672   5.463  0.00  0.00    +0.000 NA
ATOM     26  C   UNL     1      47.373   2.139   6.349  0.00  0.00    +0.000 C 
ENDBRANCH  19  26
ENDBRANCH  16  22
ENDBRANCH   1  16
TORSDOF 4
ENDMDL
MODEL 2
REMARK VINA RESULT:    -6.750      3.613      5.122
REMARK INTER + INTRA:          -9.022
REMARK INTER:                  -9.290
REMARK INTRA:                   0.269
REMARK UNBOUND:                -0.693
REMARK  Name = 
REMARK  4 active torsions:
REMARK  status: ('A' for Active; 'I' for Inactive)
REMARK    1  A    between atoms: C_2  and  C_3
REMARK    2  A    between atoms: C_6  and  C_7
REMARK    3  A    between atoms: C_7  and  N_8
REMARK    4  A    between atoms: C_13  and  C_14
REMARK                            x       y       z     vdW  Elec       q    Type
REMARK                         _______ _______ _______ _____ _____    ______ ____
ROOT
ATOM      1  N   UNL     1      45.834   3.086  12.730  0.00  0.00    +0.000 N 
ATOM      2  C   UNL     1      46.474   4.163  13.346  0.00  0.00    +0.000 A 
ATOM      3  C   UNL     1      46.822   5.322  12.669  0.00  0.00    +0.000 A 
ATOM      4  C   UNL     1      47.607   6.272  13.311  0.00  0.00    +0.000 A 
ATOM      5  C   UNL     1      47.995   6.054  14.627  0.00  0.00    +0.000 A 
ATOM      6  C   UNL     1      47.565   4.901  15.274  0.00  0.00    +0.000 A 
ATOM      7  N   UNL     1      46.830   3.958  14.632  0.00  0.00    +0.000 NA
ATOM      8  H   UNL     1      45.664   2.399  13.464  0.00  0.00    +0.000 HD
ENDROOT
BRANCH   6   9
ATOM      9  C   UNL     1      47.857   4.627  16.690  0.00  0.00    +0.000 A 
ATOM     10  C   UNL     1      48.028   3.322  17.166  0.00  0.00    +0.000 A 
ATOM     11  N   UNL     1      48.293   2.988  18.458  0.00  0.00    +0.000 NA
ATOM     12  C   UNL     1      48.379   4.011  19.337  0.00  0.00    +0.000 A 
ATOM     13  C   UNL     1      48.216   5.334  18.976  0.00  0.00    +0.000 A 
ATOM     14  F   UNL     1      48.304   6.310  19.889  0.00  0.00    +0.000 F 
ATOM     15  C   UNL     1      47.953   5.647  17.649  0.00  0.00    +0.000 A 
ENDBRANCH   6   9
BRANCH   1  16
ATOM     16  C   UNL     1      44.727   3.220  11.763  0.00  0.00    +0.000 C 
ATOM     17  C   UNL     1      43.292   2.822  12.056  0.00  0.00    +0.000 C 
ATOM     18  C   UNL     1      43.681   4.257  12.166  0.00  0.00    +0.000 C 
BRANCH  16  22
ATOM     19  C   UNL     1      45.992   3.188   7.647  0.00  0.00    +0.000 A 
ATOM     20  C   UNL     1      45.743   4.411   8.263  0.00  0.00    +0.000 A 
ATOM     21  C   UNL     1      45.334   4.431   9.598  0.00  0.00    +0.000 A 
ATOM     22  C   UNL     1      45.183   3.232  10.299  0.00  0.00    +0.000 A 
ATOM     23  N   UNL     1      45.418   2.037   9.691  0.00  0.00    +0.000 NA
ATOM     24  C   UNL     1      45.817   2.038   8.397  0.00  0.00    +0.000 A 
BRANCH  19  26
ATOM     25  N   UNL     1      46.763   3.041   5.183  0.00  0.00    +0.000 NA
ATOM     26  C   UNL     1      46.414   3.107   6.289  0.00  0.00    +0.000 C 
ENDBRANCH  19  26
ENDBRANCH  16  22
ENDBRANCH   1  16
TORSDOF 4
ENDMDL
MODEL 3
REMARK VINA RESULT:    -6.547      4.524      8.203
REMARK INTER + INTRA:          -8.772
REMARK INTER:                  -8.181
REMARK INTRA:                  -0.591
REMARK UNBOUND:                -0.693
REMARK  Name = 
REMARK  4 active torsions:
REMARK  status: ('A' for Active; 'I' for Inactive)
REMARK    1  A    between atoms: C_2  and  C_3
REMARK    2  A    between atoms: C_6  and  C_7
REMARK    3  A    between atoms: C_7  and  N_8
REMARK    4  A    between atoms: C_13  and  C_14
REMARK                            x       y       z     vdW  Elec       q    Type
REMARK                         _______ _______ _______ _____ _____    ______ ____
ROOT
ATOM      1  N   UNL     1      48.055   6.552  15.922  0.00  0.00    +0.000 N 
ATOM      2  C   UNL     1      48.014   6.579  14.527  0.00  0.00    +0.000 A 
ATOM      3  C   UNL     1      48.857   7.371  13.762  0.00  0.00    +0.000 A 
ATOM      4  C   UNL     1      48.636   7.471  12.394  0.00  0.00    +0.000 A 
ATOM      5  C   UNL     1      47.599   6.747  11.820  0.00  0.00    +0.000 A 
ATOM      6  C   UNL     1      46.824   5.922  12.628  0.00  0.00    +0.000 A 
ATOM      7  N   UNL     1      47.019   5.857  13.970  0.00  0.00    +0.000 NA
ATOM      8  H   UNL     1      47.364   5.860  16.214  0.00  0.00    +0.000 HD
ENDROOT
BRANCH   6   9
ATOM      9  C   UNL     1      45.760   5.057  12.095  0.00  0.00    +0.000 A 
ATOM     10  C   UNL     1      45.212   4.015  12.852  0.00  0.00    +0.000 A 
ATOM     11  N   UNL     1      44.233   3.170  12.427  0.00  0.00    +0.000 NA
ATOM     12  C   UNL     1      43.778   3.362  11.170  0.00  0.00    +0.000 A 
ATOM     13  C   UNL     1      44.255   4.354  10.336  0.00  0.00    +0.000 A 
ATOM     14  F   UNL     1      43.775   4.497   9.094  0.00  0.00    +0.000 F 
ATOM     15  C   UNL     1      45.251   5.206  10.796  0.00  0.00    +0.000 A 
ENDBRANCH   6   9
BRANCH   1  16
ATOM     16  C   UNL     1      49.299   6.530  16.717  0.00  0.00    +0.000 C 
ATOM     17  C   UNL     1      50.276   7.689  16.794  0.00  0.00    +0.000 C 
ATOM     18  C   UNL     1      49.291   7.500  17.897  0.00  0.00    +0.000 C 
BRANCH  16  22
ATOM     19  C   UNL     1      50.867   2.596  17.493  0.00  0.00    +0.000 A 
ATOM     20  C   UNL     1      49.492   2.752  17.336  0.00  0.00    +0.000 A 
ATOM     21  C   UNL     1      48.975   4.024  17.082  0.00  0.00    +0.000 A 
ATOM     22  C   UNL     1      49.837   5.120  16.986  0.00  0.00    +0.000 A 
ATOM     23  N   UNL     1      51.179   4.965  17.149  0.00  0.00    +0.000 NA
ATOM     24  C   UNL     1      51.661   3.724  17.391  0.00  0.00    +0.000 A 
BRANCH  19  26
ATOM     25  N   UNL     1      51.929   0.285  17.960  0.00  0.00    +0.000 NA
ATOM     26  C   UNL     1      51.450   1.322  17.750  0.00  0.00    +0.000 C 
ENDBRANCH  19  26
ENDBRANCH  16  22
ENDBRANCH   1  16
TORSDOF 4
ENDMDL
MODEL 4
REMARK VINA RESULT:    -6.402      2.738      7.258
REMARK INTER + INTRA:          -8.592
REMARK INTER:                  -8.105
REMARK INTRA:                  -0.487
REMARK UNBOUND:                -0.693
REMARK  Name = 
REMARK  4 active torsions:
REMARK  status: ('A' for Active; 'I' for Inactive)
REMARK    1  A    between atoms: C_2  and  C_3
REMARK    2  A    between atoms: C_6  and  C_7
REMARK    3  A    between atoms: C_7  and  N_8
REMARK    4  A    between atoms: C_13  and  C_14
REMARK                            x       y       z     vdW  Elec       q    Type
REMARK                         _______ _______ _______ _____ _____    ______ ____
ROOT
ATOM      1  N   UNL     1      47.548   6.392  14.153  0.00  0.00    +0.000 N 
ATOM      2  C   UNL     1      46.658   6.744  13.137  0.00  0.00    +0.000 A 
ATOM      3  C   UNL     1      46.096   8.007  13.030  0.00  0.00    +0.000 A 
ATOM      4  C   UNL     1      45.090   8.225  12.096  0.00  0.00    +0.000 A 
ATOM      5  C   UNL     1      44.698   7.182  11.267  0.00  0.00    +0.000 A 
ATOM      6  C   UNL     1      45.340   5.953  11.379  0.00  0.00    +0.000 A 
ATOM      7  N   UNL     1      46.294   5.734  12.318  0.00  0.00    +0.000 NA
ATOM      8  H   UNL     1      47.830   5.430  13.963  0.00  0.00    +0.000 HD
ENDROOT
BRANCH   6   9
ATOM      9  C   UNL     1      45.048   4.818  10.489  0.00  0.00    +0.000 A 
ATOM     10  C   UNL     1      44.329   3.702  10.934  0.00  0.00    +0.000 A 
ATOM     11  N   UNL     1      44.026   2.613  10.175  0.00  0.00    +0.000 NA
ATOM     12  C   UNL     1      44.475   2.626   8.901  0.00  0.00    +0.000 A 
ATOM     13  C   UNL     1      45.201   3.671   8.365  0.00  0.00    +0.000 A 
ATOM     14  F   UNL     1      45.629   3.629   7.097  0.00  0.00    +0.000 F 
ATOM     15  C   UNL     1      45.491   4.772   9.159  0.00  0.00    +0.000 A 
ENDBRANCH   6   9
BRANCH   1  16
ATOM     16  C   UNL     1      48.644   7.256  14.634  0.00  0.00    +0.000 C 
ATOM     17  C   UNL     1      48.668   7.910  16.004  0.00  0.00    +0.000 C 
ATOM     18  C   UNL     1      49.440   6.652  15.790  0.00  0.00    +0.000 C 
BRANCH  16  22
ATOM     19  C   UNL     1      50.931   9.155  11.520  0.00  0.00    +0.000 A 
ATOM     20  C   UNL     1      50.509   7.841  11.336  0.00  0.00    +0.000 A 
ATOM     21  C   UNL     1      49.765   7.218  12.341  0.00  0.00    +0.000 A 
ATOM     22  C   UNL     1      49.451   7.915  13.510  0.00  0.00    +0.000 A 
ATOM     23  N   UNL     1      49.873   9.197  13.689  0.00  0.00    +0.000 NA
ATOM     24  C   UNL     1      50.590   9.784  12.704  0.00  0.00    +0.000 A 
BRANCH  19  26
ATOM     25  N   UNL     1      52.309  10.404   9.722  0.00  0.00    +0.000 NA
ATOM     26  C   UNL     1      51.689   9.841  10.529  0.00  0.00    +0.000 C 
ENDBRANCH  19  26
ENDBRANCH  16  22
ENDBRANCH   1  16
TORSDOF 4
ENDMDL
MODEL 5
REMARK VINA RESULT:    -6.060      3.993      8.136
REMARK INTER + INTRA:          -8.170
REMARK INTER:                  -7.403
REMARK INTRA:                  -0.767
REMARK UNBOUND:                -0.693
REMARK  Name = 
REMARK  4 active torsions:
REMARK  status: ('A' for Active; 'I' for Inactive)
REMARK    1  A    between atoms: C_2  and  C_3
REMARK    2  A    between atoms: C_6  and  C_7
REMARK    3  A    between atoms: C_7  and  N_8
REMARK    4  A    between atoms: C_13  and  C_14
REMARK                            x       y       z     vdW  Elec       q    Type
REMARK                         _______ _______ _______ _____ _____    ______ ____
ROOT
ATOM      1  N   UNL     1      47.485   8.783  15.104  0.00  0.00    +0.000 N 
ATOM      2  C   UNL     1      47.628   8.133  13.877  0.00  0.00    +0.000 A 
ATOM      3  C   UNL     1      48.734   8.301  13.058  0.00  0.00    +0.000 A 
ATOM      4  C   UNL     1      48.720   7.756  11.780  0.00  0.00    +0.000 A 
ATOM      5  C   UNL     1      47.614   7.025  11.367  0.00  0.00    +0.000 A 
ATOM      6  C   UNL     1      46.560   6.838  12.254  0.00  0.00    +0.000 A 
ATOM      7  N   UNL     1      46.561   7.405  13.487  0.00  0.00    +0.000 NA
ATOM      8  H   UNL     1      46.610   8.445  15.504  0.00  0.00    +0.000 HD
ENDROOT
BRANCH   6   9
ATOM      9  C   UNL     1      45.386   6.011  11.933  0.00  0.00    +0.000 A 
ATOM     10  C   UNL     1      44.404   5.726  12.889  0.00  0.00    +0.000 A 
ATOM     11  N   UNL     1      43.296   4.965  12.671  0.00  0.00    +0.000 NA
ATOM     12  C   UNL     1      43.161   4.443  11.433  0.00  0.00    +0.000 A 
ATOM     13  C   UNL     1      44.075   4.652  10.419  0.00  0.00    +0.000 A 
ATOM     14  F   UNL     1      43.898   4.105   9.210  0.00  0.00    +0.000 F 
ATOM     15  C   UNL     1      45.193   5.438  10.667  0.00  0.00    +0.000 A 
ENDBRANCH   6   9
BRANCH   1  16
ATOM     16  C   UNL     1      48.572   8.949  16.089  0.00  0.00    +0.000 C 
ATOM     17  C   UNL     1      49.359  10.233  16.276  0.00  0.00    +0.000 C 
ATOM     18  C   UNL     1      48.240   9.928  17.212  0.00  0.00    +0.000 C 
BRANCH  16  22
ATOM     19  C   UNL     1      50.515   5.279  17.230  0.00  0.00    +0.000 A 
ATOM     20  C   UNL     1      49.152   5.421  17.474  0.00  0.00    +0.000 A 
ATOM     21  C   UNL     1      48.513   6.607  17.105  0.00  0.00    +0.000 A 
ATOM     22  C   UNL     1      49.243   7.632  16.497  0.00  0.00    +0.000 A 
ATOM     23  N   UNL     1      50.577   7.493  16.268  0.00  0.00    +0.000 NA
ATOM     24  C   UNL     1      51.178   6.335  16.629  0.00  0.00    +0.000 A 
BRANCH  19  26
ATOM     25  N   UNL     1      51.793   3.124  17.871  0.00  0.00    +0.000 NA
ATOM     26  C   UNL     1      51.218   4.091  17.581  0.00  0.00    +0.000 C 
ENDBRANCH  19  26
ENDBRANCH  16  22
ENDBRANCH   1  16
TORSDOF 4
ENDMDL
MODEL 6
REMARK VINA RESULT:    -5.722      2.744      7.195
REMARK INTER + INTRA:          -7.753
REMARK INTER:                  -7.393
REMARK INTRA:                  -0.360
REMARK UNBOUND:                -0.693
REMARK  Name = 
REMARK  4 active torsions:
REMARK  status: ('A' for Active; 'I' for Inactive)
REMARK    1  A    between atoms: C_2  and  C_3
REMARK    2  A    between atoms: C_6  and  C_7
REMARK    3  A    between atoms: C_7  and  N_8
REMARK    4  A    between atoms: C_13  and  C_14
REMARK                            x       y       z     vdW  Elec       q    Type
REMARK                         _______ _______ _______ _____ _____    ______ ____
ROOT
ATOM      1  N   UNL     1      48.441   7.367  12.743  0.00  0.00    +0.000 N 
ATOM      2  C   UNL     1      47.136   7.415  12.247  0.00  0.00    +0.000 A 
ATOM      3  C   UNL     1      46.254   8.442  12.542  0.00  0.00    +0.000 A 
ATOM      4  C   UNL     1      44.925   8.327  12.151  0.00  0.00    +0.000 A 
ATOM      5  C   UNL     1      44.521   7.203  11.444  0.00  0.00    +0.000 A 
ATOM      6  C   UNL     1      45.465   6.232  11.124  0.00  0.00    +0.000 A 
ATOM      7  N   UNL     1      46.753   6.331  11.540  0.00  0.00    +0.000 NA
ATOM      8  H   UNL     1      48.869   6.536  12.336  0.00  0.00    +0.000 HD
ENDROOT
BRANCH   6   9
ATOM      9  C   UNL     1      45.146   5.050  10.308  0.00  0.00    +0.000 A 
ATOM     10  C   UNL     1      44.366   4.001  10.808  0.00  0.00    +0.000 A 
ATOM     11  N   UNL     1      44.035   2.875  10.119  0.00  0.00    +0.000 NA
ATOM     12  C   UNL     1      44.519   2.776   8.862  0.00  0.00    +0.000 A 
ATOM     13  C   UNL     1      45.306   3.747   8.276  0.00  0.00    +0.000 A 
ATOM     14  F   UNL     1      45.767   3.596   7.027  0.00  0.00    +0.000 F 
ATOM     15  C   UNL     1      45.624   4.890   8.999  0.00  0.00    +0.000 A 
ENDBRANCH   6   9
BRANCH   1  16
ATOM     16  C   UNL     1      49.343   8.533  12.821  0.00  0.00    +0.000 C 
ATOM     17  C   UNL     1      48.975   9.848  13.481  0.00  0.00    +0.000 C 
ATOM     18  C   UNL     1      49.798   8.864  14.241  0.00  0.00    +0.000 C 
BRANCH  16  22
ATOM     19  C   UNL     1      52.381   8.660   9.771  0.00  0.00    +0.000 A 
ATOM     20  C   UNL     1      51.861   7.425  10.150  0.00  0.00    +0.000 A 
ATOM     21  C   UNL     1      50.874   7.374  11.137  0.00  0.00    +0.000 A 
ATOM     22  C   UNL     1      50.419   8.555  11.728  0.00  0.00    +0.000 A 
ATOM     23  N   UNL     1      50.936   9.760  11.362  0.00  0.00    +0.000 NA
ATOM     24  C   UNL     1      51.888   9.789  10.401  0.00  0.00    +0.000 A 
BRANCH  19  26
ATOM     25  N   UNL     1      54.203   8.861   7.947  0.00  0.00    +0.000 NA
ATOM     26  C   UNL     1      53.385   8.772   8.768  0.00  0.00    +0.000 C 
ENDBRANCH  19  26
ENDBRANCH  16  22
ENDBRANCH   1  16
TORSDOF 4
ENDMDL
MODEL 7
REMARK VINA RESULT:    -5.708      4.775      7.079
REMARK INTER + INTRA:          -7.736
REMARK INTER:                  -7.054
REMARK INTRA:                  -0.681
REMARK UNBOUND:                -0.693
REMARK  Name = 
REMARK  4 active torsions:
REMARK  status: ('A' for Active; 'I' for Inactive)
REMARK    1  A    between atoms: C_2  and  C_3
REMARK    2  A    between atoms: C_6  and  C_7
REMARK    3  A    between atoms: C_7  and  N_8
REMARK    4  A    between atoms: C_13  and  C_14
REMARK                            x       y       z     vdW  Elec       q    Type
REMARK                         _______ _______ _______ _____ _____    ______ ____
ROOT
ATOM      1  N   UNL     1      49.325   7.138  14.246  0.00  0.00    +0.000 N 
ATOM      2  C   UNL     1      48.842   7.679  15.440  0.00  0.00    +0.000 A 
ATOM      3  C   UNL     1      48.274   8.941  15.521  0.00  0.00    +0.000 A 
ATOM      4  C   UNL     1      47.978   9.471  16.770  0.00  0.00    +0.000 A 
ATOM      5  C   UNL     1      48.224   8.710  17.906  0.00  0.00    +0.000 A 
ATOM      6  C   UNL     1      48.738   7.427  17.759  0.00  0.00    +0.000 A 
ATOM      7  N   UNL     1      49.062   6.927  16.539  0.00  0.00    +0.000 NA
ATOM      8  H   UNL     1      49.643   6.195  14.470  0.00  0.00    +0.000 HD
ENDROOT
BRANCH   6   9
ATOM      9  C   UNL     1      48.953   6.519  18.897  0.00  0.00    +0.000 A 
ATOM     10  C   UNL     1      49.628   6.935  20.051  0.00  0.00    +0.000 A 
ATOM     11  N   UNL     1      49.871   6.155  21.139  0.00  0.00    +0.000 NA
ATOM     12  C   UNL     1      49.429   4.880  21.074  0.00  0.00    +0.000 A 
ATOM     13  C   UNL     1      48.762   4.365  19.981  0.00  0.00    +0.000 A 
ATOM     14  F   UNL     1      48.351   3.090  19.965  0.00  0.00    +0.000 F 
ATOM     15  C   UNL     1      48.521   5.185  18.886  0.00  0.00    +0.000 A 
ENDBRANCH   6   9
BRANCH   1  16
ATOM     16  C   UNL     1      48.637   7.248  12.945  0.00  0.00    +0.000 C 
ATOM     17  C   UNL     1      48.643   8.499  12.087  0.00  0.00    +0.000 C 
ATOM     18  C   UNL     1      49.587   7.394  11.758  0.00  0.00    +0.000 C 
BRANCH  16  22
ATOM     19  C   UNL     1      45.378   4.465  12.532  0.00  0.00    +0.000 A 
ATOM     20  C   UNL     1      45.328   5.666  11.828  0.00  0.00    +0.000 A 
ATOM     21  C   UNL     1      46.382   6.573  11.955  0.00  0.00    +0.000 A 
ATOM     22  C   UNL     1      47.469   6.269  12.778  0.00  0.00    +0.000 A 
ATOM     23  N   UNL     1      47.510   5.098  13.471  0.00  0.00    +0.000 NA
ATOM     24  C   UNL     1      46.481   4.230  13.332  0.00  0.00    +0.000 A 
BRANCH  19  26
ATOM     25  N   UNL     1      43.484   2.711  12.362  0.00  0.00    +0.000 NA
ATOM     26  C   UNL     1      44.334   3.501  12.438  0.00  0.00    +0.000 C 
ENDBRANCH  19  26
ENDBRANCH  16  22
ENDBRANCH   1  16
TORSDOF 4
ENDMDL
MODEL 8
REMARK VINA RESULT:    -5.573      2.854      7.359
REMARK INTER + INTRA:          -7.569
REMARK INTER:                  -7.313
REMARK INTRA:                  -0.257
REMARK UNBOUND:                -0.693
REMARK  Name = 
REMARK  4 active torsions:
REMARK  status: ('A' for Active; 'I' for Inactive)
REMARK    1  A    between atoms: C_2  and  C_3
REMARK    2  A    between atoms: C_6  and  C_7
REMARK    3  A    between atoms: C_7  and  N_8
REMARK    4  A    between atoms: C_13  and  C_14
REMARK                            x       y       z     vdW  Elec       q    Type
REMARK                         _______ _______ _______ _____ _____    ______ ____
ROOT
ATOM      1  N   UNL     1      46.771   3.593  14.178  0.00  0.00    +0.000 N 
ATOM      2  C   UNL     1      45.856   4.096  13.252  0.00  0.00    +0.000 A 
ATOM      3  C   UNL     1      44.773   4.884  13.612  0.00  0.00    +0.000 A 
ATOM      4  C   UNL     1      43.816   5.199  12.655  0.00  0.00    +0.000 A 
ATOM      5  C   UNL     1      43.985   4.748  11.353  0.00  0.00    +0.000 A 
ATOM      6  C   UNL     1      45.123   4.013  11.036  0.00  0.00    +0.000 A 
ATOM      7  N   UNL     1      46.035   3.675  11.982  0.00  0.00    +0.000 NA
ATOM      8  H   UNL     1      47.476   3.092  13.637  0.00  0.00    +0.000 HD
ENDROOT
BRANCH   6   9
ATOM      9  C   UNL     1      45.427   3.565   9.668  0.00  0.00    +0.000 A 
ATOM     10  C   UNL     1      45.477   4.463   8.595  0.00  0.00    +0.000 A 
ATOM     11  N   UNL     1      45.743   4.125   7.304  0.00  0.00    +0.000 NA
ATOM     12  C   UNL     1      45.960   2.815   7.059  0.00  0.00    +0.000 A 
ATOM     13  C   UNL     1      45.925   1.845   8.041  0.00  0.00    +0.000 A 
ATOM     14  F   UNL     1      46.140   0.557   7.743  0.00  0.00    +0.000 F 
ATOM     15  C   UNL     1      45.656   2.218   9.352  0.00  0.00    +0.000 A 
ENDBRANCH   6   9
BRANCH   1  16
ATOM     16  C   UNL     1      47.319   4.366  15.310  0.00  0.00    +0.000 C 
ATOM     17  C   UNL     1      46.757   4.318  16.719  0.00  0.00    +0.000 C 
ATOM     18  C   UNL     1      47.960   3.499  16.393  0.00  0.00    +0.000 C 
BRANCH  16  22
ATOM     19  C   UNL     1      49.456   7.887  14.057  0.00  0.00    +0.000 A 
ATOM     20  C   UNL     1      49.213   7.698  15.415  0.00  0.00    +0.000 A 
ATOM     21  C   UNL     1      48.522   6.557  15.831  0.00  0.00    +0.000 A 
ATOM     22  C   UNL     1      48.087   5.623  14.887  0.00  0.00    +0.000 A 
ATOM     23  N   UNL     1      48.320   5.816  13.560  0.00  0.00    +0.000 NA
ATOM     24  C   UNL     1      48.994   6.925  13.177  0.00  0.00    +0.000 A 
BRANCH  19  26
ATOM     25  N   UNL     1      50.729   9.962  13.183  0.00  0.00    +0.000 NA
ATOM     26  C   UNL     1      50.159   9.029  13.577  0.00  0.00    +0.000 C 
ENDBRANCH  19  26
ENDBRANCH  16  22
ENDBRANCH   1  16
TORSDOF 4
ENDMDL
MODEL 9
REMARK VINA RESULT:    -5.386      5.490      9.790
REMARK INTER + INTRA:          -7.338
REMARK INTER:                  -6.487
REMARK INTRA:                  -0.852
REMARK UNBOUND:                -0.693
REMARK  Name = 
REMARK  4 active torsions:
REMARK  status: ('A' for Active; 'I' for Inactive)
REMARK    1  A    between atoms: C_2  and  C_3
REMARK    2  A    between atoms: C_6  and  C_7
REMARK    3  A    between atoms: C_7  and  N_8
REMARK    4  A    between atoms: C_13  and  C_14
REMARK                            x       y       z     vdW  Elec       q    Type
REMARK                         _______ _______ _______ _____ _____    ______ ____
ROOT
ATOM      1  N   UNL     1      50.026   6.240  17.388  0.00  0.00    +0.000 N 
ATOM      2  C   UNL     1      48.996   5.378  17.007  0.00  0.00    +0.000 A 
ATOM      3  C   UNL     1      48.586   4.303  17.780  0.00  0.00    +0.000 A 
ATOM      4  C   UNL     1      47.675   3.396  17.251  0.00  0.00    +0.000 A 
ATOM      5  C   UNL     1      47.170   3.609  15.975  0.00  0.00    +0.000 A 
ATOM      6  C   UNL     1      47.571   4.739  15.271  0.00  0.00    +0.000 A 
ATOM      7  N   UNL     1      48.490   5.601  15.775  0.00  0.00    +0.000 NA
ATOM      8  H   UNL     1      50.083   6.954  16.662  0.00  0.00    +0.000 HD
ENDROOT
BRANCH   6   9
ATOM      9  C   UNL     1      47.026   5.089  13.950  0.00  0.00    +0.000 A 
ATOM     10  C   UNL     1      47.528   6.165  13.209  0.00  0.00    +0.000 A 
ATOM     11  N   UNL     1      47.074   6.554  11.986  0.00  0.00    +0.000 NA
ATOM     12  C   UNL     1      46.048   5.840  11.473  0.00  0.00    +0.000 A 
ATOM     13  C   UNL     1      45.471   4.768  12.123  0.00  0.00    +0.000 A 
ATOM     14  F   UNL     1      44.451   4.098  11.573  0.00  0.00    +0.000 F 
ATOM     15  C   UNL     1      45.959   4.388  13.367  0.00  0.00    +0.000 A 
ENDBRANCH   6   9
BRANCH   1  16
ATOM     16  C   UNL     1      50.212   6.759  18.757  0.00  0.00    +0.000 C 
ATOM     17  C   UNL     1      51.020   6.051  19.829  0.00  0.00    +0.000 C 
ATOM     18  C   UNL     1      51.651   7.167  19.069  0.00  0.00    +0.000 C 
BRANCH  16  22
ATOM     19  C   UNL     1      47.103   9.481  19.964  0.00  0.00    +0.000 A 
ATOM     20  C   UNL     1      47.460   8.446  20.824  0.00  0.00    +0.000 A 
ATOM     21  C   UNL     1      48.468   7.559  20.442  0.00  0.00    +0.000 A 
ATOM     22  C   UNL     1      49.108   7.720  19.209  0.00  0.00    +0.000 A 
ATOM     23  N   UNL     1      48.750   8.728  18.368  0.00  0.00    +0.000 NA
ATOM     24  C   UNL     1      47.773   9.579  18.758  0.00  0.00    +0.000 A 
BRANCH  19  26
ATOM     25  N   UNL     1      45.254  11.183  20.577  0.00  0.00    +0.000 NA
ATOM     26  C   UNL     1      46.084  10.417  20.303  0.00  0.00    +0.000 C 
ENDBRANCH  19  26
ENDBRANCH  16  22
ENDBRANCH   1  16
TORSDOF 4
ENDMDL
