MODEL 1
REMARK VINA RESULT:    -7.986      0.000      0.000
REMARK INTER + INTRA:          -9.801
REMARK INTER:                  -9.387
REMARK INTRA:                  -0.414
REMARK UNBOUND:                -0.414
REMARK  Name = 
REMARK  3 active torsions:
REMARK  status: ('A' for Active; 'I' for Inactive)
REMARK    1  A    between atoms: C_2  and  C_4
REMARK    2  A    between atoms: N_8  and  C_9
REMARK    3  A    between atoms: C_9  and  C_10
REMARK                            x       y       z     vdW  Elec       q    Type
REMARK                         _______ _______ _______ _____ _____    ______ ____
ROOT
ATOM      1  C   UNL     1      46.628   4.705  13.686  0.00  0.00    +0.000 A 
ATOM      2  C   UNL     1      46.921   5.845  12.943  0.00  0.00    +0.000 A 
ATOM      3  C   UNL     1      46.263   6.045  11.730  0.00  0.00    +0.000 A 
ATOM      4  C   UNL     1      45.350   5.098  11.266  0.00  0.00    +0.000 A 
ATOM      5  N   UNL     1      44.816   5.293  10.001  0.00  0.00    +0.000 N 
ATOM      6  N   UNL     1      45.069   3.988  11.975  0.00  0.00    +0.000 NA
ATOM      7  C   UNL     1      45.707   3.812  13.162  0.00  0.00    +0.000 A 
ATOM      8  H   UNL     1      44.345   6.183   9.899  0.00  0.00    +0.000 HD
ENDROOT
BRANCH   1  10
ATOM      9  N   UNL     1      47.543   5.448  15.810  0.00  0.00    +0.000 N 
ATOM     10  C   UNL     1      47.276   4.398  14.978  0.00  0.00    +0.000 C 
ATOM     11  O   UNL     1      47.537   3.248  15.306  0.00  0.00    +0.000 OA
ATOM     12  H   UNL     1      47.900   5.215  16.729  0.00  0.00    +0.000 HD
ATOM     13  H   UNL     1      47.145   6.368  15.684  0.00  0.00    +0.000 HD
ENDBRANCH   1  10
BRANCH   5  14
ATOM     14  C   UNL     1      44.146   4.184   9.346  0.00  0.00    +0.000 C 
BRANCH  14  15
ATOM     15  C   UNL     1      45.201   3.399   8.592  0.00  0.00    +0.000 A 
ATOM     16  C   UNL     1      46.041   4.066   7.679  0.00  0.00    +0.000 A 
ATOM     17  C   UNL     1      47.016   3.371   6.966  0.00  0.00    +0.000 A 
ATOM     18  C   UNL     1      47.163   2.008   7.175  0.00  0.00    +0.000 A 
ATOM     19  F   UNL     1      48.101   1.335   6.492  0.00  0.00    +0.000 F 
ATOM     20  C   UNL     1      46.355   1.328   8.079  0.00  0.00    +0.000 A 
ATOM     21  C   UNL     1      45.371   2.021   8.789  0.00  0.00    +0.000 A 
ENDBRANCH  14  15
ENDBRANCH   5  14
TORSDOF 3
ENDMDL
MODEL 2
REMARK VINA RESULT:    -7.911      3.562      6.439
REMARK INTER + INTRA:          -9.713
REMARK INTER:                  -9.315
REMARK INTRA:                  -0.397
REMARK UNBOUND:                -0.414
REMARK  Name = 
REMARK  3 active torsions:
REMARK  status: ('A' for Active; 'I' for Inactive)
REMARK    1  A    between atoms: C_2  and  C_4
REMARK    2  A    between atoms: N_8  and  C_9
REMARK    3  A    between atoms: C_9  and  C_10
REMARK                            x       y       z     vdW  Elec       q    Type
REMARK                         _______ _______ _______ _____ _____    ______ ____
ROOT
ATOM      1  C   UNL     1      46.512   2.622   7.423  0.00  0.00    +0.000 A 
ATOM      2  C   UNL     1      45.924   1.684   8.266  0.00  0.00    +0.000 A 
ATOM      3  C   UNL     1      45.004   2.117   9.219  0.00  0.00    +0.000 A 
ATOM      4  C   UNL     1      44.709   3.475   9.337  0.00  0.00    +0.000 A 
ATOM      5  N   UNL     1      43.877   3.860  10.379  0.00  0.00    +0.000 N 
ATOM      6  N   UNL     1      45.282   4.391   8.533  0.00  0.00    +0.000 NA
ATOM      7  C   UNL     1      46.166   3.952   7.599  0.00  0.00    +0.000 A 
ATOM      8  H   UNL     1      42.978   3.396  10.364  0.00  0.00    +0.000 HD
ENDROOT
BRANCH   1  10
ATOM      9  N   UNL     1      47.537   3.038   5.261  0.00  0.00    +0.000 N 
ATOM     10  C   UNL     1      47.503   2.266   6.388  0.00  0.00    +0.000 C 
ATOM     11  O   UNL     1      48.285   1.337   6.541  0.00  0.00    +0.000 OA
ATOM     12  H   UNL     1      48.281   2.842   4.602  0.00  0.00    +0.000 HD
ATOM     13  H   UNL     1      47.078   3.936   5.193  0.00  0.00    +0.000 HD
ENDBRANCH   1  10
BRANCH   5  14
ATOM     14  C   UNL     1      43.820   5.263  10.748  0.00  0.00    +0.000 C 
BRANCH  14  15
ATOM     15  C   UNL     1      44.979   5.532  11.687  0.00  0.00    +0.000 A 
ATOM     16  C   UNL     1      45.119   4.758  12.855  0.00  0.00    +0.000 A 
ATOM     17  C   UNL     1      46.171   4.985  13.741  0.00  0.00    +0.000 A 
ATOM     18  C   UNL     1      47.094   5.979  13.454  0.00  0.00    +0.000 A 
ATOM     19  F   UNL     1      48.109   6.200  14.302  0.00  0.00    +0.000 F 
ATOM     20  C   UNL     1      46.986   6.749  12.301  0.00  0.00    +0.000 A 
ATOM     21  C   UNL     1      45.927   6.528  11.415  0.00  0.00    +0.000 A 
ENDBRANCH  14  15
ENDBRANCH   5  14
TORSDOF 3
ENDMDL
MODEL 3
REMARK VINA RESULT:    -7.745      2.115      2.597
REMARK INTER + INTRA:          -9.517
REMARK INTER:                  -9.233
REMARK INTRA:                  -0.284
REMARK UNBOUND:                -0.414
REMARK  Name = 
REMARK  3 active torsions:
REMARK  status: ('A' for Active; 'I' for Inactive)
REMARK    1  A    between atoms: C_2  and  C_4
REMARK    2  A    between atoms: N_8  and  C_9
REMARK    3  A    between atoms: C_9  and  C_10
REMARK                            x       y       z     vdW  Elec       q    Type
REMARK                         _______ _______ _______ _____ _____    ______ ____
ROOT
ATOM      1  C   UNL     1      45.651   6.718  12.452  0.00  0.00    +0.000 A 
ATOM      2  C   UNL     1      45.822   5.588  13.245  0.00  0.00    +0.000 A 
ATOM      3  C   UNL     1      45.655   4.329  12.670  0.00  0.00    +0.000 A 
ATOM      4  C   UNL     1      45.293   4.218  11.327  0.00  0.00    +0.000 A 
ATOM      5  N   UNL     1      45.026   2.947  10.841  0.00  0.00    +0.000 N 
ATOM      6  N   UNL     1      45.114   5.307  10.556  0.00  0.00    +0.000 NA
ATOM      7  C   UNL     1      45.295   6.528  11.127  0.00  0.00    +0.000 A 
ATOM      8  H   UNL     1      45.800   2.305  10.958  0.00  0.00    +0.000 HD
ENDROOT
BRANCH   1  10
ATOM      9  N   UNL     1      44.794   8.978  12.687  0.00  0.00    +0.000 N 
ATOM     10  C   UNL     1      45.797   8.095  12.969  0.00  0.00    +0.000 C 
ATOM     11  O   UNL     1      46.760   8.426  13.646  0.00  0.00    +0.000 OA
ATOM     12  H   UNL     1      44.860   9.890  13.124  0.00  0.00    +0.000 HD
ATOM     13  H   UNL     1      43.890   8.695  12.336  0.00  0.00    +0.000 HD
ENDBRANCH   1  10
BRANCH   5  14
ATOM     14  C   UNL     1      44.325   2.813   9.577  0.00  0.00    +0.000 C 
BRANCH  14  15
ATOM     15  C   UNL     1      45.365   2.551   8.506  0.00  0.00    +0.000 A 
ATOM     16  C   UNL     1      45.700   3.577   7.600  0.00  0.00    +0.000 A 
ATOM     17  C   UNL     1      46.648   3.365   6.601  0.00  0.00    +0.000 A 
ATOM     18  C   UNL     1      47.275   2.131   6.513  0.00  0.00    +0.000 A 
ATOM     19  F   UNL     1      48.189   1.923   5.555  0.00  0.00    +0.000 F 
ATOM     20  C   UNL     1      46.971   1.106   7.403  0.00  0.00    +0.000 A 
ATOM     21  C   UNL     1      46.014   1.314   8.401  0.00  0.00    +0.000 A 
ENDBRANCH  14  15
ENDBRANCH   5  14
TORSDOF 3
ENDMDL
MODEL 4
REMARK VINA RESULT:    -6.631      1.732      1.965
REMARK INTER + INTRA:          -8.207
REMARK INTER:                  -7.939
REMARK INTRA:                  -0.268
REMARK UNBOUND:                -0.414
REMARK  Name = 
REMARK  3 active torsions:
REMARK  status: ('A' for Active; 'I' for Inactive)
REMARK    1  A    between atoms: C_2  and  C_4
REMARK    2  A    between atoms: N_8  and  C_9
REMARK    3  A    between atoms: C_9  and  C_10
REMARK                            x       y       z     vdW  Elec       q    Type
REMARK                         _______ _______ _______ _____ _____    ______ ____
ROOT
ATOM      1  C   UNL     1      47.331   6.840  12.994  0.00  0.00    +0.000 A 
ATOM      2  C   UNL     1      46.730   7.663  12.046  0.00  0.00    +0.000 A 
ATOM      3  C   UNL     1      45.698   7.147  11.264  0.00  0.00    +0.000 A 
ATOM      4  C   UNL     1      45.302   5.819  11.418  0.00  0.00    +0.000 A 
ATOM      5  N   UNL     1      44.352   5.329  10.533  0.00  0.00    +0.000 N 
ATOM      6  N   UNL     1      45.885   5.013  12.325  0.00  0.00    +0.000 NA
ATOM      7  C   UNL     1      46.881   5.533  13.091  0.00  0.00    +0.000 A 
ATOM      8  H   UNL     1      43.491   5.861  10.537  0.00  0.00    +0.000 HD
ENDROOT
BRANCH   1  10
ATOM      9  N   UNL     1      49.710   7.083  13.414  0.00  0.00    +0.000 N 
ATOM     10  C   UNL     1      48.437   7.288  13.865  0.00  0.00    +0.000 C 
ATOM     11  O   UNL     1      48.226   7.847  14.933  0.00  0.00    +0.000 OA
ATOM     12  H   UNL     1      50.455   7.478  13.976  0.00  0.00    +0.000 HD
ATOM     13  H   UNL     1      49.926   6.841  12.458  0.00  0.00    +0.000 HD
ENDBRANCH   1  10
BRANCH   5  14
ATOM     14  C   UNL     1      44.167   3.893  10.430  0.00  0.00    +0.000 C 
BRANCH  14  15
ATOM     15  C   UNL     1      45.068   3.398   9.316  0.00  0.00    +0.000 A 
ATOM     16  C   UNL     1      45.654   4.327   8.435  0.00  0.00    +0.000 A 
ATOM     17  C   UNL     1      46.483   3.903   7.397  0.00  0.00    +0.000 A 
ATOM     18  C   UNL     1      46.740   2.549   7.247  0.00  0.00    +0.000 A 
ATOM     19  F   UNL     1      47.538   2.137   6.252  0.00  0.00    +0.000 F 
ATOM     20  C   UNL     1      46.184   1.612   8.112  0.00  0.00    +0.000 A 
ATOM     21  C   UNL     1      45.345   2.034   9.148  0.00  0.00    +0.000 A 
ENDBRANCH  14  15
ENDBRANCH   5  14
TORSDOF 3
ENDMDL
MODEL 5
REMARK VINA RESULT:    -5.825      3.124      5.169
REMARK INTER + INTRA:          -7.261
REMARK INTER:                  -6.983
REMARK INTRA:                  -0.278
REMARK UNBOUND:                -0.414
REMARK  Name = 
REMARK  3 active torsions:
REMARK  status: ('A' for Active; 'I' for Inactive)
REMARK    1  A    between atoms: C_2  and  C_4
REMARK    2  A    between atoms: N_8  and  C_9
REMARK    3  A    between atoms: C_9  and  C_10
REMARK                            x       y       z     vdW  Elec       q    Type
REMARK                         _______ _______ _______ _____ _____    ______ ____
ROOT
ATOM      1  C   UNL     1      49.018   4.485  18.192  0.00  0.00    +0.000 A 
ATOM      2  C   UNL     1      47.914   3.639  18.148  0.00  0.00    +0.000 A 
ATOM      3  C   UNL     1      47.143   3.597  16.987  0.00  0.00    +0.000 A 
ATOM      4  C   UNL     1      47.466   4.416  15.905  0.00  0.00    +0.000 A 
ATOM      5  N   UNL     1      46.596   4.417  14.824  0.00  0.00    +0.000 N 
ATOM      6  N   UNL     1      48.526   5.244  15.943  0.00  0.00    +0.000 NA
ATOM      7  C   UNL     1      49.277   5.265  17.076  0.00  0.00    +0.000 A 
ATOM      8  H   UNL     1      46.454   3.498  14.425  0.00  0.00    +0.000 HD
ENDROOT
BRANCH   1  10
ATOM      9  N   UNL     1      51.150   4.084  19.282  0.00  0.00    +0.000 N 
ATOM     10  C   UNL     1      49.892   4.608  19.376  0.00  0.00    +0.000 C 
ATOM     11  O   UNL     1      49.520   5.182  20.391  0.00  0.00    +0.000 OA
ATOM     12  H   UNL     1      51.770   4.257  20.065  0.00  0.00    +0.000 HD
ATOM     13  H   UNL     1      51.572   3.812  18.406  0.00  0.00    +0.000 HD
ENDBRANCH   1  10
BRANCH   5  14
ATOM     14  C   UNL     1      46.698   5.485  13.845  0.00  0.00    +0.000 C 
BRANCH  14  15
ATOM     15  C   UNL     1      46.017   5.006  12.579  0.00  0.00    +0.000 A 
ATOM     16  C   UNL     1      45.448   3.718  12.543  0.00  0.00    +0.000 A 
ATOM     17  C   UNL     1      44.821   3.246  11.391  0.00  0.00    +0.000 A 
ATOM     18  C   UNL     1      44.748   4.066  10.276  0.00  0.00    +0.000 A 
ATOM     19  F   UNL     1      44.144   3.618   9.166  0.00  0.00    +0.000 F 
ATOM     20  C   UNL     1      45.291   5.347  10.289  0.00  0.00    +0.000 A 
ATOM     21  C   UNL     1      45.928   5.819  11.441  0.00  0.00    +0.000 A 
ENDBRANCH  14  15
ENDBRANCH   5  14
TORSDOF 3
ENDMDL
MODEL 6
REMARK VINA RESULT:    -5.774      3.904      6.095
REMARK INTER + INTRA:          -7.200
REMARK INTER:                  -6.912
REMARK INTRA:                  -0.289
REMARK UNBOUND:                -0.414
REMARK  Name = 
REMARK  3 active torsions:
REMARK  status: ('A' for Active; 'I' for Inactive)
REMARK    1  A    between atoms: C_2  and  C_4
REMARK    2  A    between atoms: N_8  and  C_9
REMARK    3  A    between atoms: C_9  and  C_10
REMARK                            x       y       z     vdW  Elec       q    Type
REMARK                         _______ _______ _______ _____ _____    ______ ____
ROOT
ATOM      1  C   UNL     1      44.493   4.026  11.681  0.00  0.00    +0.000 A 
ATOM      2  C   UNL     1      45.164   3.979  12.900  0.00  0.00    +0.000 A 
ATOM      3  C   UNL     1      45.682   5.159  13.430  0.00  0.00    +0.000 A 
ATOM      4  C   UNL     1      45.551   6.357  12.727  0.00  0.00    +0.000 A 
ATOM      5  N   UNL     1      46.188   7.475  13.245  0.00  0.00    +0.000 N 
ATOM      6  N   UNL     1      44.912   6.409  11.543  0.00  0.00    +0.000 NA
ATOM      7  C   UNL     1      44.399   5.253  11.044  0.00  0.00    +0.000 A 
ATOM      8  H   UNL     1      45.903   7.693  14.192  0.00  0.00    +0.000 HD
ENDROOT
BRANCH   1  10
ATOM      9  N   UNL     1      44.564   2.340   9.935  0.00  0.00    +0.000 N 
ATOM     10  C   UNL     1      43.915   2.831  11.033  0.00  0.00    +0.000 C 
ATOM     11  O   UNL     1      42.915   2.283  11.474  0.00  0.00    +0.000 OA
ATOM     12  H   UNL     1      44.212   1.469   9.556  0.00  0.00    +0.000 HD
ATOM     13  H   UNL     1      45.501   2.616   9.677  0.00  0.00    +0.000 HD
ENDBRANCH   1  10
BRANCH   5  14
ATOM     14  C   UNL     1      46.369   8.636  12.393  0.00  0.00    +0.000 C 
BRANCH  14  15
ATOM     15  C   UNL     1      47.837   8.701  12.022  0.00  0.00    +0.000 A 
ATOM     16  C   UNL     1      48.413   9.942  11.689  0.00  0.00    +0.000 A 
ATOM     17  C   UNL     1      49.759  10.034  11.337  0.00  0.00    +0.000 A 
ATOM     18  C   UNL     1      50.536   8.885  11.332  0.00  0.00    +0.000 A 
ATOM     19  F   UNL     1      51.832   8.969  10.996  0.00  0.00    +0.000 F 
ATOM     20  C   UNL     1      49.995   7.649  11.669  0.00  0.00    +0.000 A 
ATOM     21  C   UNL     1      48.643   7.554  12.013  0.00  0.00    +0.000 A 
ENDBRANCH  14  15
ENDBRANCH   5  14
TORSDOF 3
ENDMDL
MODEL 7
REMARK VINA RESULT:    -5.733      4.285      7.469
REMARK INTER + INTRA:          -7.152
REMARK INTER:                  -6.851
REMARK INTRA:                  -0.301
REMARK UNBOUND:                -0.414
REMARK  Name = 
REMARK  3 active torsions:
REMARK  status: ('A' for Active; 'I' for Inactive)
REMARK    1  A    between atoms: C_2  and  C_4
REMARK    2  A    between atoms: N_8  and  C_9
REMARK    3  A    between atoms: C_9  and  C_10
REMARK                            x       y       z     vdW  Elec       q    Type
REMARK                         _______ _______ _______ _____ _____    ______ ____
ROOT
ATOM      1  C   UNL     1      44.966   4.867  12.015  0.00  0.00    +0.000 A 
ATOM      2  C   UNL     1      45.909   5.889  11.968  0.00  0.00    +0.000 A 
ATOM      3  C   UNL     1      46.828   6.007  13.010  0.00  0.00    +0.000 A 
ATOM      4  C   UNL     1      46.775   5.126  14.090  0.00  0.00    +0.000 A 
ATOM      5  N   UNL     1      47.638   5.363  15.150  0.00  0.00    +0.000 N 
ATOM      6  N   UNL     1      45.859   4.140  14.148  0.00  0.00    +0.000 NA
ATOM      7  C   UNL     1      44.979   4.029  13.119  0.00  0.00    +0.000 A 
ATOM      8  H   UNL     1      48.612   5.383  14.876  0.00  0.00    +0.000 HD
ENDROOT
BRANCH   1  10
ATOM      9  N   UNL     1      42.642   4.593  11.369  0.00  0.00    +0.000 N 
ATOM     10  C   UNL     1      43.945   4.663  10.967  0.00  0.00    +0.000 C 
ATOM     11  O   UNL     1      44.248   4.590   9.784  0.00  0.00    +0.000 OA
ATOM     12  H   UNL     1      41.945   4.548  10.634  0.00  0.00    +0.000 HD
ATOM     13  H   UNL     1      42.331   4.874  12.288  0.00  0.00    +0.000 HD
ENDBRANCH   1  10
BRANCH   5  14
ATOM     14  C   UNL     1      47.388   4.701  16.418  0.00  0.00    +0.000 C 
BRANCH  14  15
ATOM     15  C   UNL     1      48.663   3.985  16.815  0.00  0.00    +0.000 A 
ATOM     16  C   UNL     1      48.771   2.596  16.607  0.00  0.00    +0.000 A 
ATOM     17  C   UNL     1      49.928   1.907  16.967  0.00  0.00    +0.000 A 
ATOM     18  C   UNL     1      50.987   2.609  17.523  0.00  0.00    +0.000 A 
ATOM     19  F   UNL     1      52.103   1.951  17.869  0.00  0.00    +0.000 F 
ATOM     20  C   UNL     1      50.911   3.983  17.727  0.00  0.00    +0.000 A 
ATOM     21  C   UNL     1      49.748   4.673  17.375  0.00  0.00    +0.000 A 
ENDBRANCH  14  15
ENDBRANCH   5  14
TORSDOF 3
ENDMDL
MODEL 8
REMARK VINA RESULT:    -5.661      4.511      5.797
REMARK INTER + INTRA:          -7.067
REMARK INTER:                  -6.706
REMARK INTRA:                  -0.361
REMARK UNBOUND:                -0.414
REMARK  Name = 
REMARK  3 active torsions:
REMARK  status: ('A' for Active; 'I' for Inactive)
REMARK    1  A    between atoms: C_2  and  C_4
REMARK    2  A    between atoms: N_8  and  C_9
REMARK    3  A    between atoms: C_9  and  C_10
REMARK                            x       y       z     vdW  Elec       q    Type
REMARK                         _______ _______ _______ _____ _____    ______ ____
ROOT
ATOM      1  C   UNL     1      48.327   4.636  18.336  0.00  0.00    +0.000 A 
ATOM      2  C   UNL     1      47.578   3.495  18.062  0.00  0.00    +0.000 A 
ATOM      3  C   UNL     1      47.193   3.242  16.747  0.00  0.00    +0.000 A 
ATOM      4  C   UNL     1      47.533   4.139  15.735  0.00  0.00    +0.000 A 
ATOM      5  N   UNL     1      47.023   3.895  14.468  0.00  0.00    +0.000 N 
ATOM      6  N   UNL     1      48.249   5.250  15.993  0.00  0.00    +0.000 NA
ATOM      7  C   UNL     1      48.630   5.477  17.277  0.00  0.00    +0.000 A 
ATOM      8  H   UNL     1      47.272   2.984  14.106  0.00  0.00    +0.000 HD
ENDROOT
BRANCH   1  10
ATOM      9  N   UNL     1      48.696   4.033  20.659  0.00  0.00    +0.000 N 
ATOM     10  C   UNL     1      48.777   4.998  19.696  0.00  0.00    +0.000 C 
ATOM     11  O   UNL     1      49.233   6.105  19.946  0.00  0.00    +0.000 OA
ATOM     12  H   UNL     1      49.093   4.263  21.562  0.00  0.00    +0.000 HD
ATOM     13  H   UNL     1      48.546   3.056  20.451  0.00  0.00    +0.000 HD
ENDBRANCH   1  10
BRANCH   5  14
ATOM     14  C   UNL     1      47.059   4.961  13.482  0.00  0.00    +0.000 C 
BRANCH  14  15
ATOM     15  C   UNL     1      45.642   5.165  12.983  0.00  0.00    +0.000 A 
ATOM     16  C   UNL     1      45.360   6.241  12.119  0.00  0.00    +0.000 A 
ATOM     17  C   UNL     1      44.066   6.459  11.649  0.00  0.00    +0.000 A 
ATOM     18  C   UNL     1      43.053   5.592  12.030  0.00  0.00    +0.000 A 
ATOM     19  F   UNL     1      41.807   5.797  11.579  0.00  0.00    +0.000 F 
ATOM     20  C   UNL     1      43.308   4.515  12.872  0.00  0.00    +0.000 A 
ATOM     21  C   UNL     1      44.603   4.300  13.352  0.00  0.00    +0.000 A 
ENDBRANCH  14  15
ENDBRANCH   5  14
TORSDOF 3
ENDMDL
MODEL 9
REMARK VINA RESULT:    -5.466      3.296      3.976
REMARK INTER + INTRA:          -6.839
REMARK INTER:                  -6.647
REMARK INTRA:                  -0.192
REMARK UNBOUND:                -0.414
REMARK  Name = 
REMARK  3 active torsions:
REMARK  status: ('A' for Active; 'I' for Inactive)
REMARK    1  A    between atoms: C_2  and  C_4
REMARK    2  A    between atoms: N_8  and  C_9
REMARK    3  A    between atoms: C_9  and  C_10
REMARK                            x       y       z     vdW  Elec       q    Type
REMARK                         _______ _______ _______ _____ _____    ______ ____
ROOT
ATOM      1  C   UNL     1      47.239   9.225  12.704  0.00  0.00    +0.000 A 
ATOM      2  C   UNL     1      46.027   9.584  12.122  0.00  0.00    +0.000 A 
ATOM      3  C   UNL     1      45.022   8.625  12.010  0.00  0.00    +0.000 A 
ATOM      4  C   UNL     1      45.250   7.321  12.450  0.00  0.00    +0.000 A 
ATOM      5  N   UNL     1      44.258   6.382  12.206  0.00  0.00    +0.000 N 
ATOM      6  N   UNL     1      46.423   6.962  13.005  0.00  0.00    +0.000 NA
ATOM      7  C   UNL     1      47.389   7.911  13.121  0.00  0.00    +0.000 A 
ATOM      8  H   UNL     1      43.361   6.639  12.598  0.00  0.00    +0.000 HD
ENDROOT
BRANCH   1  10
ATOM      9  N   UNL     1      48.365  10.966  13.968  0.00  0.00    +0.000 N 
ATOM     10  C   UNL     1      48.368  10.164  12.861  0.00  0.00    +0.000 C 
ATOM     11  O   UNL     1      49.285  10.205  12.053  0.00  0.00    +0.000 OA
ATOM     12  H   UNL     1      49.189  11.537  14.112  0.00  0.00    +0.000 HD
ATOM     13  H   UNL     1      47.762  10.808  14.763  0.00  0.00    +0.000 HD
ENDBRANCH   1  10
BRANCH   5  14
ATOM     14  C   UNL     1      44.583   4.973  12.329  0.00  0.00    +0.000 C 
BRANCH  14  15
ATOM     15  C   UNL     1      44.802   4.434  10.929  0.00  0.00    +0.000 A 
ATOM     16  C   UNL     1      45.470   5.230   9.978  0.00  0.00    +0.000 A 
ATOM     17  C   UNL     1      45.682   4.765   8.681  0.00  0.00    +0.000 A 
ATOM     18  C   UNL     1      45.238   3.498   8.336  0.00  0.00    +0.000 A 
ATOM     19  F   UNL     1      45.440   3.046   7.089  0.00  0.00    +0.000 F 
ATOM     20  C   UNL     1      44.586   2.688   9.260  0.00  0.00    +0.000 A 
ATOM     21  C   UNL     1      44.365   3.155  10.559  0.00  0.00    +0.000 A 
ENDBRANCH  14  15
ENDBRANCH   5  14
TORSDOF 3
ENDMDL
