MODEL 1
REMARK VINA RESULT:    -8.686      0.000      0.000
REMARK INTER + INTRA:         -11.974
REMARK INTER:                 -11.224
REMARK INTRA:                  -0.749
REMARK UNBOUND:                -0.749
REMARK  Name = 
REMARK  5 active torsions:
REMARK  status: ('A' for Active; 'I' for Inactive)
REMARK    1  A    between atoms: C_2  and  C_4
REMARK    2  A    between atoms: C_7  and  O_8
REMARK    3  A    between atoms: O_8  and  C_9
REMARK    4  A    between atoms: C_9  and  C_10
REMARK    5  A    between atoms: C_14  and  C_15
REMARK                            x       y       z     vdW  Elec       q    Type
REMARK                         _______ _______ _______ _____ _____    ______ ____
ROOT
ATOM      1  C   UNL     1      43.766   4.435  11.283  0.00  0.00    +0.000 C 
ENDROOT
BRANCH   1   2
ATOM      2  C   UNL     1      44.818   5.295  11.939  0.00  0.00    +0.000 A 
ATOM      3  C   UNL     1      45.173   6.527  11.391  0.00  0.00    +0.000 A 
ATOM      4  C   UNL     1      46.182   7.255  11.998  0.00  0.00    +0.000 A 
ATOM      5  N   UNL     1      46.862   6.837  13.090  0.00  0.00    +0.000 NA
ATOM      6  C   UNL     1      46.541   5.627  13.607  0.00  0.00    +0.000 A 
ATOM      7  C   UNL     1      45.525   4.844  13.057  0.00  0.00    +0.000 A 
BRANCH   6   8
ATOM      8  C   UNL     1      47.324   5.187  14.771  0.00  0.00    +0.000 A 
ATOM      9  C   UNL     1      48.345   5.979  15.310  0.00  0.00    +0.000 A 
ATOM     10  N   UNL     1      49.088   5.660  16.403  0.00  0.00    +0.000 NA
ATOM     11  C   UNL     1      48.812   4.474  16.990  0.00  0.00    +0.000 A 
ATOM     12  C   UNL     1      47.842   3.608  16.530  0.00  0.00    +0.000 A 
ATOM     13  F   UNL     1      47.612   2.444  17.149  0.00  0.00    +0.000 F 
ATOM     14  C   UNL     1      47.097   3.960  15.415  0.00  0.00    +0.000 A 
ENDBRANCH   6   8
ENDBRANCH   1   2
BRANCH   1  15
ATOM     15  O   UNL     1      43.708   4.706   9.877  0.00  0.00    +0.000 OA
BRANCH  15  19
ATOM     16  C   UNL     1      46.327   2.330   7.773  0.00  0.00    +0.000 A 
ATOM     17  C   UNL     1      45.463   1.747   8.704  0.00  0.00    +0.000 A 
ATOM     18  C   UNL     1      44.580   2.562   9.414  0.00  0.00    +0.000 A 
ATOM     19  C   UNL     1      44.592   3.926   9.162  0.00  0.00    +0.000 A 
ATOM     20  N   UNL     1      45.420   4.516   8.274  0.00  0.00    +0.000 NA
ATOM     21  C   UNL     1      46.275   3.706   7.606  0.00  0.00    +0.000 A 
BRANCH  16  23
ATOM     22  N   UNL     1      48.447   2.216   6.594  0.00  0.00    +0.000 N 
ATOM     23  C   UNL     1      47.309   1.567   6.979  0.00  0.00    +0.000 C 
ATOM     24  O   UNL     1      47.129   0.386   6.711  0.00  0.00    +0.000 OA
ATOM     25  H   UNL     1      49.154   1.645   6.146  0.00  0.00    +0.000 HD
ATOM     26  H   UNL     1      48.745   3.089   7.005  0.00  0.00    +0.000 HD
ENDBRANCH  16  23
ENDBRANCH  15  19
ENDBRANCH   1  15
TORSDOF 5
ENDMDL
MODEL 2
REMARK VINA RESULT:    -8.540      2.530      3.828
REMARK INTER + INTRA:         -11.785
REMARK INTER:                 -11.088
REMARK INTRA:                  -0.697
REMARK UNBOUND:                -0.749
REMARK  Name = 
REMARK  5 active torsions:
REMARK  status: ('A' for Active; 'I' for Inactive)
REMARK    1  A    between atoms: C_2  and  C_4
REMARK    2  A    between atoms: C_7  and  O_8
REMARK    3  A    between atoms: O_8  and  C_9
REMARK    4  A    between atoms: C_9  and  C_10
REMARK    5  A    between atoms: C_14  and  C_15
REMARK                            x       y       z     vdW  Elec       q    Type
REMARK                         _______ _______ _______ _____ _____    ______ ____
ROOT
ATOM      1  C   UNL     1      43.688   4.221  11.326  0.00  0.00    +0.000 C 
ENDROOT
BRANCH   1   2
ATOM      2  C   UNL     1      44.969   4.708  11.958  0.00  0.00    +0.000 A 
ATOM      3  C   UNL     1      45.653   3.918  12.882  0.00  0.00    +0.000 A 
ATOM      4  C   UNL     1      46.793   4.431  13.474  0.00  0.00    +0.000 A 
ATOM      5  N   UNL     1      47.284   5.665  13.224  0.00  0.00    +0.000 NA
ATOM      6  C   UNL     1      46.606   6.448  12.350  0.00  0.00    +0.000 A 
ATOM      7  C   UNL     1      45.456   5.993  11.703  0.00  0.00    +0.000 A 
BRANCH   6   8
ATOM      8  C   UNL     1      47.146   7.797  12.128  0.00  0.00    +0.000 A 
ATOM      9  C   UNL     1      46.351   8.939  12.279  0.00  0.00    +0.000 A 
ATOM     10  N   UNL     1      46.783  10.219  12.127  0.00  0.00    +0.000 NA
ATOM     11  C   UNL     1      48.083  10.377  11.792  0.00  0.00    +0.000 A 
ATOM     12  C   UNL     1      48.950   9.321  11.599  0.00  0.00    +0.000 A 
ATOM     13  F   UNL     1      50.228   9.535  11.264  0.00  0.00    +0.000 F 
ATOM     14  C   UNL     1      48.483   8.025  11.762  0.00  0.00    +0.000 A 
ENDBRANCH   6   8
ENDBRANCH   1   2
BRANCH   1  15
ATOM     15  O   UNL     1      43.647   4.583   9.941  0.00  0.00    +0.000 OA
BRANCH  15  19
ATOM     16  C   UNL     1      46.381   2.437   7.738  0.00  0.00    +0.000 A 
ATOM     17  C   UNL     1      45.555   1.773   8.648  0.00  0.00    +0.000 A 
ATOM     18  C   UNL     1      44.632   2.510   9.392  0.00  0.00    +0.000 A 
ATOM     19  C   UNL     1      44.569   3.881   9.193  0.00  0.00    +0.000 A 
ATOM     20  N   UNL     1      45.358   4.549   8.326  0.00  0.00    +0.000 NA
ATOM     21  C   UNL     1      46.253   3.814   7.624  0.00  0.00    +0.000 A 
BRANCH  16  23
ATOM     22  N   UNL     1      48.466   2.502   6.496  0.00  0.00    +0.000 N 
ATOM     23  C   UNL     1      47.399   1.760   6.912  0.00  0.00    +0.000 C 
ATOM     24  O   UNL     1      47.309   0.569   6.643  0.00  0.00    +0.000 OA
ATOM     25  H   UNL     1      49.205   1.994   6.024  0.00  0.00    +0.000 HD
ATOM     26  H   UNL     1      48.704   3.396   6.902  0.00  0.00    +0.000 HD
ENDBRANCH  16  23
ENDBRANCH  15  19
ENDBRANCH   1  15
TORSDOF 5
ENDMDL
MODEL 3
REMARK VINA RESULT:    -8.274      2.779      4.193
REMARK INTER + INTRA:         -11.442
REMARK INTER:                 -10.615
REMARK INTRA:                  -0.827
REMARK UNBOUND:                -0.749
REMARK  Name = 
REMARK  5 active torsions:
REMARK  status: ('A' for Active; 'I' for Inactive)
REMARK    1  A    between atoms: C_2  and  C_4
REMARK    2  A    between atoms: C_7  and  O_8
REMARK    3  A    between atoms: O_8  and  C_9
REMARK    4  A    between atoms: C_9  and  C_10
REMARK    5  A    between atoms: C_14  and  C_15
REMARK                            x       y       z     vdW  Elec       q    Type
REMARK                         _______ _______ _______ _____ _____    ______ ____
ROOT
ATOM      1  C   UNL     1      43.851   3.958  11.318  0.00  0.00    +0.000 C 
ENDROOT
BRANCH   1   2
ATOM      2  C   UNL     1      44.934   4.764  11.993  0.00  0.00    +0.000 A 
ATOM      3  C   UNL     1      45.783   4.173  12.928  0.00  0.00    +0.000 A 
ATOM      4  C   UNL     1      46.725   4.965  13.560  0.00  0.00    +0.000 A 
ATOM      5  N   UNL     1      46.867   6.291  13.338  0.00  0.00    +0.000 NA
ATOM      6  C   UNL     1      46.025   6.876  12.452  0.00  0.00    +0.000 A 
ATOM      7  C   UNL     1      45.059   6.137  11.767  0.00  0.00    +0.000 A 
BRANCH   6   8
ATOM      8  C   UNL     1      46.182   8.325  12.262  0.00  0.00    +0.000 A 
ATOM      9  C   UNL     1      47.437   8.941  12.328  0.00  0.00    +0.000 A 
ATOM     10  N   UNL     1      47.669  10.266  12.129  0.00  0.00    +0.000 NA
ATOM     11  C   UNL     1      46.588  11.031  11.861  0.00  0.00    +0.000 A 
ATOM     12  C   UNL     1      45.303  10.531  11.792  0.00  0.00    +0.000 A 
ATOM     13  F   UNL     1      44.267  11.334  11.526  0.00  0.00    +0.000 F 
ATOM     14  C   UNL     1      45.096   9.175  11.998  0.00  0.00    +0.000 A 
ENDBRANCH   6   8
ENDBRANCH   1   2
BRANCH   1  15
ATOM     15  O   UNL     1      43.707   4.364   9.952  0.00  0.00    +0.000 OA
BRANCH  15  19
ATOM     16  C   UNL     1      46.574   2.640   7.555  0.00  0.00    +0.000 A 
ATOM     17  C   UNL     1      45.814   1.836   8.408  0.00  0.00    +0.000 A 
ATOM     18  C   UNL     1      44.845   2.430   9.219  0.00  0.00    +0.000 A 
ATOM     19  C   UNL     1      44.672   3.804   9.141  0.00  0.00    +0.000 A 
ATOM     20  N   UNL     1      45.395   4.606   8.330  0.00  0.00    +0.000 NA
ATOM     21  C   UNL     1      46.336   4.008   7.563  0.00  0.00    +0.000 A 
BRANCH  16  23
ATOM     22  N   UNL     1      47.957   2.868   5.572  0.00  0.00    +0.000 N 
ATOM     23  C   UNL     1      47.631   2.121   6.667  0.00  0.00    +0.000 C 
ATOM     24  O   UNL     1      48.222   1.079   6.924  0.00  0.00    +0.000 OA
ATOM     25  H   UNL     1      48.757   2.549   5.038  0.00  0.00    +0.000 HD
ATOM     26  H   UNL     1      47.683   3.835   5.467  0.00  0.00    +0.000 HD
ENDBRANCH  16  23
ENDBRANCH  15  19
ENDBRANCH   1  15
TORSDOF 5
ENDMDL
MODEL 4
REMARK VINA RESULT:    -8.207      2.674      3.234
REMARK INTER + INTRA:         -11.355
REMARK INTER:                 -10.620
REMARK INTRA:                  -0.735
REMARK UNBOUND:                -0.749
REMARK  Name = 
REMARK  5 active torsions:
REMARK  status: ('A' for Active; 'I' for Inactive)
REMARK    1  A    between atoms: C_2  and  C_4
REMARK    2  A    between atoms: C_7  and  O_8
REMARK    3  A    between atoms: O_8  and  C_9
REMARK    4  A    between atoms: C_9  and  C_10
REMARK    5  A    between atoms: C_14  and  C_15
REMARK                            x       y       z     vdW  Elec       q    Type
REMARK                         _______ _______ _______ _____ _____    ______ ____
ROOT
ATOM      1  C   UNL     1      44.128   3.466  11.610  0.00  0.00    +0.000 C 
ENDROOT
BRANCH   1   2
ATOM      2  C   UNL     1      44.542   4.909  11.756  0.00  0.00    +0.000 A 
ATOM      3  C   UNL     1      43.654   5.940  11.446  0.00  0.00    +0.000 A 
ATOM      4  C   UNL     1      44.098   7.247  11.544  0.00  0.00    +0.000 A 
ATOM      5  N   UNL     1      45.353   7.592  11.911  0.00  0.00    +0.000 NA
ATOM      6  C   UNL     1      46.227   6.594  12.184  0.00  0.00    +0.000 A 
ATOM      7  C   UNL     1      45.847   5.252  12.120  0.00  0.00    +0.000 A 
BRANCH   6   8
ATOM      8  C   UNL     1      47.593   7.003  12.543  0.00  0.00    +0.000 A 
ATOM      9  C   UNL     1      48.171   6.636  13.763  0.00  0.00    +0.000 A 
ATOM     10  N   UNL     1      49.437   6.944  14.153  0.00  0.00    +0.000 NA
ATOM     11  C   UNL     1      50.171   7.674  13.284  0.00  0.00    +0.000 A 
ATOM     12  C   UNL     1      49.693   8.106  12.064  0.00  0.00    +0.000 A 
ATOM     13  F   UNL     1      50.463   8.830  11.243  0.00  0.00    +0.000 F 
ATOM     14  C   UNL     1      48.399   7.776  11.691  0.00  0.00    +0.000 A 
ENDBRANCH   6   8
ENDBRANCH   1   2
BRANCH   1  15
ATOM     15  O   UNL     1      43.563   3.240  10.312  0.00  0.00    +0.000 OA
BRANCH  15  19
ATOM     16  C   UNL     1      46.446   2.613   7.444  0.00  0.00    +0.000 A 
ATOM     17  C   UNL     1      45.837   3.866   7.547  0.00  0.00    +0.000 A 
ATOM     18  C   UNL     1      44.858   4.069   8.522  0.00  0.00    +0.000 A 
ATOM     19  C   UNL     1      44.531   3.011   9.358  0.00  0.00    +0.000 A 
ATOM     20  N   UNL     1      45.099   1.789   9.277  0.00  0.00    +0.000 NA
ATOM     21  C   UNL     1      46.037   1.614   8.316  0.00  0.00    +0.000 A 
BRANCH  16  23
ATOM     22  N   UNL     1      47.501   3.025   5.297  0.00  0.00    +0.000 N 
ATOM     23  C   UNL     1      47.480   2.286   6.443  0.00  0.00    +0.000 C 
ATOM     24  O   UNL     1      48.311   1.410   6.651  0.00  0.00    +0.000 OA
ATOM     25  H   UNL     1      48.283   2.858   4.674  0.00  0.00    +0.000 HD
ATOM     26  H   UNL     1      47.012   3.904   5.202  0.00  0.00    +0.000 HD
ENDBRANCH  16  23
ENDBRANCH  15  19
ENDBRANCH   1  15
TORSDOF 5
ENDMDL
MODEL 5
REMARK VINA RESULT:    -7.719      3.553      8.085
REMARK INTER + INTRA:         -10.724
REMARK INTER:                 -10.130
REMARK INTRA:                  -0.594
REMARK UNBOUND:                -0.749
REMARK  Name = 
REMARK  5 active torsions:
REMARK  status: ('A' for Active; 'I' for Inactive)
REMARK    1  A    between atoms: C_2  and  C_4
REMARK    2  A    between atoms: C_7  and  O_8
REMARK    3  A    between atoms: O_8  and  C_9
REMARK    4  A    between atoms: C_9  and  C_10
REMARK    5  A    between atoms: C_14  and  C_15
REMARK                            x       y       z     vdW  Elec       q    Type
REMARK                         _______ _______ _______ _____ _____    ______ ____
ROOT
ATOM      1  C   UNL     1      45.293   5.518  13.307  0.00  0.00    +0.000 C 
ENDROOT
BRANCH   1   2
ATOM      2  C   UNL     1      44.741   4.525  12.313  0.00  0.00    +0.000 A 
ATOM      3  C   UNL     1      43.631   3.742  12.631  0.00  0.00    +0.000 A 
ATOM      4  C   UNL     1      43.195   2.808  11.709  0.00  0.00    +0.000 A 
ATOM      5  N   UNL     1      43.790   2.592  10.514  0.00  0.00    +0.000 NA
ATOM      6  C   UNL     1      44.886   3.329  10.213  0.00  0.00    +0.000 A 
ATOM      7  C   UNL     1      45.375   4.300  11.088  0.00  0.00    +0.000 A 
BRANCH   6   8
ATOM      8  C   UNL     1      45.530   3.044   8.922  0.00  0.00    +0.000 A 
ATOM      9  C   UNL     1      45.801   4.059   7.999  0.00  0.00    +0.000 A 
ATOM     10  N   UNL     1      46.424   3.883   6.803  0.00  0.00    +0.000 NA
ATOM     11  C   UNL     1      46.788   2.618   6.497  0.00  0.00    +0.000 A 
ATOM     12  C   UNL     1      46.551   1.540   7.325  0.00  0.00    +0.000 A 
ATOM     13  F   UNL     1      46.930   0.306   6.972  0.00  0.00    +0.000 F 
ATOM     14  C   UNL     1      45.916   1.749   8.541  0.00  0.00    +0.000 A 
ENDBRANCH   6   8
ENDBRANCH   1   2
BRANCH   1  15
ATOM     15  O   UNL     1      46.725   5.485  13.298  0.00  0.00    +0.000 OA
BRANCH  15  19
ATOM     16  C   UNL     1      48.305   4.579  16.989  0.00  0.00    +0.000 A 
ATOM     17  C   UNL     1      48.656   5.778  16.364  0.00  0.00    +0.000 A 
ATOM     18  C   UNL     1      48.117   6.076  15.111  0.00  0.00    +0.000 A 
ATOM     19  C   UNL     1      47.244   5.165  14.535  0.00  0.00    +0.000 A 
ATOM     20  N   UNL     1      46.892   3.996  15.113  0.00  0.00    +0.000 NA
ATOM     21  C   UNL     1      47.437   3.725  16.322  0.00  0.00    +0.000 A 
BRANCH  16  23
ATOM     22  N   UNL     1      48.203   3.111  18.920  0.00  0.00    +0.000 N 
ATOM     23  C   UNL     1      48.825   4.158  18.303  0.00  0.00    +0.000 C 
ATOM     24  O   UNL     1      49.803   4.700  18.803  0.00  0.00    +0.000 OA
ATOM     25  H   UNL     1      48.642   2.769  19.767  0.00  0.00    +0.000 HD
ATOM     26  H   UNL     1      47.575   2.485  18.437  0.00  0.00    +0.000 HD
ENDBRANCH  16  23
ENDBRANCH  15  19
ENDBRANCH   1  15
TORSDOF 5
ENDMDL
MODEL 6
REMARK VINA RESULT:    -7.445      3.573      7.241
REMARK INTER + INTRA:         -10.371
REMARK INTER:                  -9.598
REMARK INTRA:                  -0.773
REMARK UNBOUND:                -0.749
REMARK  Name = 
REMARK  5 active torsions:
REMARK  status: ('A' for Active; 'I' for Inactive)
REMARK    1  A    between atoms: C_2  and  C_4
REMARK    2  A    between atoms: C_7  and  O_8
REMARK    3  A    between atoms: O_8  and  C_9
REMARK    4  A    between atoms: C_9  and  C_10
REMARK    5  A    between atoms: C_14  and  C_15
REMARK                            x       y       z     vdW  Elec       q    Type
REMARK                         _______ _______ _______ _____ _____    ______ ____
ROOT
ATOM      1  C   UNL     1      44.891   6.145  12.725  0.00  0.00    +0.000 C 
ENDROOT
BRANCH   1   2
ATOM      2  C   UNL     1      44.499   4.921  11.934  0.00  0.00    +0.000 A 
ATOM      3  C   UNL     1      43.533   4.039  12.419  0.00  0.00    +0.000 A 
ATOM      4  C   UNL     1      43.248   2.902  11.684  0.00  0.00    +0.000 A 
ATOM      5  N   UNL     1      43.860   2.580  10.523  0.00  0.00    +0.000 NA
ATOM      6  C   UNL     1      44.820   3.419  10.063  0.00  0.00    +0.000 A 
ATOM      7  C   UNL     1      45.152   4.591  10.744  0.00  0.00    +0.000 A 
BRANCH   6   8
ATOM      8  C   UNL     1      45.492   3.020   8.817  0.00  0.00    +0.000 A 
ATOM      9  C   UNL     1      45.769   3.947   7.806  0.00  0.00    +0.000 A 
ATOM     10  N   UNL     1      46.416   3.666   6.643  0.00  0.00    +0.000 NA
ATOM     11  C   UNL     1      46.800   2.382   6.466  0.00  0.00    +0.000 A 
ATOM     12  C   UNL     1      46.560   1.384   7.389  0.00  0.00    +0.000 A 
ATOM     13  F   UNL     1      46.960   0.128   7.162  0.00  0.00    +0.000 F 
ATOM     14  C   UNL     1      45.899   1.700   8.567  0.00  0.00    +0.000 A 
ENDBRANCH   6   8
ENDBRANCH   1   2
BRANCH   1  15
ATOM     15  O   UNL     1      46.058   5.876  13.512  0.00  0.00    +0.000 OA
BRANCH  15  19
ATOM     16  C   UNL     1      49.307   7.992  12.133  0.00  0.00    +0.000 A 
ATOM     17  C   UNL     1      48.023   8.349  11.713  0.00  0.00    +0.000 A 
ATOM     18  C   UNL     1      46.927   7.624  12.184  0.00  0.00    +0.000 A 
ATOM     19  C   UNL     1      47.159   6.574  13.061  0.00  0.00    +0.000 A 
ATOM     20  N   UNL     1      48.388   6.204  13.478  0.00  0.00    +0.000 NA
ATOM     21  C   UNL     1      49.435   6.915  12.997  0.00  0.00    +0.000 A 
BRANCH  16  23
ATOM     22  N   UNL     1      51.697   7.965  11.706  0.00  0.00    +0.000 N 
ATOM     23  C   UNL     1      50.534   8.680  11.687  0.00  0.00    +0.000 C 
ATOM     24  O   UNL     1      50.503   9.833  11.277  0.00  0.00    +0.000 OA
ATOM     25  H   UNL     1      52.504   8.419  11.294  0.00  0.00    +0.000 HD
ATOM     26  H   UNL     1      51.720   6.959  11.787  0.00  0.00    +0.000 HD
ENDBRANCH  16  23
ENDBRANCH  15  19
ENDBRANCH   1  15
TORSDOF 5
ENDMDL
MODEL 7
REMARK VINA RESULT:    -7.382      3.614      7.641
REMARK INTER + INTRA:         -10.289
REMARK INTER:                  -9.650
REMARK INTRA:                  -0.639
REMARK UNBOUND:                -0.749
REMARK  Name = 
REMARK  5 active torsions:
REMARK  status: ('A' for Active; 'I' for Inactive)
REMARK    1  A    between atoms: C_2  and  C_4
REMARK    2  A    between atoms: C_7  and  O_8
REMARK    3  A    between atoms: O_8  and  C_9
REMARK    4  A    between atoms: C_9  and  C_10
REMARK    5  A    between atoms: C_14  and  C_15
REMARK                            x       y       z     vdW  Elec       q    Type
REMARK                         _______ _______ _______ _____ _____    ______ ____
ROOT
ATOM      1  C   UNL     1      44.032   6.551  11.500  0.00  0.00    +0.000 C 
ENDROOT
BRANCH   1   2
ATOM      2  C   UNL     1      43.998   5.112  11.045  0.00  0.00    +0.000 A 
ATOM      3  C   UNL     1      43.264   4.160  11.753  0.00  0.00    +0.000 A 
ATOM      4  C   UNL     1      43.307   2.843  11.329  0.00  0.00    +0.000 A 
ATOM      5  N   UNL     1      44.033   2.414  10.272  0.00  0.00    +0.000 NA
ATOM      6  C   UNL     1      44.771   3.330   9.601  0.00  0.00    +0.000 A 
ATOM      7  C   UNL     1      44.766   4.679   9.961  0.00  0.00    +0.000 A 
BRANCH   6   8
ATOM      8  C   UNL     1      45.577   2.824   8.480  0.00  0.00    +0.000 A 
ATOM      9  C   UNL     1      46.066   1.513   8.463  0.00  0.00    +0.000 A 
ATOM     10  N   UNL     1      46.786   0.960   7.450  0.00  0.00    +0.000 NA
ATOM     11  C   UNL     1      47.050   1.761   6.395  0.00  0.00    +0.000 A 
ATOM     12  C   UNL     1      46.634   3.075   6.318  0.00  0.00    +0.000 A 
ATOM     13  F   UNL     1      46.926   3.826   5.249  0.00  0.00    +0.000 F 
ATOM     14  C   UNL     1      45.899   3.613   7.364  0.00  0.00    +0.000 A 
ENDBRANCH   6   8
ENDBRANCH   1   2
BRANCH   1  15
ATOM     15  O   UNL     1      45.233   7.187  11.045  0.00  0.00    +0.000 OA
BRANCH  15  19
ATOM     16  C   UNL     1      48.092   7.389  13.998  0.00  0.00    +0.000 A 
ATOM     17  C   UNL     1      47.159   8.421  13.870  0.00  0.00    +0.000 A 
ATOM     18  C   UNL     1      46.194   8.345  12.864  0.00  0.00    +0.000 A 
ATOM     19  C   UNL     1      46.198   7.237  12.029  0.00  0.00    +0.000 A 
ATOM     20  N   UNL     1      47.091   6.229  12.126  0.00  0.00    +0.000 NA
ATOM     21  C   UNL     1      48.023   6.332  13.102  0.00  0.00    +0.000 A 
BRANCH  16  23
ATOM     22  N   UNL     1      50.451   7.348  14.570  0.00  0.00    +0.000 N 
ATOM     23  C   UNL     1      49.161   7.375  15.015  0.00  0.00    +0.000 C 
ATOM     24  O   UNL     1      48.902   7.425  16.210  0.00  0.00    +0.000 OA
ATOM     25  H   UNL     1      51.168   7.448  15.279  0.00  0.00    +0.000 HD
ATOM     26  H   UNL     1      50.706   7.563  13.617  0.00  0.00    +0.000 HD
ENDBRANCH  16  23
ENDBRANCH  15  19
ENDBRANCH   1  15
TORSDOF 5
ENDMDL
MODEL 8
REMARK VINA RESULT:    -6.919      4.264      7.872
REMARK INTER + INTRA:          -9.691
REMARK INTER:                  -8.985
REMARK INTRA:                  -0.706
REMARK UNBOUND:                -0.749
REMARK  Name = 
REMARK  5 active torsions:
REMARK  status: ('A' for Active; 'I' for Inactive)
REMARK    1  A    between atoms: C_2  and  C_4
REMARK    2  A    between atoms: C_7  and  O_8
REMARK    3  A    between atoms: O_8  and  C_9
REMARK    4  A    between atoms: C_9  and  C_10
REMARK    5  A    between atoms: C_14  and  C_15
REMARK                            x       y       z     vdW  Elec       q    Type
REMARK                         _______ _______ _______ _____ _____    ______ ____
ROOT
ATOM      1  C   UNL     1      48.800   6.527  15.851  0.00  0.00    +0.000 C 
ENDROOT
BRANCH   1   2
ATOM      2  C   UNL     1      48.307   6.594  14.426  0.00  0.00    +0.000 A 
ATOM      3  C   UNL     1      48.811   7.549  13.543  0.00  0.00    +0.000 A 
ATOM      4  C   UNL     1      48.289   7.607  12.263  0.00  0.00    +0.000 A 
ATOM      5  N   UNL     1      47.302   6.799  11.814  0.00  0.00    +0.000 NA
ATOM      6  C   UNL     1      46.789   5.890  12.677  0.00  0.00    +0.000 A 
ATOM      7  C   UNL     1      47.276   5.764  13.979  0.00  0.00    +0.000 A 
BRANCH   6   8
ATOM      8  C   UNL     1      45.693   5.053  12.168  0.00  0.00    +0.000 A 
ATOM      9  C   UNL     1      45.003   4.163  12.999  0.00  0.00    +0.000 A 
ATOM     10  N   UNL     1      43.957   3.383  12.614  0.00  0.00    +0.000 NA
ATOM     11  C   UNL     1      43.582   3.481  11.319  0.00  0.00    +0.000 A 
ATOM     12  C   UNL     1      44.206   4.309  10.409  0.00  0.00    +0.000 A 
ATOM     13  F   UNL     1      43.795   4.364   9.136  0.00  0.00    +0.000 F 
ATOM     14  C   UNL     1      45.268   5.096  10.830  0.00  0.00    +0.000 A 
ENDBRANCH   6   8
ENDBRANCH   1   2
BRANCH   1  15
ATOM     15  O   UNL     1      48.218   5.406  16.527  0.00  0.00    +0.000 OA
BRANCH  15  19
ATOM     16  C   UNL     1      50.970   2.480  17.422  0.00  0.00    +0.000 A 
ATOM     17  C   UNL     1      49.652   2.121  17.130  0.00  0.00    +0.000 A 
ATOM     18  C   UNL     1      48.724   3.120  16.829  0.00  0.00    +0.000 A 
ATOM     19  C   UNL     1      49.154   4.439  16.828  0.00  0.00    +0.000 A 
ATOM     20  N   UNL     1      50.419   4.815  17.113  0.00  0.00    +0.000 NA
ATOM     21  C   UNL     1      51.296   3.829  17.413  0.00  0.00    +0.000 A 
BRANCH  16  23
ATOM     22  N   UNL     1      51.632   0.244  18.098  0.00  0.00    +0.000 N 
ATOM     23  C   UNL     1      52.025   1.508  17.767  0.00  0.00    +0.000 C 
ATOM     24  O   UNL     1      53.210   1.814  17.718  0.00  0.00    +0.000 OA
ATOM     25  H   UNL     1      52.375  -0.434  18.225  0.00  0.00    +0.000 HD
ATOM     26  H   UNL     1      50.707  -0.111  17.903  0.00  0.00    +0.000 HD
ENDBRANCH  16  23
ENDBRANCH  15  19
ENDBRANCH   1  15
TORSDOF 5
ENDMDL
MODEL 9
REMARK VINA RESULT:    -6.757      3.782      8.180
REMARK INTER + INTRA:          -9.481
REMARK INTER:                  -8.831
REMARK INTRA:                  -0.650
REMARK UNBOUND:                -0.749
REMARK  Name = 
REMARK  5 active torsions:
REMARK  status: ('A' for Active; 'I' for Inactive)
REMARK    1  A    between atoms: C_2  and  C_4
REMARK    2  A    between atoms: C_7  and  O_8
REMARK    3  A    between atoms: O_8  and  C_9
REMARK    4  A    between atoms: C_9  and  C_10
REMARK    5  A    between atoms: C_14  and  C_15
REMARK                            x       y       z     vdW  Elec       q    Type
REMARK                         _______ _______ _______ _____ _____    ______ ____
ROOT
ATOM      1  C   UNL     1      47.961   7.573  13.780  0.00  0.00    +0.000 C 
ENDROOT
BRANCH   1   2
ATOM      2  C   UNL     1      46.802   7.495  12.817  0.00  0.00    +0.000 A 
ATOM      3  C   UNL     1      45.899   8.552  12.702  0.00  0.00    +0.000 A 
ATOM      4  C   UNL     1      44.822   8.412  11.846  0.00  0.00    +0.000 A 
ATOM      5  N   UNL     1      44.577   7.300  11.117  0.00  0.00    +0.000 NA
ATOM      6  C   UNL     1      45.435   6.259  11.247  0.00  0.00    +0.000 A 
ATOM      7  C   UNL     1      46.552   6.334  12.081  0.00  0.00    +0.000 A 
BRANCH   6   8
ATOM      8  C   UNL     1      45.119   5.052  10.469  0.00  0.00    +0.000 A 
ATOM      9  C   UNL     1      44.346   4.016  11.004  0.00  0.00    +0.000 A 
ATOM     10  N   UNL     1      43.982   2.887  10.339  0.00  0.00    +0.000 NA
ATOM     11  C   UNL     1      44.424   2.773   9.067  0.00  0.00    +0.000 A 
ATOM     12  C   UNL     1      45.209   3.724   8.448  0.00  0.00    +0.000 A 
ATOM     13  F   UNL     1      45.622   3.558   7.185  0.00  0.00    +0.000 F 
ATOM     14  C   UNL     1      45.563   4.867   9.149  0.00  0.00    +0.000 A 
ENDBRANCH   6   8
ENDBRANCH   1   2
BRANCH   1  15
ATOM     15  O   UNL     1      48.540   6.276  13.968  0.00  0.00    +0.000 OA
BRANCH  15  19
ATOM     16  C   UNL     1      48.405   5.106  17.911  0.00  0.00    +0.000 A 
ATOM     17  C   UNL     1      49.132   6.244  17.554  0.00  0.00    +0.000 A 
ATOM     18  C   UNL     1      49.174   6.632  16.213  0.00  0.00    +0.000 A 
ATOM     19  C   UNL     1      48.483   5.869  15.284  0.00  0.00    +0.000 A 
ATOM     20  N   UNL     1      47.778   4.761  15.600  0.00  0.00    +0.000 NA
ATOM     21  C   UNL     1      47.763   4.399  16.904  0.00  0.00    +0.000 A 
BRANCH  16  23
ATOM     22  N   UNL     1      48.461   3.256  19.482  0.00  0.00    +0.000 N 
ATOM     23  C   UNL     1      48.306   4.598  19.293  0.00  0.00    +0.000 C 
ATOM     24  O   UNL     1      48.130   5.358  20.237  0.00  0.00    +0.000 OA
ATOM     25  H   UNL     1      48.498   2.944  20.446  0.00  0.00    +0.000 HD
ATOM     26  H   UNL     1      48.855   2.645  18.781  0.00  0.00    +0.000 HD
ENDBRANCH  16  23
ENDBRANCH  15  19
ENDBRANCH   1  15
TORSDOF 5
ENDMDL
