MODEL 1
REMARK VINA RESULT:    -8.554      0.000      0.000
REMARK INTER + INTRA:         -10.231
REMARK INTER:                 -10.054
REMARK INTRA:                  -0.177
REMARK UNBOUND:                -0.177
REMARK  Name = 
REMARK  3 active torsions:
REMARK  status: ('A' for Active; 'I' for Inactive)
REMARK    1  A    between atoms: C_2  and  C_4
REMARK    2  A    between atoms: N_8  and  C_9
REMARK    3  A    between atoms: C_9  and  C_10
REMARK                            x       y       z     vdW  Elec       q    Type
REMARK                         _______ _______ _______ _____ _____    ______ ____
ROOT
ATOM      1  C   UNL     1      46.364   2.081   7.872  0.00  0.00    +0.000 A 
ATOM      2  C   UNL     1      46.461   3.390   7.412  0.00  0.00    +0.000 A 
ATOM      3  C   UNL     1      45.712   4.385   8.041  0.00  0.00    +0.000 A 
ATOM      4  C   UNL     1      44.910   4.066   9.142  0.00  0.00    +0.000 A 
ATOM      5  N   UNL     1      44.182   5.120   9.730  0.00  0.00    +0.000 N 
ATOM      6  N   UNL     1      44.813   2.799   9.588  0.00  0.00    +0.000 NA
ATOM      7  C   UNL     1      45.522   1.836   8.945  0.00  0.00    +0.000 A 
ATOM      8  H   UNL     1      43.462   5.421   9.081  0.00  0.00    +0.000 HD
ENDROOT
BRANCH   1  10
ATOM      9  N   UNL     1      46.719  -0.316   7.642  0.00  0.00    +0.000 N 
ATOM     10  C   UNL     1      47.076   0.945   7.248  0.00  0.00    +0.000 C 
ATOM     11  O   UNL     1      47.935   1.121   6.397  0.00  0.00    +0.000 OA
ATOM     12  H   UNL     1      47.159  -1.080   7.143  0.00  0.00    +0.000 HD
ATOM     13  H   UNL     1      45.861  -0.515   8.135  0.00  0.00    +0.000 HD
ENDBRANCH   1  10
BRANCH   5  14
ATOM     14  C   UNL     1      43.808   5.202  11.157  0.00  0.00    +0.000 C 
ATOM     15  C   UNL     1      42.725   4.323  11.758  0.00  0.00    +0.000 C 
ATOM     16  C   UNL     1      42.489   5.795  11.604  0.00  0.00    +0.000 C 
BRANCH  14  17
ATOM     17  C   UNL     1      45.036   5.460  12.036  0.00  0.00    +0.000 A 
ATOM     18  C   UNL     1      45.625   4.435  12.803  0.00  0.00    +0.000 A 
ATOM     19  C   UNL     1      46.762   4.677  13.583  0.00  0.00    +0.000 A 
ATOM     20  C   UNL     1      47.320   5.947  13.603  0.00  0.00    +0.000 A 
ATOM     21  F   UNL     1      48.422   6.175  14.330  0.00  0.00    +0.000 F 
ATOM     22  C   UNL     1      46.754   6.987  12.877  0.00  0.00    +0.000 A 
ATOM     23  C   UNL     1      45.614   6.745  12.110  0.00  0.00    +0.000 A 
ENDBRANCH  14  17
ENDBRANCH   5  14
TORSDOF 3
ENDMDL
MODEL 2
REMARK VINA RESULT:    -7.441      3.884      6.631
REMARK INTER + INTRA:          -8.923
REMARK INTER:                  -8.802
REMARK INTRA:                  -0.120
REMARK UNBOUND:                -0.177
REMARK  Name = 
REMARK  3 active torsions:
REMARK  status: ('A' for Active; 'I' for Inactive)
REMARK    1  A    between atoms: C_2  and  C_4
REMARK    2  A    between atoms: N_8  and  C_9
REMARK    3  A    between atoms: C_9  and  C_10
REMARK                            x       y       z     vdW  Elec       q    Type
REMARK                         _______ _______ _______ _____ _____    ______ ____
ROOT
ATOM      1  C   UNL     1      46.806   8.219  12.909  0.00  0.00    +0.000 A 
ATOM      2  C   UNL     1      45.570   8.614  12.408  0.00  0.00    +0.000 A 
ATOM      3  C   UNL     1      44.861   7.736  11.587  0.00  0.00    +0.000 A 
ATOM      4  C   UNL     1      45.375   6.465  11.313  0.00  0.00    +0.000 A 
ATOM      5  N   UNL     1      44.606   5.629  10.479  0.00  0.00    +0.000 N 
ATOM      6  N   UNL     1      46.572   6.080  11.795  0.00  0.00    +0.000 NA
ATOM      7  C   UNL     1      47.267   6.957  12.565  0.00  0.00    +0.000 A 
ATOM      8  H   UNL     1      44.606   6.016   9.540  0.00  0.00    +0.000 HD
ENDROOT
BRANCH   1  10
ATOM      9  N   UNL     1      47.484   9.029  15.102  0.00  0.00    +0.000 N 
ATOM     10  C   UNL     1      47.661   9.087  13.746  0.00  0.00    +0.000 C 
ATOM     11  O   UNL     1      48.508   9.815  13.251  0.00  0.00    +0.000 OA
ATOM     12  H   UNL     1      48.136   9.568  15.659  0.00  0.00    +0.000 HD
ATOM     13  H   UNL     1      46.993   8.275  15.559  0.00  0.00    +0.000 HD
ENDBRANCH   1  10
BRANCH   5  14
ATOM     14  C   UNL     1      44.579   4.154  10.545  0.00  0.00    +0.000 C 
ATOM     15  C   UNL     1      43.376   3.393  11.074  0.00  0.00    +0.000 C 
ATOM     16  C   UNL     1      44.651   3.412  11.862  0.00  0.00    +0.000 C 
BRANCH  14  17
ATOM     17  C   UNL     1      45.297   3.534   9.342  0.00  0.00    +0.000 A 
ATOM     18  C   UNL     1      45.448   2.140   9.208  0.00  0.00    +0.000 A 
ATOM     19  C   UNL     1      46.084   1.584   8.092  0.00  0.00    +0.000 A 
ATOM     20  C   UNL     1      46.574   2.419   7.098  0.00  0.00    +0.000 A 
ATOM     21  F   UNL     1      47.162   1.889   6.017  0.00  0.00    +0.000 F 
ATOM     22  C   UNL     1      46.462   3.799   7.206  0.00  0.00    +0.000 A 
ATOM     23  C   UNL     1      45.839   4.349   8.326  0.00  0.00    +0.000 A 
ENDBRANCH  14  17
ENDBRANCH   5  14
TORSDOF 3
ENDMDL
MODEL 3
REMARK VINA RESULT:    -7.338      3.872      6.704
REMARK INTER + INTRA:          -8.802
REMARK INTER:                  -8.621
REMARK INTRA:                  -0.181
REMARK UNBOUND:                -0.177
REMARK  Name = 
REMARK  3 active torsions:
REMARK  status: ('A' for Active; 'I' for Inactive)
REMARK    1  A    between atoms: C_2  and  C_4
REMARK    2  A    between atoms: N_8  and  C_9
REMARK    3  A    between atoms: C_9  and  C_10
REMARK                            x       y       z     vdW  Elec       q    Type
REMARK                         _______ _______ _______ _____ _____    ______ ____
ROOT
ATOM      1  C   UNL     1      47.214   7.917  13.556  0.00  0.00    +0.000 A 
ATOM      2  C   UNL     1      46.152   8.589  12.958  0.00  0.00    +0.000 A 
ATOM      3  C   UNL     1      45.351   7.908  12.041  0.00  0.00    +0.000 A 
ATOM      4  C   UNL     1      45.595   6.559  11.765  0.00  0.00    +0.000 A 
ATOM      5  N   UNL     1      44.747   5.932  10.831  0.00  0.00    +0.000 N 
ATOM      6  N   UNL     1      46.624   5.907  12.341  0.00  0.00    +0.000 NA
ATOM      7  C   UNL     1      47.415   6.591  13.205  0.00  0.00    +0.000 A 
ATOM      8  H   UNL     1      44.926   6.326   9.912  0.00  0.00    +0.000 HD
ENDROOT
BRANCH   1  10
ATOM      9  N   UNL     1      47.615   9.249  15.553  0.00  0.00    +0.000 N 
ATOM     10  C   UNL     1      48.152   8.557  14.502  0.00  0.00    +0.000 C 
ATOM     11  O   UNL     1      49.362   8.455  14.366  0.00  0.00    +0.000 OA
ATOM     12  H   UNL     1      48.275   9.607  16.234  0.00  0.00    +0.000 HD
ATOM     13  H   UNL     1      46.654   9.144  15.845  0.00  0.00    +0.000 HD
ENDBRANCH   1  10
BRANCH   5  14
ATOM     14  C   UNL     1      44.388   4.499  10.835  0.00  0.00    +0.000 C 
ATOM     15  C   UNL     1      43.005   4.016  11.239  0.00  0.00    +0.000 C 
ATOM     16  C   UNL     1      44.182   3.731  12.123  0.00  0.00    +0.000 C 
BRANCH  14  17
ATOM     17  C   UNL     1      45.048   3.761   9.667  0.00  0.00    +0.000 A 
ATOM     18  C   UNL     1      45.620   4.454   8.582  0.00  0.00    +0.000 A 
ATOM     19  C   UNL     1      46.243   3.769   7.532  0.00  0.00    +0.000 A 
ATOM     20  C   UNL     1      46.298   2.382   7.558  0.00  0.00    +0.000 A 
ATOM     21  F   UNL     1      46.915   1.725   6.567  0.00  0.00    +0.000 F 
ATOM     22  C   UNL     1      45.726   1.665   8.601  0.00  0.00    +0.000 A 
ATOM     23  C   UNL     1      45.096   2.351   9.639  0.00  0.00    +0.000 A 
ENDBRANCH  14  17
ENDBRANCH   5  14
TORSDOF 3
ENDMDL
MODEL 4
REMARK VINA RESULT:    -6.994      4.010      6.529
REMARK INTER + INTRA:          -8.397
REMARK INTER:                  -8.047
REMARK INTRA:                  -0.349
REMARK UNBOUND:                -0.177
REMARK  Name = 
REMARK  3 active torsions:
REMARK  status: ('A' for Active; 'I' for Inactive)
REMARK    1  A    between atoms: C_2  and  C_4
REMARK    2  A    between atoms: N_8  and  C_9
REMARK    3  A    between atoms: C_9  and  C_10
REMARK                            x       y       z     vdW  Elec       q    Type
REMARK                         _______ _______ _______ _____ _____    ______ ____
ROOT
ATOM      1  C   UNL     1      47.502   4.596  15.354  0.00  0.00    +0.000 A 
ATOM      2  C   UNL     1      47.471   5.908  14.894  0.00  0.00    +0.000 A 
ATOM      3  C   UNL     1      46.909   6.173  13.644  0.00  0.00    +0.000 A 
ATOM      4  C   UNL     1      46.351   5.134  12.893  0.00  0.00    +0.000 A 
ATOM      5  N   UNL     1      45.799   5.473  11.641  0.00  0.00    +0.000 N 
ATOM      6  N   UNL     1      46.381   3.862  13.335  0.00  0.00    +0.000 NA
ATOM      7  C   UNL     1      46.961   3.614  14.538  0.00  0.00    +0.000 A 
ATOM      8  H   UNL     1      46.551   5.746  11.016  0.00  0.00    +0.000 HD
ENDROOT
BRANCH   1  10
ATOM      9  N   UNL     1      47.479   4.579  17.787  0.00  0.00    +0.000 N 
ATOM     10  C   UNL     1      48.116   4.198  16.638  0.00  0.00    +0.000 C 
ATOM     11  O   UNL     1      49.142   3.536  16.676  0.00  0.00    +0.000 OA
ATOM     12  H   UNL     1      47.871   4.225  18.652  0.00  0.00    +0.000 HD
ATOM     13  H   UNL     1      46.520   4.893  17.805  0.00  0.00    +0.000 HD
ENDBRANCH   1  10
BRANCH   5  14
ATOM     14  C   UNL     1      44.672   4.774  10.992  0.00  0.00    +0.000 C 
ATOM     15  C   UNL     1      43.293   5.402  10.875  0.00  0.00    +0.000 C 
ATOM     16  C   UNL     1      43.503   4.231  11.786  0.00  0.00    +0.000 C 
BRANCH  14  17
ATOM     17  C   UNL     1      45.149   3.959   9.785  0.00  0.00    +0.000 A 
ATOM     18  C   UNL     1      45.730   4.575   8.660  0.00  0.00    +0.000 A 
ATOM     19  C   UNL     1      46.185   3.818   7.573  0.00  0.00    +0.000 A 
ATOM     20  C   UNL     1      46.062   2.437   7.604  0.00  0.00    +0.000 A 
ATOM     21  F   UNL     1      46.518   1.707   6.577  0.00  0.00    +0.000 F 
ATOM     22  C   UNL     1      45.475   1.796   8.688  0.00  0.00    +0.000 A 
ATOM     23  C   UNL     1      45.012   2.555   9.762  0.00  0.00    +0.000 A 
ENDBRANCH  14  17
ENDBRANCH   5  14
TORSDOF 3
ENDMDL
MODEL 5
REMARK VINA RESULT:    -6.860      1.581      2.211
REMARK INTER + INTRA:          -8.240
REMARK INTER:                  -7.796
REMARK INTRA:                  -0.444
REMARK UNBOUND:                -0.177
REMARK  Name = 
REMARK  3 active torsions:
REMARK  status: ('A' for Active; 'I' for Inactive)
REMARK    1  A    between atoms: C_2  and  C_4
REMARK    2  A    between atoms: N_8  and  C_9
REMARK    3  A    between atoms: C_9  and  C_10
REMARK                            x       y       z     vdW  Elec       q    Type
REMARK                         _______ _______ _______ _____ _____    ______ ____
ROOT
ATOM      1  C   UNL     1      46.382   3.015   7.491  0.00  0.00    +0.000 A 
ATOM      2  C   UNL     1      45.792   1.994   8.230  0.00  0.00    +0.000 A 
ATOM      3  C   UNL     1      45.255   2.291   9.484  0.00  0.00    +0.000 A 
ATOM      4  C   UNL     1      45.278   3.605   9.962  0.00  0.00    +0.000 A 
ATOM      5  N   UNL     1      44.717   3.833  11.234  0.00  0.00    +0.000 N 
ATOM      6  N   UNL     1      45.851   4.594   9.249  0.00  0.00    +0.000 NA
ATOM      7  C   UNL     1      46.399   4.285   8.046  0.00  0.00    +0.000 A 
ATOM      8  H   UNL     1      45.304   3.390  11.934  0.00  0.00    +0.000 HD
ENDROOT
BRANCH   1  10
ATOM      9  N   UNL     1      48.357   2.502   6.166  0.00  0.00    +0.000 N 
ATOM     10  C   UNL     1      47.023   2.801   6.176  0.00  0.00    +0.000 C 
ATOM     11  O   UNL     1      46.383   2.868   5.137  0.00  0.00    +0.000 OA
ATOM     12  H   UNL     1      48.756   2.277   5.262  0.00  0.00    +0.000 HD
ATOM     13  H   UNL     1      48.856   2.188   6.986  0.00  0.00    +0.000 HD
ENDBRANCH   1  10
BRANCH   5  14
ATOM     14  C   UNL     1      44.074   5.091  11.667  0.00  0.00    +0.000 C 
ATOM     15  C   UNL     1      42.756   5.103  12.423  0.00  0.00    +0.000 C 
ATOM     16  C   UNL     1      42.811   5.608  11.013  0.00  0.00    +0.000 C 
BRANCH  14  17
ATOM     17  C   UNL     1      45.117   6.122  12.108  0.00  0.00    +0.000 A 
ATOM     18  C   UNL     1      44.991   7.487  11.785  0.00  0.00    +0.000 A 
ATOM     19  C   UNL     1      45.938   8.424  12.215  0.00  0.00    +0.000 A 
ATOM     20  C   UNL     1      47.021   8.002  12.973  0.00  0.00    +0.000 A 
ATOM     21  F   UNL     1      47.916   8.900  13.407  0.00  0.00    +0.000 F 
ATOM     22  C   UNL     1      47.190   6.662  13.294  0.00  0.00    +0.000 A 
ATOM     23  C   UNL     1      46.250   5.730  12.852  0.00  0.00    +0.000 A 
ENDBRANCH  14  17
ENDBRANCH   5  14
TORSDOF 3
ENDMDL
MODEL 6
REMARK VINA RESULT:    -6.484      3.803      6.003
REMARK INTER + INTRA:          -7.798
REMARK INTER:                  -7.670
REMARK INTRA:                  -0.128
REMARK UNBOUND:                -0.177
REMARK  Name = 
REMARK  3 active torsions:
REMARK  status: ('A' for Active; 'I' for Inactive)
REMARK    1  A    between atoms: C_2  and  C_4
REMARK    2  A    between atoms: N_8  and  C_9
REMARK    3  A    between atoms: C_9  and  C_10
REMARK                            x       y       z     vdW  Elec       q    Type
REMARK                         _______ _______ _______ _____ _____    ______ ____
ROOT
ATOM      1  C   UNL     1      48.629   7.064  12.688  0.00  0.00    +0.000 A 
ATOM      2  C   UNL     1      48.393   5.953  13.492  0.00  0.00    +0.000 A 
ATOM      3  C   UNL     1      47.126   5.367  13.480  0.00  0.00    +0.000 A 
ATOM      4  C   UNL     1      46.129   5.873  12.639  0.00  0.00    +0.000 A 
ATOM      5  N   UNL     1      44.874   5.232  12.676  0.00  0.00    +0.000 N 
ATOM      6  N   UNL     1      46.355   6.949  11.862  0.00  0.00    +0.000 NA
ATOM      7  C   UNL     1      47.582   7.529  11.908  0.00  0.00    +0.000 A 
ATOM      8  H   UNL     1      44.442   5.415  13.576  0.00  0.00    +0.000 HD
ENDROOT
BRANCH   1  10
ATOM      9  N   UNL     1      50.805   7.461  11.674  0.00  0.00    +0.000 N 
ATOM     10  C   UNL     1      49.917   7.789  12.661  0.00  0.00    +0.000 C 
ATOM     11  O   UNL     1      50.173   8.663  13.475  0.00  0.00    +0.000 OA
ATOM     12  H   UNL     1      51.644   8.027  11.623  0.00  0.00    +0.000 HD
ATOM     13  H   UNL     1      50.541   6.946  10.847  0.00  0.00    +0.000 HD
ENDBRANCH   1  10
BRANCH   5  14
ATOM     14  C   UNL     1      43.934   5.137  11.541  0.00  0.00    +0.000 C 
ATOM     15  C   UNL     1      43.037   6.296  11.139  0.00  0.00    +0.000 C 
ATOM     16  C   UNL     1      42.436   5.065  11.748  0.00  0.00    +0.000 C 
BRANCH  14  17
ATOM     17  C   UNL     1      44.532   4.315  10.395  0.00  0.00    +0.000 A 
ATOM     18  C   UNL     1      44.332   2.924  10.299  0.00  0.00    +0.000 A 
ATOM     19  C   UNL     1      44.863   2.187   9.234  0.00  0.00    +0.000 A 
ATOM     20  C   UNL     1      45.599   2.837   8.254  0.00  0.00    +0.000 A 
ATOM     21  F   UNL     1      46.088   2.139   7.220  0.00  0.00    +0.000 F 
ATOM     22  C   UNL     1      45.835   4.204   8.326  0.00  0.00    +0.000 A 
ATOM     23  C   UNL     1      45.315   4.932   9.396  0.00  0.00    +0.000 A 
ENDBRANCH  14  17
ENDBRANCH   5  14
TORSDOF 3
ENDMDL
MODEL 7
REMARK VINA RESULT:    -6.019      4.846      6.827
REMARK INTER + INTRA:          -7.251
REMARK INTER:                  -7.072
REMARK INTRA:                  -0.179
REMARK UNBOUND:                -0.177
REMARK  Name = 
REMARK  3 active torsions:
REMARK  status: ('A' for Active; 'I' for Inactive)
REMARK    1  A    between atoms: C_2  and  C_4
REMARK    2  A    between atoms: N_8  and  C_9
REMARK    3  A    between atoms: C_9  and  C_10
REMARK                            x       y       z     vdW  Elec       q    Type
REMARK                         _______ _______ _______ _____ _____    ______ ____
ROOT
ATOM      1  C   UNL     1      46.048   5.448  12.400  0.00  0.00    +0.000 A 
ATOM      2  C   UNL     1      45.841   4.074  12.344  0.00  0.00    +0.000 A 
ATOM      3  C   UNL     1      46.421   3.262  13.320  0.00  0.00    +0.000 A 
ATOM      4  C   UNL     1      47.163   3.836  14.357  0.00  0.00    +0.000 A 
ATOM      5  N   UNL     1      47.719   2.958  15.309  0.00  0.00    +0.000 N 
ATOM      6  N   UNL     1      47.368   5.166  14.412  0.00  0.00    +0.000 NA
ATOM      7  C   UNL     1      46.825   5.940  13.437  0.00  0.00    +0.000 A 
ATOM      8  H   UNL     1      48.450   2.412  14.862  0.00  0.00    +0.000 HD
ENDROOT
BRANCH   1  10
ATOM      9  N   UNL     1      45.327   5.918  10.124  0.00  0.00    +0.000 N 
ATOM     10  C   UNL     1      45.522   6.393  11.392  0.00  0.00    +0.000 C 
ATOM     11  O   UNL     1      45.249   7.548  11.682  0.00  0.00    +0.000 OA
ATOM     12  H   UNL     1      44.888   6.557   9.472  0.00  0.00    +0.000 HD
ATOM     13  H   UNL     1      45.292   4.933   9.906  0.00  0.00    +0.000 HD
ENDBRANCH   1  10
BRANCH   5  14
ATOM     14  C   UNL     1      47.967   3.287  16.727  0.00  0.00    +0.000 C 
ATOM     15  C   UNL     1      46.976   2.932  17.822  0.00  0.00    +0.000 C 
ATOM     16  C   UNL     1      47.186   4.367  17.445  0.00  0.00    +0.000 C 
BRANCH  14  17
ATOM     17  C   UNL     1      49.450   3.132  17.079  0.00  0.00    +0.000 A 
ATOM     18  C   UNL     1      50.095   1.881  17.027  0.00  0.00    +0.000 A 
ATOM     19  C   UNL     1      51.457   1.755  17.327  0.00  0.00    +0.000 A 
ATOM     20  C   UNL     1      52.185   2.881  17.683  0.00  0.00    +0.000 A 
ATOM     21  F   UNL     1      53.494   2.768  17.947  0.00  0.00    +0.000 F 
ATOM     22  C   UNL     1      51.578   4.128  17.765  0.00  0.00    +0.000 A 
ATOM     23  C   UNL     1      50.218   4.246  17.477  0.00  0.00    +0.000 A 
ENDBRANCH  14  17
ENDBRANCH   5  14
TORSDOF 3
ENDMDL
MODEL 8
REMARK VINA RESULT:    -5.804      3.487      5.375
REMARK INTER + INTRA:          -6.998
REMARK INTER:                  -6.541
REMARK INTRA:                  -0.458
REMARK UNBOUND:                -0.177
REMARK  Name = 
REMARK  3 active torsions:
REMARK  status: ('A' for Active; 'I' for Inactive)
REMARK    1  A    between atoms: C_2  and  C_4
REMARK    2  A    between atoms: N_8  and  C_9
REMARK    3  A    between atoms: C_9  and  C_10
REMARK                            x       y       z     vdW  Elec       q    Type
REMARK                         _______ _______ _______ _____ _____    ______ ____
ROOT
ATOM      1  C   UNL     1      44.780   4.449  11.696  0.00  0.00    +0.000 A 
ATOM      2  C   UNL     1      44.488   5.649  11.055  0.00  0.00    +0.000 A 
ATOM      3  C   UNL     1      45.224   6.788  11.384  0.00  0.00    +0.000 A 
ATOM      4  C   UNL     1      46.264   6.705  12.316  0.00  0.00    +0.000 A 
ATOM      5  N   UNL     1      46.966   7.893  12.599  0.00  0.00    +0.000 N 
ATOM      6  N   UNL     1      46.547   5.546  12.940  0.00  0.00    +0.000 NA
ATOM      7  C   UNL     1      45.801   4.453  12.634  0.00  0.00    +0.000 A 
ATOM      8  H   UNL     1      46.347   8.527  13.095  0.00  0.00    +0.000 HD
ENDROOT
BRANCH   1  10
ATOM      9  N   UNL     1      43.727   2.428  12.549  0.00  0.00    +0.000 N 
ATOM     10  C   UNL     1      44.033   3.196  11.459  0.00  0.00    +0.000 C 
ATOM     11  O   UNL     1      43.680   2.868  10.336  0.00  0.00    +0.000 OA
ATOM     12  H   UNL     1      43.143   1.619  12.373  0.00  0.00    +0.000 HD
ATOM     13  H   UNL     1      43.768   2.777  13.495  0.00  0.00    +0.000 HD
ENDBRANCH   1  10
BRANCH   5  14
ATOM     14  C   UNL     1      48.385   7.967  13.001  0.00  0.00    +0.000 C 
ATOM     15  C   UNL     1      49.400   8.793  12.228  0.00  0.00    +0.000 C 
ATOM     16  C   UNL     1      49.479   7.296  12.198  0.00  0.00    +0.000 C 
BRANCH  14  17
ATOM     17  C   UNL     1      48.528   7.974  14.526  0.00  0.00    +0.000 A 
ATOM     18  C   UNL     1      48.152   9.089  15.300  0.00  0.00    +0.000 A 
ATOM     19  C   UNL     1      48.264   9.074  16.695  0.00  0.00    +0.000 A 
ATOM     20  C   UNL     1      48.754   7.942  17.329  0.00  0.00    +0.000 A 
ATOM     21  F   UNL     1      48.840   7.915  18.666  0.00  0.00    +0.000 F 
ATOM     22  C   UNL     1      49.155   6.831  16.598  0.00  0.00    +0.000 A 
ATOM     23  C   UNL     1      49.053   6.855  15.207  0.00  0.00    +0.000 A 
ENDBRANCH  14  17
ENDBRANCH   5  14
TORSDOF 3
ENDMDL
MODEL 9
REMARK VINA RESULT:    -5.722      6.652      8.799
REMARK INTER + INTRA:          -6.903
REMARK INTER:                  -6.407
REMARK INTRA:                  -0.495
REMARK UNBOUND:                -0.177
REMARK  Name = 
REMARK  3 active torsions:
REMARK  status: ('A' for Active; 'I' for Inactive)
REMARK    1  A    between atoms: C_2  and  C_4
REMARK    2  A    between atoms: N_8  and  C_9
REMARK    3  A    between atoms: C_9  and  C_10
REMARK                            x       y       z     vdW  Elec       q    Type
REMARK                         _______ _______ _______ _____ _____    ______ ____
ROOT
ATOM      1  C   UNL     1      52.320   1.733  17.744  0.00  0.00    +0.000 A 
ATOM      2  C   UNL     1      52.829   2.918  18.267  0.00  0.00    +0.000 A 
ATOM      3  C   UNL     1      52.085   4.091  18.131  0.00  0.00    +0.000 A 
ATOM      4  C   UNL     1      50.832   4.057  17.512  0.00  0.00    +0.000 A 
ATOM      5  N   UNL     1      50.135   5.278  17.409  0.00  0.00    +0.000 N 
ATOM      6  N   UNL     1      50.339   2.912  17.002  0.00  0.00    +0.000 NA
ATOM      7  C   UNL     1      51.087   1.785  17.112  0.00  0.00    +0.000 A 
ATOM      8  H   UNL     1      50.627   5.881  16.757  0.00  0.00    +0.000 HD
ENDROOT
BRANCH   1  10
ATOM      9  N   UNL     1      52.491  -0.565  18.526  0.00  0.00    +0.000 N 
ATOM     10  C   UNL     1      53.046   0.446  17.790  0.00  0.00    +0.000 C 
ATOM     11  O   UNL     1      54.090   0.281  17.178  0.00  0.00    +0.000 OA
ATOM     12  H   UNL     1      52.960  -1.462  18.476  0.00  0.00    +0.000 HD
ATOM     13  H   UNL     1      51.527  -0.559  18.827  0.00  0.00    +0.000 HD
ENDBRANCH   1  10
BRANCH   5  14
ATOM     14  C   UNL     1      48.665   5.419  17.400  0.00  0.00    +0.000 C 
ATOM     15  C   UNL     1      47.932   6.288  18.408  0.00  0.00    +0.000 C 
ATOM     16  C   UNL     1      47.795   4.797  18.471  0.00  0.00    +0.000 C 
BRANCH  14  17
ATOM     17  C   UNL     1      48.121   5.440  15.968  0.00  0.00    +0.000 A 
ATOM     18  C   UNL     1      47.219   4.461  15.505  0.00  0.00    +0.000 A 
ATOM     19  C   UNL     1      46.709   4.504  14.202  0.00  0.00    +0.000 A 
ATOM     20  C   UNL     1      47.098   5.528  13.350  0.00  0.00    +0.000 A 
ATOM     21  F   UNL     1      46.593   5.586  12.110  0.00  0.00    +0.000 F 
ATOM     22  C   UNL     1      48.001   6.498  13.764  0.00  0.00    +0.000 A 
ATOM     23  C   UNL     1      48.516   6.444  15.059  0.00  0.00    +0.000 A 
ENDBRANCH  14  17
ENDBRANCH   5  14
TORSDOF 3
ENDMDL
