MODEL 1
REMARK VINA RESULT:    -6.816      0.000      0.000
REMARK INTER + INTRA:          -9.027
REMARK INTER:                  -8.608
REMARK INTRA:                  -0.419
REMARK UNBOUND:                -0.419
REMARK  Name = 
REMARK  5 active torsions:
REMARK  status: ('A' for Active; 'I' for Inactive)
REMARK    1  A    between atoms: N_1  and  C_2
REMARK    2  A    between atoms: C_2  and  C_3
REMARK    3  A    between atoms: N_6  and  C_7
REMARK    4  A    between atoms: C_7  and  C_8
REMARK    5  A    between atoms: C_8  and  C_9
REMARK                            x       y       z     vdW  Elec       q    Type
REMARK                         _______ _______ _______ _____ _____    ______ ____
ROOT
ATOM      1  C   UNL     1      45.750   5.156  13.323  0.00  0.00    +0.000 C 
ATOM      2  C   UNL     1      44.627   4.124  13.172  0.00  0.00    +0.000 C 
ATOM      3  C   UNL     1      44.559   3.543  11.758  0.00  0.00    +0.000 C 
ATOM      4  N   UNL     1      44.384   4.594  10.743  0.00  0.00    +0.000 NA
ATOM      5  C   UNL     1      45.467   5.593  10.823  0.00  0.00    +0.000 C 
ATOM      6  C   UNL     1      45.585   6.212  12.218  0.00  0.00    +0.000 C 
ENDROOT
BRANCH   1   7
ATOM      7  C   UNL     1      47.126   4.458  13.324  0.00  0.00    +0.000 C 
BRANCH   7   8
ATOM      8  N   UNL     1      47.161   3.302  14.210  0.00  0.00    +0.000 NA
ATOM      9  H   UNL     1      46.395   3.371  14.879  0.00  0.00    +0.000 HD
ATOM     10  H   UNL     1      48.020   3.322  14.760  0.00  0.00    +0.000 HD
ENDBRANCH   7   8
ENDBRANCH   1   7
BRANCH   4  11
ATOM     11  C   UNL     1      44.318   4.037   9.373  0.00  0.00    +0.000 C 
BRANCH  11  12
ATOM     12  C   UNL     1      44.828   2.589   9.270  0.00  0.00    +0.000 C 
BRANCH  12  13
ATOM     13  C   UNL     1      45.793   2.396   8.133  0.00  0.00    +0.000 A 
ATOM     14  C   UNL     1      46.021   3.409   7.198  0.00  0.00    +0.000 A 
ATOM     15  C   UNL     1      46.938   3.206   6.171  0.00  0.00    +0.000 A 
ATOM     16  C   UNL     1      47.592   1.988   6.111  0.00  0.00    +0.000 A 
ATOM     17  N   UNL     1      47.387   0.980   6.985  0.00  0.00    +0.000 NA
ATOM     18  C   UNL     1      46.496   1.205   7.975  0.00  0.00    +0.000 A 
ENDBRANCH  12  13
ENDBRANCH  11  12
ENDBRANCH   4  11
TORSDOF 5
ENDMDL
MODEL 2
REMARK VINA RESULT:    -6.681      1.540      1.759
REMARK INTER + INTRA:          -8.857
REMARK INTER:                  -8.504
REMARK INTRA:                  -0.353
REMARK UNBOUND:                -0.419
REMARK  Name = 
REMARK  5 active torsions:
REMARK  status: ('A' for Active; 'I' for Inactive)
REMARK    1  A    between atoms: N_1  and  C_2
REMARK    2  A    between atoms: C_2  and  C_3
REMARK    3  A    between atoms: N_6  and  C_7
REMARK    4  A    between atoms: C_7  and  C_8
REMARK    5  A    between atoms: C_8  and  C_9
REMARK                            x       y       z     vdW  Elec       q    Type
REMARK                         _______ _______ _______ _____ _____    ______ ____
ROOT
ATOM      1  C   UNL     1      44.495   5.190  13.132  0.00  0.00    +0.000 C 
ATOM      2  C   UNL     1      45.103   3.794  12.954  0.00  0.00    +0.000 C 
ATOM      3  C   UNL     1      45.311   3.434  11.481  0.00  0.00    +0.000 C 
ATOM      4  N   UNL     1      44.055   3.512  10.718  0.00  0.00    +0.000 NA
ATOM      5  C   UNL     1      43.451   4.854  10.826  0.00  0.00    +0.000 C 
ATOM      6  C   UNL     1      43.218   5.270  12.281  0.00  0.00    +0.000 C 
ENDROOT
BRANCH   1   7
ATOM      7  C   UNL     1      45.538   6.277  12.803  0.00  0.00    +0.000 C 
BRANCH   7   8
ATOM      8  N   UNL     1      44.948   7.606  12.720  0.00  0.00    +0.000 NA
ATOM      9  H   UNL     1      44.910   8.014  13.653  0.00  0.00    +0.000 HD
ATOM     10  H   UNL     1      43.981   7.530  12.405  0.00  0.00    +0.000 HD
ENDBRANCH   7   8
ENDBRANCH   1   7
BRANCH   4  11
ATOM     11  C   UNL     1      44.251   3.165   9.292  0.00  0.00    +0.000 C 
BRANCH  11  12
ATOM     12  C   UNL     1      45.129   1.920   9.075  0.00  0.00    +0.000 C 
BRANCH  12  13
ATOM     13  C   UNL     1      46.063   2.069   7.905  0.00  0.00    +0.000 A 
ATOM     14  C   UNL     1      46.021   3.199   7.085  0.00  0.00    +0.000 A 
ATOM     15  C   UNL     1      46.914   3.316   6.025  0.00  0.00    +0.000 A 
ATOM     16  C   UNL     1      47.818   2.289   5.817  0.00  0.00    +0.000 A 
ATOM     17  N   UNL     1      47.879   1.175   6.577  0.00  0.00    +0.000 NA
ATOM     18  C   UNL     1      47.003   1.090   7.602  0.00  0.00    +0.000 A 
ENDBRANCH  12  13
ENDBRANCH  11  12
ENDBRANCH   4  11
TORSDOF 5
ENDMDL
MODEL 3
REMARK VINA RESULT:    -6.427      1.624      2.505
REMARK INTER + INTRA:          -8.536
REMARK INTER:                  -8.194
REMARK INTRA:                  -0.343
REMARK UNBOUND:                -0.419
REMARK  Name = 
REMARK  5 active torsions:
REMARK  status: ('A' for Active; 'I' for Inactive)
REMARK    1  A    between atoms: N_1  and  C_2
REMARK    2  A    between atoms: C_2  and  C_3
REMARK    3  A    between atoms: N_6  and  C_7
REMARK    4  A    between atoms: C_7  and  C_8
REMARK    5  A    between atoms: C_8  and  C_9
REMARK                            x       y       z     vdW  Elec       q    Type
REMARK                         _______ _______ _______ _____ _____    ______ ____
ROOT
ATOM      1  C   UNL     1      45.791   7.201  12.435  0.00  0.00    +0.000 C 
ATOM      2  C   UNL     1      46.729   6.538  11.421  0.00  0.00    +0.000 C 
ATOM      3  C   UNL     1      45.966   5.856  10.283  0.00  0.00    +0.000 C 
ATOM      4  N   UNL     1      45.017   4.852  10.787  0.00  0.00    +0.000 NA
ATOM      5  C   UNL     1      44.064   5.453  11.740  0.00  0.00    +0.000 C 
ATOM      6  C   UNL     1      44.771   6.152  12.905  0.00  0.00    +0.000 C 
ENDROOT
BRANCH   1   7
ATOM      7  C   UNL     1      45.155   8.469  11.830  0.00  0.00    +0.000 C 
BRANCH   7   8
ATOM      8  N   UNL     1      44.716   9.412  12.850  0.00  0.00    +0.000 NA
ATOM      9  H   UNL     1      45.362  10.200  12.877  0.00  0.00    +0.000 HD
ATOM     10  H   UNL     1      44.771   8.970  13.768  0.00  0.00    +0.000 HD
ENDBRANCH   7   8
ENDBRANCH   1   7
BRANCH   4  11
ATOM     11  C   UNL     1      44.276   4.189   9.690  0.00  0.00    +0.000 C 
BRANCH  11  12
ATOM     12  C   UNL     1      44.645   2.706   9.504  0.00  0.00    +0.000 C 
BRANCH  12  13
ATOM     13  C   UNL     1      45.588   2.486   8.354  0.00  0.00    +0.000 A 
ATOM     14  C   UNL     1      45.822   3.487   7.407  0.00  0.00    +0.000 A 
ATOM     15  C   UNL     1      46.718   3.259   6.368  0.00  0.00    +0.000 A 
ATOM     16  C   UNL     1      47.346   2.028   6.306  0.00  0.00    +0.000 A 
ATOM     17  N   UNL     1      47.135   1.030   7.191  0.00  0.00    +0.000 NA
ATOM     18  C   UNL     1      46.264   1.281   8.194  0.00  0.00    +0.000 A 
ENDBRANCH  12  13
ENDBRANCH  11  12
ENDBRANCH   4  11
TORSDOF 5
ENDMDL
MODEL 4
REMARK VINA RESULT:    -5.738      1.622      2.572
REMARK INTER + INTRA:          -7.667
REMARK INTER:                  -7.790
REMARK INTRA:                   0.123
REMARK UNBOUND:                -0.419
REMARK  Name = 
REMARK  5 active torsions:
REMARK  status: ('A' for Active; 'I' for Inactive)
REMARK    1  A    between atoms: N_1  and  C_2
REMARK    2  A    between atoms: C_2  and  C_3
REMARK    3  A    between atoms: N_6  and  C_7
REMARK    4  A    between atoms: C_7  and  C_8
REMARK    5  A    between atoms: C_8  and  C_9
REMARK                            x       y       z     vdW  Elec       q    Type
REMARK                         _______ _______ _______ _____ _____    ______ ____
ROOT
ATOM      1  C   UNL     1      43.852   5.135  12.882  0.00  0.00    +0.000 C 
ATOM      2  C   UNL     1      44.688   6.338  12.432  0.00  0.00    +0.000 C 
ATOM      3  C   UNL     1      44.962   6.326  10.927  0.00  0.00    +0.000 C 
ATOM      4  N   UNL     1      45.637   5.088  10.504  0.00  0.00    +0.000 NA
ATOM      5  C   UNL     1      44.848   3.899  10.881  0.00  0.00    +0.000 C 
ATOM      6  C   UNL     1      44.542   3.856  12.380  0.00  0.00    +0.000 C 
ENDROOT
BRANCH   1   7
ATOM      7  C   UNL     1      42.392   5.287  12.409  0.00  0.00    +0.000 C 
BRANCH   7   8
ATOM      8  N   UNL     1      42.162   6.545  11.712  0.00  0.00    +0.000 NA
ATOM      9  H   UNL     1      42.841   7.235  12.035  0.00  0.00    +0.000 HD
ATOM     10  H   UNL     1      41.244   6.912  11.965  0.00  0.00    +0.000 HD
ENDBRANCH   7   8
ENDBRANCH   1   7
BRANCH   4  11
ATOM     11  C   UNL     1      45.904   5.071   9.048  0.00  0.00    +0.000 C 
BRANCH  11  12
ATOM     12  C   UNL     1      45.138   3.969   8.294  0.00  0.00    +0.000 C 
BRANCH  12  13
ATOM     13  C   UNL     1      46.049   3.059   7.519  0.00  0.00    +0.000 A 
ATOM     14  C   UNL     1      46.609   3.460   6.303  0.00  0.00    +0.000 A 
ATOM     15  C   UNL     1      47.467   2.603   5.622  0.00  0.00    +0.000 A 
ATOM     16  C   UNL     1      47.731   1.365   6.180  0.00  0.00    +0.000 A 
ATOM     17  N   UNL     1      47.198   0.935   7.343  0.00  0.00    +0.000 NA
ATOM     18  C   UNL     1      46.372   1.789   7.986  0.00  0.00    +0.000 A 
ENDBRANCH  12  13
ENDBRANCH  11  12
ENDBRANCH   4  11
TORSDOF 5
ENDMDL
MODEL 5
REMARK VINA RESULT:    -5.657      1.464      2.135
REMARK INTER + INTRA:          -7.564
REMARK INTER:                  -7.926
REMARK INTRA:                   0.363
REMARK UNBOUND:                -0.419
REMARK  Name = 
REMARK  5 active torsions:
REMARK  status: ('A' for Active; 'I' for Inactive)
REMARK    1  A    between atoms: N_1  and  C_2
REMARK    2  A    between atoms: C_2  and  C_3
REMARK    3  A    between atoms: N_6  and  C_7
REMARK    4  A    between atoms: C_7  and  C_8
REMARK    5  A    between atoms: C_8  and  C_9
REMARK                            x       y       z     vdW  Elec       q    Type
REMARK                         _______ _______ _______ _____ _____    ______ ____
ROOT
ATOM      1  C   UNL     1      43.560   5.164  13.017  0.00  0.00    +0.000 C 
ATOM      2  C   UNL     1      42.838   5.587  11.733  0.00  0.00    +0.000 C 
ATOM      3  C   UNL     1      43.570   5.119  10.473  0.00  0.00    +0.000 C 
ATOM      4  N   UNL     1      44.954   5.615  10.430  0.00  0.00    +0.000 NA
ATOM      5  C   UNL     1      45.705   5.198  11.631  0.00  0.00    +0.000 C 
ATOM      6  C   UNL     1      45.019   5.639  12.927  0.00  0.00    +0.000 C 
ENDROOT
BRANCH   1   7
ATOM      7  C   UNL     1      43.407   3.646  13.245  0.00  0.00    +0.000 C 
BRANCH   7   8
ATOM      8  N   UNL     1      44.571   2.896  12.794  0.00  0.00    +0.000 NA
ATOM      9  H   UNL     1      45.105   2.588  13.607  0.00  0.00    +0.000 HD
ATOM     10  H   UNL     1      45.190   3.512  12.266  0.00  0.00    +0.000 HD
ENDBRANCH   7   8
ENDBRANCH   1   7
BRANCH   4  11
ATOM     11  C   UNL     1      45.668   5.166   9.213  0.00  0.00    +0.000 C 
BRANCH  11  12
ATOM     12  C   UNL     1      44.935   4.052   8.445  0.00  0.00    +0.000 C 
BRANCH  12  13
ATOM     13  C   UNL     1      45.880   3.077   7.799  0.00  0.00    +0.000 A 
ATOM     14  C   UNL     1      46.037   1.781   8.299  0.00  0.00    +0.000 A 
ATOM     15  C   UNL     1      46.902   0.897   7.663  0.00  0.00    +0.000 A 
ATOM     16  C   UNL     1      47.590   1.344   6.549  0.00  0.00    +0.000 A 
ATOM     17  N   UNL     1      47.478   2.592   6.045  0.00  0.00    +0.000 NA
ATOM     18  C   UNL     1      46.627   3.428   6.679  0.00  0.00    +0.000 A 
ENDBRANCH  12  13
ENDBRANCH  11  12
ENDBRANCH   4  11
TORSDOF 5
ENDMDL
MODEL 6
REMARK VINA RESULT:    -5.332      3.271      6.159
REMARK INTER + INTRA:          -7.153
REMARK INTER:                  -6.655
REMARK INTRA:                  -0.499
REMARK UNBOUND:                -0.419
REMARK  Name = 
REMARK  5 active torsions:
REMARK  status: ('A' for Active; 'I' for Inactive)
REMARK    1  A    between atoms: N_1  and  C_2
REMARK    2  A    between atoms: C_2  and  C_3
REMARK    3  A    between atoms: N_6  and  C_7
REMARK    4  A    between atoms: C_7  and  C_8
REMARK    5  A    between atoms: C_8  and  C_9
REMARK                            x       y       z     vdW  Elec       q    Type
REMARK                         _______ _______ _______ _____ _____    ______ ____
ROOT
ATOM      1  C   UNL     1      43.418   4.273  10.817  0.00  0.00    +0.000 C 
ATOM      2  C   UNL     1      44.474   5.056  10.029  0.00  0.00    +0.000 C 
ATOM      3  C   UNL     1      45.544   5.665  10.938  0.00  0.00    +0.000 C 
ATOM      4  N   UNL     1      44.956   6.546  11.959  0.00  0.00    +0.000 NA
ATOM      5  C   UNL     1      43.958   5.825  12.772  0.00  0.00    +0.000 C 
ATOM      6  C   UNL     1      42.859   5.192  11.915  0.00  0.00    +0.000 C 
ENDROOT
BRANCH   1   7
ATOM      7  C   UNL     1      44.011   2.951  11.345  0.00  0.00    +0.000 C 
BRANCH   7   8
ATOM      8  N   UNL     1      42.983   2.011  11.768  0.00  0.00    +0.000 NA
ATOM      9  H   UNL     1      42.273   1.941  11.038  0.00  0.00    +0.000 HD
ATOM     10  H   UNL     1      42.505   2.376  12.592  0.00  0.00    +0.000 HD
ENDBRANCH   7   8
ENDBRANCH   1   7
BRANCH   4  11
ATOM     11  C   UNL     1      45.987   7.138  12.842  0.00  0.00    +0.000 C 
BRANCH  11  12
ATOM     12  C   UNL     1      47.322   6.374  12.829  0.00  0.00    +0.000 C 
BRANCH  12  13
ATOM     13  C   UNL     1      47.514   5.525  14.055  0.00  0.00    +0.000 A 
ATOM     14  C   UNL     1      48.090   6.048  15.215  0.00  0.00    +0.000 A 
ATOM     15  C   UNL     1      48.231   5.242  16.340  0.00  0.00    +0.000 A 
ATOM     16  C   UNL     1      47.796   3.930  16.262  0.00  0.00    +0.000 A 
ATOM     17  N   UNL     1      47.249   3.384  15.155  0.00  0.00    +0.000 NA
ATOM     18  C   UNL     1      47.119   4.191  14.079  0.00  0.00    +0.000 A 
ENDBRANCH  12  13
ENDBRANCH  11  12
ENDBRANCH   4  11
TORSDOF 5
ENDMDL
MODEL 7
REMARK VINA RESULT:    -5.314      1.269      5.902
REMARK INTER + INTRA:          -7.130
REMARK INTER:                  -6.687
REMARK INTRA:                  -0.443
REMARK UNBOUND:                -0.419
REMARK  Name = 
REMARK  5 active torsions:
REMARK  status: ('A' for Active; 'I' for Inactive)
REMARK    1  A    between atoms: N_1  and  C_2
REMARK    2  A    between atoms: C_2  and  C_3
REMARK    3  A    between atoms: N_6  and  C_7
REMARK    4  A    between atoms: C_7  and  C_8
REMARK    5  A    between atoms: C_8  and  C_9
REMARK                            x       y       z     vdW  Elec       q    Type
REMARK                         _______ _______ _______ _____ _____    ______ ____
ROOT
ATOM      1  C   UNL     1      46.212   2.257   7.107  0.00  0.00    +0.000 C 
ATOM      2  C   UNL     1      45.066   3.254   6.903  0.00  0.00    +0.000 C 
ATOM      3  C   UNL     1      44.727   4.019   8.185  0.00  0.00    +0.000 C 
ATOM      4  N   UNL     1      44.383   3.110   9.289  0.00  0.00    +0.000 NA
ATOM      5  C   UNL     1      45.477   2.154   9.550  0.00  0.00    +0.000 C 
ATOM      6  C   UNL     1      45.861   1.356   8.300  0.00  0.00    +0.000 C 
ENDROOT
BRANCH   1   7
ATOM      7  C   UNL     1      47.553   3.004   7.256  0.00  0.00    +0.000 C 
BRANCH   7   8
ATOM      8  N   UNL     1      48.574   2.501   6.347  0.00  0.00    +0.000 NA
ATOM      9  H   UNL     1      48.642   3.126   5.543  0.00  0.00    +0.000 HD
ATOM     10  H   UNL     1      48.284   1.595   5.977  0.00  0.00    +0.000 HD
ENDBRANCH   7   8
ENDBRANCH   1   7
BRANCH   4  11
ATOM     11  C   UNL     1      44.055   3.845  10.532  0.00  0.00    +0.000 C 
BRANCH  11  12
ATOM     12  C   UNL     1      44.875   5.134  10.720  0.00  0.00    +0.000 C 
BRANCH  12  13
ATOM     13  C   UNL     1      45.706   5.111  11.973  0.00  0.00    +0.000 A 
ATOM     14  C   UNL     1      46.593   6.149  12.273  0.00  0.00    +0.000 A 
ATOM     15  C   UNL     1      47.329   6.109  13.452  0.00  0.00    +0.000 A 
ATOM     16  C   UNL     1      47.158   5.022  14.292  0.00  0.00    +0.000 A 
ATOM     17  N   UNL     1      46.323   3.994  14.031  0.00  0.00    +0.000 NA
ATOM     18  C   UNL     1      45.617   4.061  12.881  0.00  0.00    +0.000 A 
ENDBRANCH  12  13
ENDBRANCH  11  12
ENDBRANCH   4  11
TORSDOF 5
ENDMDL
MODEL 8
REMARK VINA RESULT:    -5.204      3.716      6.255
REMARK INTER + INTRA:          -6.991
REMARK INTER:                  -6.727
REMARK INTRA:                  -0.265
REMARK UNBOUND:                -0.419
REMARK  Name = 
REMARK  5 active torsions:
REMARK  status: ('A' for Active; 'I' for Inactive)
REMARK    1  A    between atoms: N_1  and  C_2
REMARK    2  A    between atoms: C_2  and  C_3
REMARK    3  A    between atoms: N_6  and  C_7
REMARK    4  A    between atoms: C_7  and  C_8
REMARK    5  A    between atoms: C_8  and  C_9
REMARK                            x       y       z     vdW  Elec       q    Type
REMARK                         _______ _______ _______ _____ _____    ______ ____
ROOT
ATOM      1  C   UNL     1      49.454   4.137  18.126  0.00  0.00    +0.000 C 
ATOM      2  C   UNL     1      49.675   5.325  17.184  0.00  0.00    +0.000 C 
ATOM      3  C   UNL     1      48.440   5.629  16.332  0.00  0.00    +0.000 C 
ATOM      4  N   UNL     1      48.021   4.461  15.542  0.00  0.00    +0.000 NA
ATOM      5  C   UNL     1      47.757   3.299  16.412  0.00  0.00    +0.000 C 
ATOM      6  C   UNL     1      48.961   2.946  17.291  0.00  0.00    +0.000 C 
ENDROOT
BRANCH   1   7
ATOM      7  C   UNL     1      48.507   4.533  19.278  0.00  0.00    +0.000 C 
BRANCH   7   8
ATOM      8  N   UNL     1      48.338   3.462  20.251  0.00  0.00    +0.000 NA
ATOM      9  H   UNL     1      48.156   3.871  21.168  0.00  0.00    +0.000 HD
ATOM     10  H   UNL     1      49.213   2.944  20.341  0.00  0.00    +0.000 HD
ENDBRANCH   7   8
ENDBRANCH   1   7
BRANCH   4  11
ATOM     11  C   UNL     1      46.827   4.749  14.716  0.00  0.00    +0.000 C 
BRANCH  11  12
ATOM     12  C   UNL     1      46.656   3.792  13.524  0.00  0.00    +0.000 C 
BRANCH  12  13
ATOM     13  C   UNL     1      45.380   4.034  12.766  0.00  0.00    +0.000 A 
ATOM     14  C   UNL     1      45.004   3.212  11.700  0.00  0.00    +0.000 A 
ATOM     15  C   UNL     1      43.806   3.449  11.035  0.00  0.00    +0.000 A 
ATOM     16  C   UNL     1      43.024   4.511  11.457  0.00  0.00    +0.000 A 
ATOM     17  N   UNL     1      43.360   5.336  12.471  0.00  0.00    +0.000 NA
ATOM     18  C   UNL     1      44.527   5.080  13.103  0.00  0.00    +0.000 A 
ENDBRANCH  12  13
ENDBRANCH  11  12
ENDBRANCH   4  11
TORSDOF 5
ENDMDL
MODEL 9
REMARK VINA RESULT:    -5.008      3.163      7.374
REMARK INTER + INTRA:          -6.744
REMARK INTER:                  -6.390
REMARK INTRA:                  -0.353
REMARK UNBOUND:                -0.419
REMARK  Name = 
REMARK  5 active torsions:
REMARK  status: ('A' for Active; 'I' for Inactive)
REMARK    1  A    between atoms: N_1  and  C_2
REMARK    2  A    between atoms: C_2  and  C_3
REMARK    3  A    between atoms: N_6  and  C_7
REMARK    4  A    between atoms: C_7  and  C_8
REMARK    5  A    between atoms: C_8  and  C_9
REMARK                            x       y       z     vdW  Elec       q    Type
REMARK                         _______ _______ _______ _____ _____    ______ ____
ROOT
ATOM      1  C   UNL     1      43.378   5.032  11.299  0.00  0.00    +0.000 C 
ATOM      2  C   UNL     1      44.214   6.316  11.258  0.00  0.00    +0.000 C 
ATOM      3  C   UNL     1      45.612   6.118  11.851  0.00  0.00    +0.000 C 
ATOM      4  N   UNL     1      45.553   5.628  13.236  0.00  0.00    +0.000 NA
ATOM      5  C   UNL     1      44.789   4.368  13.322  0.00  0.00    +0.000 C 
ATOM      6  C   UNL     1      43.378   4.505  12.742  0.00  0.00    +0.000 C 
ENDROOT
BRANCH   1   7
ATOM      7  C   UNL     1      43.897   4.018  10.260  0.00  0.00    +0.000 C 
BRANCH   7   8
ATOM      8  N   UNL     1      43.861   4.546   8.902  0.00  0.00    +0.000 NA
ATOM      9  H   UNL     1      44.276   5.477   8.895  0.00  0.00    +0.000 HD
ATOM     10  H   UNL     1      42.890   4.667   8.611  0.00  0.00    +0.000 HD
ENDBRANCH   7   8
ENDBRANCH   1   7
BRANCH   4  11
ATOM     11  C   UNL     1      46.902   5.435  13.815  0.00  0.00    +0.000 C 
BRANCH  11  12
ATOM     12  C   UNL     1      47.071   4.093  14.549  0.00  0.00    +0.000 C 
BRANCH  12  13
ATOM     13  C   UNL     1      47.623   4.260  15.938  0.00  0.00    +0.000 A 
ATOM     14  C   UNL     1      47.534   3.232  16.880  0.00  0.00    +0.000 A 
ATOM     15  C   UNL     1      48.076   3.410  18.149  0.00  0.00    +0.000 A 
ATOM     16  C   UNL     1      48.684   4.620  18.435  0.00  0.00    +0.000 A 
ATOM     17  N   UNL     1      48.776   5.642  17.558  0.00  0.00    +0.000 NA
ATOM     18  C   UNL     1      48.246   5.440  16.331  0.00  0.00    +0.000 A 
ENDBRANCH  12  13
ENDBRANCH  11  12
ENDBRANCH   4  11
TORSDOF 5
ENDMDL
