MODEL 1
REMARK VINA RESULT:    -7.854      0.000      0.000
REMARK INTER + INTRA:         -11.000
REMARK INTER:                 -10.379
REMARK INTRA:                  -0.621
REMARK UNBOUND:                -0.621
REMARK  Name = 
REMARK  6 active torsions:
REMARK  status: ('A' for Active; 'I' for Inactive)
REMARK    1  A    between atoms: N_1  and  C_2
REMARK    2  A    between atoms: C_2  and  C_3
REMARK    3  A    between atoms: C_7  and  C_8
REMARK    4  A    between atoms: C_8  and  C_9
REMARK    5  A    between atoms: C_9  and  N_10
REMARK    6  A    between atoms: C_15  and  C_16
REMARK                            x       y       z     vdW  Elec       q    Type
REMARK                         _______ _______ _______ _____ _____    ______ ____
ROOT
ATOM      1  N   UNL     1      45.028   2.929  12.424  0.00  0.00    +0.000 N 
ATOM      2  C   UNL     1      45.638   4.160  12.768  0.00  0.00    +0.000 A 
ATOM      3  C   UNL     1      46.735   4.164  13.613  0.00  0.00    +0.000 A 
ATOM      4  C   UNL     1      47.269   5.393  13.947  0.00  0.00    +0.000 A 
ATOM      5  N   UNL     1      46.788   6.562  13.491  0.00  0.00    +0.000 NA
ATOM      6  C   UNL     1      45.721   6.448  12.674  0.00  0.00    +0.000 A 
ATOM      7  N   UNL     1      45.125   5.304  12.302  0.00  0.00    +0.000 NA
ATOM      8  H   UNL     1      45.733   2.315  12.020  0.00  0.00    +0.000 HD
ENDROOT
BRANCH   6   9
ATOM      9  C   UNL     1      45.152   7.730  12.109  0.00  0.00    +0.000 C 
ATOM     10  N   UNL     1      44.079   7.583  11.262  0.00  0.00    +0.000 N 
ATOM     11  O   UNL     1      45.588   8.846  12.368  0.00  0.00    +0.000 OA
ATOM     12  H   UNL     1      43.717   6.657  11.052  0.00  0.00    +0.000 HD
ATOM     13  H   UNL     1      43.661   8.408  10.857  0.00  0.00    +0.000 HD
ENDBRANCH   6   9
BRANCH   1  14
ATOM     14  C   UNL     1      43.869   3.114  11.525  0.00  0.00    +0.000 C 
BRANCH  14  15
ATOM     15  C   UNL     1      43.931   2.200  10.291  0.00  0.00    +0.000 C 
BRANCH  15  20
ATOM     16  C   UNL     1      46.651   2.206   7.582  0.00  0.00    +0.000 A 
ATOM     17  C   UNL     1      46.728   3.574   7.289  0.00  0.00    +0.000 A 
ATOM     18  C   UNL     1      45.965   4.494   8.003  0.00  0.00    +0.000 A 
ATOM     19  C   UNL     1      45.089   4.058   8.999  0.00  0.00    +0.000 A 
ATOM     20  C   UNL     1      44.961   2.691   9.289  0.00  0.00    +0.000 A 
ATOM     21  C   UNL     1      45.761   1.776   8.581  0.00  0.00    +0.000 A 
BRANCH  16  22
ATOM     22  C   UNL     1      47.488   1.222   6.801  0.00  0.00    +0.000 C 
BRANCH  22  23
ATOM     23  N   UNL     1      48.367   1.896   5.849  0.00  0.00    +0.000 NA
ATOM     24  H   UNL     1      49.004   2.507   6.355  0.00  0.00    +0.000 HD
ATOM     25  H   UNL     1      47.802   2.495   5.249  0.00  0.00    +0.000 HD
ENDBRANCH  22  23
ENDBRANCH  16  22
ENDBRANCH  15  20
ENDBRANCH  14  15
ENDBRANCH   1  14
TORSDOF 6
ENDMDL
MODEL 2
REMARK VINA RESULT:    -7.754      2.008      3.082
REMARK INTER + INTRA:         -10.868
REMARK INTER:                 -10.453
REMARK INTRA:                  -0.415
REMARK UNBOUND:                -0.621
REMARK  Name = 
REMARK  6 active torsions:
REMARK  status: ('A' for Active; 'I' for Inactive)
REMARK    1  A    between atoms: N_1  and  C_2
REMARK    2  A    between atoms: C_2  and  C_3
REMARK    3  A    between atoms: C_7  and  C_8
REMARK    4  A    between atoms: C_8  and  C_9
REMARK    5  A    between atoms: C_9  and  N_10
REMARK    6  A    between atoms: C_15  and  C_16
REMARK                            x       y       z     vdW  Elec       q    Type
REMARK                         _______ _______ _______ _____ _____    ______ ____
ROOT
ATOM      1  N   UNL     1      45.386   6.030  10.589  0.00  0.00    +0.000 N 
ATOM      2  C   UNL     1      46.164   6.167  11.765  0.00  0.00    +0.000 A 
ATOM      3  C   UNL     1      46.849   7.348  11.995  0.00  0.00    +0.000 A 
ATOM      4  C   UNL     1      47.623   7.416  13.137  0.00  0.00    +0.000 A 
ATOM      5  N   UNL     1      47.732   6.412  14.023  0.00  0.00    +0.000 NA
ATOM      6  C   UNL     1      47.025   5.307  13.707  0.00  0.00    +0.000 A 
ATOM      7  N   UNL     1      46.257   5.141  12.618  0.00  0.00    +0.000 NA
ATOM      8  H   UNL     1      44.711   6.793  10.552  0.00  0.00    +0.000 HD
ENDROOT
BRANCH   6   9
ATOM      9  C   UNL     1      47.090   4.152  14.681  0.00  0.00    +0.000 C 
ATOM     10  N   UNL     1      46.722   4.441  15.973  0.00  0.00    +0.000 N 
ATOM     11  O   UNL     1      47.440   3.018  14.375  0.00  0.00    +0.000 OA
ATOM     12  H   UNL     1      46.429   5.382  16.222  0.00  0.00    +0.000 HD
ATOM     13  H   UNL     1      46.747   3.705  16.663  0.00  0.00    +0.000 HD
ENDBRANCH   6   9
BRANCH   1  14
ATOM     14  C   UNL     1      44.736   4.705  10.503  0.00  0.00    +0.000 C 
BRANCH  14  15
ATOM     15  C   UNL     1      44.235   4.389   9.085  0.00  0.00    +0.000 C 
BRANCH  15  20
ATOM     16  C   UNL     1      46.697   2.561   6.774  0.00  0.00    +0.000 A 
ATOM     17  C   UNL     1      46.720   1.291   7.366  0.00  0.00    +0.000 A 
ATOM     18  C   UNL     1      45.900   1.003   8.454  0.00  0.00    +0.000 A 
ATOM     19  C   UNL     1      45.068   1.989   8.987  0.00  0.00    +0.000 A 
ATOM     20  C   UNL     1      45.052   3.281   8.442  0.00  0.00    +0.000 A 
ATOM     21  C   UNL     1      45.862   3.549   7.324  0.00  0.00    +0.000 A 
BRANCH  16  22
ATOM     22  C   UNL     1      47.590   2.856   5.594  0.00  0.00    +0.000 C 
BRANCH  22  23
ATOM     23  N   UNL     1      48.561   1.788   5.370  0.00  0.00    +0.000 NA
ATOM     24  H   UNL     1      48.121   0.890   5.557  0.00  0.00    +0.000 HD
ATOM     25  H   UNL     1      49.319   1.888   6.044  0.00  0.00    +0.000 HD
ENDBRANCH  22  23
ENDBRANCH  16  22
ENDBRANCH  15  20
ENDBRANCH  14  15
ENDBRANCH   1  14
TORSDOF 6
ENDMDL
MODEL 3
REMARK VINA RESULT:    -6.957      1.820      2.607
REMARK INTER + INTRA:          -9.816
REMARK INTER:                  -9.504
REMARK INTRA:                  -0.311
REMARK UNBOUND:                -0.621
REMARK  Name = 
REMARK  6 active torsions:
REMARK  status: ('A' for Active; 'I' for Inactive)
REMARK    1  A    between atoms: N_1  and  C_2
REMARK    2  A    between atoms: C_2  and  C_3
REMARK    3  A    between atoms: C_7  and  C_8
REMARK    4  A    between atoms: C_8  and  C_9
REMARK    5  A    between atoms: C_9  and  N_10
REMARK    6  A    between atoms: C_15  and  C_16
REMARK                            x       y       z     vdW  Elec       q    Type
REMARK                         _______ _______ _______ _____ _____    ______ ____
ROOT
ATOM      1  N   UNL     1      43.867   5.450  11.025  0.00  0.00    +0.000 N 
ATOM      2  C   UNL     1      44.766   6.380  11.604  0.00  0.00    +0.000 A 
ATOM      3  C   UNL     1      44.537   7.737  11.447  0.00  0.00    +0.000 A 
ATOM      4  C   UNL     1      45.463   8.600  11.998  0.00  0.00    +0.000 A 
ATOM      5  N   UNL     1      46.550   8.192  12.675  0.00  0.00    +0.000 NA
ATOM      6  C   UNL     1      46.680   6.853  12.772  0.00  0.00    +0.000 A 
ATOM      7  N   UNL     1      45.842   5.936  12.261  0.00  0.00    +0.000 NA
ATOM      8  H   UNL     1      42.927   5.648  11.365  0.00  0.00    +0.000 HD
ENDROOT
BRANCH   6   9
ATOM      9  C   UNL     1      47.872   6.335  13.544  0.00  0.00    +0.000 C 
ATOM     10  N   UNL     1      47.602   5.850  14.801  0.00  0.00    +0.000 N 
ATOM     11  O   UNL     1      49.019   6.330  13.111  0.00  0.00    +0.000 OA
ATOM     12  H   UNL     1      46.650   5.852  15.156  0.00  0.00    +0.000 HD
ATOM     13  H   UNL     1      48.363   5.491  15.359  0.00  0.00    +0.000 HD
ENDBRANCH   6   9
BRANCH   1  14
ATOM     14  C   UNL     1      44.271   4.052  11.282  0.00  0.00    +0.000 C 
BRANCH  14  15
ATOM     15  C   UNL     1      43.966   3.125  10.095  0.00  0.00    +0.000 C 
BRANCH  15  20
ATOM     16  C   UNL     1      46.598   1.958   7.555  0.00  0.00    +0.000 A 
ATOM     17  C   UNL     1      47.011   3.186   7.022  0.00  0.00    +0.000 A 
ATOM     18  C   UNL     1      46.502   4.382   7.522  0.00  0.00    +0.000 A 
ATOM     19  C   UNL     1      45.547   4.367   8.541  0.00  0.00    +0.000 A 
ATOM     20  C   UNL     1      45.084   3.152   9.067  0.00  0.00    +0.000 A 
ATOM     21  C   UNL     1      45.630   1.954   8.574  0.00  0.00    +0.000 A 
BRANCH  16  22
ATOM     22  C   UNL     1      47.162   0.671   7.004  0.00  0.00    +0.000 C 
BRANCH  22  23
ATOM     23  N   UNL     1      46.816  -0.474   7.843  0.00  0.00    +0.000 NA
ATOM     24  H   UNL     1      47.465  -1.235   7.656  0.00  0.00    +0.000 HD
ATOM     25  H   UNL     1      45.890  -0.806   7.576  0.00  0.00    +0.000 HD
ENDBRANCH  22  23
ENDBRANCH  16  22
ENDBRANCH  15  20
ENDBRANCH  14  15
ENDBRANCH   1  14
TORSDOF 6
ENDMDL
MODEL 4
REMARK VINA RESULT:    -6.772      1.690      2.580
REMARK INTER + INTRA:          -9.571
REMARK INTER:                  -9.158
REMARK INTRA:                  -0.413
REMARK UNBOUND:                -0.621
REMARK  Name = 
REMARK  6 active torsions:
REMARK  status: ('A' for Active; 'I' for Inactive)
REMARK    1  A    between atoms: N_1  and  C_2
REMARK    2  A    between atoms: C_2  and  C_3
REMARK    3  A    between atoms: C_7  and  C_8
REMARK    4  A    between atoms: C_8  and  C_9
REMARK    5  A    between atoms: C_9  and  N_10
REMARK    6  A    between atoms: C_15  and  C_16
REMARK                            x       y       z     vdW  Elec       q    Type
REMARK                         _______ _______ _______ _____ _____    ______ ____
ROOT
ATOM      1  N   UNL     1      45.176   4.713  11.743  0.00  0.00    +0.000 N 
ATOM      2  C   UNL     1      46.222   5.167  12.583  0.00  0.00    +0.000 A 
ATOM      3  C   UNL     1      46.304   4.697  13.883  0.00  0.00    +0.000 A 
ATOM      4  C   UNL     1      47.319   5.200  14.673  0.00  0.00    +0.000 A 
ATOM      5  N   UNL     1      48.220   6.100  14.242  0.00  0.00    +0.000 NA
ATOM      6  C   UNL     1      48.054   6.491  12.962  0.00  0.00    +0.000 A 
ATOM      7  N   UNL     1      47.093   6.071  12.123  0.00  0.00    +0.000 NA
ATOM      8  H   UNL     1      45.206   3.695  11.704  0.00  0.00    +0.000 HD
ENDROOT
BRANCH   6   9
ATOM      9  C   UNL     1      49.053   7.485  12.415  0.00  0.00    +0.000 C 
ATOM     10  N   UNL     1      50.315   7.421  12.958  0.00  0.00    +0.000 N 
ATOM     11  O   UNL     1      48.795   8.308  11.544  0.00  0.00    +0.000 OA
ATOM     12  H   UNL     1      50.527   6.735  13.677  0.00  0.00    +0.000 HD
ATOM     13  H   UNL     1      51.021   8.062  12.628  0.00  0.00    +0.000 HD
ENDBRANCH   6   9
BRANCH   1  14
ATOM     14  C   UNL     1      45.237   5.325  10.398  0.00  0.00    +0.000 C 
BRANCH  14  15
ATOM     15  C   UNL     1      44.301   4.632   9.395  0.00  0.00    +0.000 C 
BRANCH  15  20
ATOM     16  C   UNL     1      46.488   2.649   6.941  0.00  0.00    +0.000 A 
ATOM     17  C   UNL     1      46.442   1.373   7.518  0.00  0.00    +0.000 A 
ATOM     18  C   UNL     1      45.659   1.135   8.646  0.00  0.00    +0.000 A 
ATOM     19  C   UNL     1      44.936   2.177   9.231  0.00  0.00    +0.000 A 
ATOM     20  C   UNL     1      44.994   3.473   8.699  0.00  0.00    +0.000 A 
ATOM     21  C   UNL     1      45.763   3.692   7.543  0.00  0.00    +0.000 A 
BRANCH  16  22
ATOM     22  C   UNL     1      47.339   2.889   5.717  0.00  0.00    +0.000 C 
BRANCH  22  23
ATOM     23  N   UNL     1      48.584   2.127   5.766  0.00  0.00    +0.000 NA
ATOM     24  H   UNL     1      49.368   2.769   5.849  0.00  0.00    +0.000 HD
ATOM     25  H   UNL     1      48.701   1.635   4.881  0.00  0.00    +0.000 HD
ENDBRANCH  22  23
ENDBRANCH  16  22
ENDBRANCH  15  20
ENDBRANCH  14  15
ENDBRANCH   1  14
TORSDOF 6
ENDMDL
MODEL 5
REMARK VINA RESULT:    -6.706      1.444      2.128
REMARK INTER + INTRA:          -9.483
REMARK INTER:                  -9.279
REMARK INTRA:                  -0.204
REMARK UNBOUND:                -0.621
REMARK  Name = 
REMARK  6 active torsions:
REMARK  status: ('A' for Active; 'I' for Inactive)
REMARK    1  A    between atoms: N_1  and  C_2
REMARK    2  A    between atoms: C_2  and  C_3
REMARK    3  A    between atoms: C_7  and  C_8
REMARK    4  A    between atoms: C_8  and  C_9
REMARK    5  A    between atoms: C_9  and  N_10
REMARK    6  A    between atoms: C_15  and  C_16
REMARK                            x       y       z     vdW  Elec       q    Type
REMARK                         _______ _______ _______ _____ _____    ______ ____
ROOT
ATOM      1  N   UNL     1      45.737   4.911  11.813  0.00  0.00    +0.000 N 
ATOM      2  C   UNL     1      45.927   6.250  12.235  0.00  0.00    +0.000 A 
ATOM      3  C   UNL     1      46.951   6.547  13.119  0.00  0.00    +0.000 A 
ATOM      4  C   UNL     1      47.069   7.861  13.528  0.00  0.00    +0.000 A 
ATOM      5  N   UNL     1      46.257   8.847  13.109  0.00  0.00    +0.000 NA
ATOM      6  C   UNL     1      45.295   8.453  12.249  0.00  0.00    +0.000 A 
ATOM      7  N   UNL     1      45.093   7.202  11.804  0.00  0.00    +0.000 NA
ATOM      8  H   UNL     1      46.607   4.569  11.407  0.00  0.00    +0.000 HD
ENDROOT
BRANCH   6   9
ATOM      9  C   UNL     1      44.366   9.524  11.724  0.00  0.00    +0.000 C 
ATOM     10  N   UNL     1      43.433   9.105  10.805  0.00  0.00    +0.000 N 
ATOM     11  O   UNL     1      44.409  10.699  12.071  0.00  0.00    +0.000 OA
ATOM     12  H   UNL     1      43.398   8.130  10.522  0.00  0.00    +0.000 HD
ATOM     13  H   UNL     1      42.788   9.781  10.423  0.00  0.00    +0.000 HD
ENDBRANCH   6   9
BRANCH   1  14
ATOM     14  C   UNL     1      44.596   4.777  10.883  0.00  0.00    +0.000 C 
BRANCH  14  15
ATOM     15  C   UNL     1      44.991   5.061   9.424  0.00  0.00    +0.000 C 
BRANCH  15  20
ATOM     16  C   UNL     1      46.655   2.697   6.897  0.00  0.00    +0.000 A 
ATOM     17  C   UNL     1      46.385   1.453   7.483  0.00  0.00    +0.000 A 
ATOM     18  C   UNL     1      45.616   1.369   8.641  0.00  0.00    +0.000 A 
ATOM     19  C   UNL     1      45.132   2.529   9.249  0.00  0.00    +0.000 A 
ATOM     20  C   UNL     1      45.419   3.791   8.708  0.00  0.00    +0.000 A 
ATOM     21  C   UNL     1      46.170   3.859   7.521  0.00  0.00    +0.000 A 
BRANCH  16  22
ATOM     22  C   UNL     1      47.487   2.771   5.640  0.00  0.00    +0.000 C 
BRANCH  22  23
ATOM     23  N   UNL     1      48.599   1.824   5.672  0.00  0.00    +0.000 NA
ATOM     24  H   UNL     1      48.885   1.609   4.720  0.00  0.00    +0.000 HD
ATOM     25  H   UNL     1      48.273   0.950   6.083  0.00  0.00    +0.000 HD
ENDBRANCH  22  23
ENDBRANCH  16  22
ENDBRANCH  15  20
ENDBRANCH  14  15
ENDBRANCH   1  14
TORSDOF 6
ENDMDL
MODEL 6
REMARK VINA RESULT:    -6.301      2.923      4.449
REMARK INTER + INTRA:          -8.948
REMARK INTER:                  -8.610
REMARK INTRA:                  -0.338
REMARK UNBOUND:                -0.621
REMARK  Name = 
REMARK  6 active torsions:
REMARK  status: ('A' for Active; 'I' for Inactive)
REMARK    1  A    between atoms: N_1  and  C_2
REMARK    2  A    between atoms: C_2  and  C_3
REMARK    3  A    between atoms: C_7  and  C_8
REMARK    4  A    between atoms: C_8  and  C_9
REMARK    5  A    between atoms: C_9  and  N_10
REMARK    6  A    between atoms: C_15  and  C_16
REMARK                            x       y       z     vdW  Elec       q    Type
REMARK                         _______ _______ _______ _____ _____    ______ ____
ROOT
ATOM      1  N   UNL     1      47.705   6.420  13.091  0.00  0.00    +0.000 N 
ATOM      2  C   UNL     1      48.202   6.222  14.403  0.00  0.00    +0.000 A 
ATOM      3  C   UNL     1      49.296   6.953  14.835  0.00  0.00    +0.000 A 
ATOM      4  C   UNL     1      49.764   6.694  16.108  0.00  0.00    +0.000 A 
ATOM      5  N   UNL     1      49.210   5.792  16.935  0.00  0.00    +0.000 NA
ATOM      6  C   UNL     1      48.150   5.136  16.420  0.00  0.00    +0.000 A 
ATOM      7  N   UNL     1      47.631   5.307  15.193  0.00  0.00    +0.000 NA
ATOM      8  H   UNL     1      47.487   7.407  12.969  0.00  0.00    +0.000 HD
ENDROOT
BRANCH   6   9
ATOM      9  C   UNL     1      47.471   4.124  17.315  0.00  0.00    +0.000 C 
ATOM     10  N   UNL     1      47.853   4.145  18.635  0.00  0.00    +0.000 N 
ATOM     11  O   UNL     1      46.629   3.322  16.927  0.00  0.00    +0.000 OA
ATOM     12  H   UNL     1      48.549   4.813  18.955  0.00  0.00    +0.000 HD
ATOM     13  H   UNL     1      47.430   3.490  19.276  0.00  0.00    +0.000 HD
ENDBRANCH   6   9
BRANCH   1  14
ATOM     14  C   UNL     1      46.545   5.551  12.798  0.00  0.00    +0.000 C 
BRANCH  14  15
ATOM     15  C   UNL     1      45.724   6.054  11.600  0.00  0.00    +0.000 C 
BRANCH  15  20
ATOM     16  C   UNL     1      45.283   3.684   8.612  0.00  0.00    +0.000 A 
ATOM     17  C   UNL     1      44.508   2.671   9.191  0.00  0.00    +0.000 A 
ATOM     18  C   UNL     1      44.071   2.781  10.509  0.00  0.00    +0.000 A 
ATOM     19  C   UNL     1      44.430   3.890  11.278  0.00  0.00    +0.000 A 
ATOM     20  C   UNL     1      45.238   4.902  10.738  0.00  0.00    +0.000 A 
ATOM     21  C   UNL     1      45.646   4.792   9.396  0.00  0.00    +0.000 A 
BRANCH  16  22
ATOM     22  C   UNL     1      45.746   3.551   7.181  0.00  0.00    +0.000 C 
BRANCH  22  23
ATOM     23  N   UNL     1      47.029   4.215   6.964  0.00  0.00    +0.000 NA
ATOM     24  H   UNL     1      47.032   5.108   7.452  0.00  0.00    +0.000 HD
ATOM     25  H   UNL     1      47.126   4.423   5.972  0.00  0.00    +0.000 HD
ENDBRANCH  22  23
ENDBRANCH  16  22
ENDBRANCH  15  20
ENDBRANCH  14  15
ENDBRANCH   1  14
TORSDOF 6
ENDMDL
MODEL 7
REMARK VINA RESULT:    -6.290      4.188      7.599
REMARK INTER + INTRA:          -8.934
REMARK INTER:                  -8.564
REMARK INTRA:                  -0.370
REMARK UNBOUND:                -0.621
REMARK  Name = 
REMARK  6 active torsions:
REMARK  status: ('A' for Active; 'I' for Inactive)
REMARK    1  A    between atoms: N_1  and  C_2
REMARK    2  A    between atoms: C_2  and  C_3
REMARK    3  A    between atoms: C_7  and  C_8
REMARK    4  A    between atoms: C_8  and  C_9
REMARK    5  A    between atoms: C_9  and  N_10
REMARK    6  A    between atoms: C_15  and  C_16
REMARK                            x       y       z     vdW  Elec       q    Type
REMARK                         _______ _______ _______ _____ _____    ______ ____
ROOT
ATOM      1  N   UNL     1      47.154   5.228  14.732  0.00  0.00    +0.000 N 
ATOM      2  C   UNL     1      46.332   5.345  13.584  0.00  0.00    +0.000 A 
ATOM      3  C   UNL     1      46.246   6.561  12.928  0.00  0.00    +0.000 A 
ATOM      4  C   UNL     1      45.402   6.631  11.838  0.00  0.00    +0.000 A 
ATOM      5  N   UNL     1      44.682   5.590  11.387  0.00  0.00    +0.000 NA
ATOM      6  C   UNL     1      44.838   4.452  12.094  0.00  0.00    +0.000 A 
ATOM      7  N   UNL     1      45.623   4.289  13.171  0.00  0.00    +0.000 NA
ATOM      8  H   UNL     1      48.100   5.518  14.488  0.00  0.00    +0.000 HD
ENDROOT
BRANCH   6   9
ATOM      9  C   UNL     1      44.070   3.239  11.617  0.00  0.00    +0.000 C 
ATOM     10  N   UNL     1      43.762   2.313  12.585  0.00  0.00    +0.000 N 
ATOM     11  O   UNL     1      43.726   3.060  10.455  0.00  0.00    +0.000 OA
ATOM     12  H   UNL     1      44.046   2.466  13.548  0.00  0.00    +0.000 HD
ATOM     13  H   UNL     1      43.250   1.484  12.320  0.00  0.00    +0.000 HD
ENDBRANCH   6   9
BRANCH   1  14
ATOM     14  C   UNL     1      47.118   3.867  15.307  0.00  0.00    +0.000 C 
BRANCH  14  15
ATOM     15  C   UNL     1      47.186   3.877  16.843  0.00  0.00    +0.000 C 
BRANCH  15  20
ATOM     16  C   UNL     1      50.724   2.500  17.416  0.00  0.00    +0.000 A 
ATOM     17  C   UNL     1      51.327   3.584  18.066  0.00  0.00    +0.000 A 
ATOM     18  C   UNL     1      50.586   4.721  18.382  0.00  0.00    +0.000 A 
ATOM     19  C   UNL     1      49.239   4.803  18.022  0.00  0.00    +0.000 A 
ATOM     20  C   UNL     1      48.618   3.749  17.335  0.00  0.00    +0.000 A 
ATOM     21  C   UNL     1      49.370   2.595  17.051  0.00  0.00    +0.000 A 
BRANCH  16  22
ATOM     22  C   UNL     1      51.541   1.274  17.084  0.00  0.00    +0.000 C 
BRANCH  22  23
ATOM     23  N   UNL     1      51.549   0.315  18.186  0.00  0.00    +0.000 NA
ATOM     24  H   UNL     1      50.893  -0.435  17.983  0.00  0.00    +0.000 HD
ATOM     25  H   UNL     1      51.209   0.781  19.026  0.00  0.00    +0.000 HD
ENDBRANCH  22  23
ENDBRANCH  16  22
ENDBRANCH  15  20
ENDBRANCH  14  15
ENDBRANCH   1  14
TORSDOF 6
ENDMDL
MODEL 8
REMARK VINA RESULT:    -6.260      3.316      5.415
REMARK INTER + INTRA:          -8.894
REMARK INTER:                  -8.305
REMARK INTRA:                  -0.589
REMARK UNBOUND:                -0.621
REMARK  Name = 
REMARK  6 active torsions:
REMARK  status: ('A' for Active; 'I' for Inactive)
REMARK    1  A    between atoms: N_1  and  C_2
REMARK    2  A    between atoms: C_2  and  C_3
REMARK    3  A    between atoms: C_7  and  C_8
REMARK    4  A    between atoms: C_8  and  C_9
REMARK    5  A    between atoms: C_9  and  N_10
REMARK    6  A    between atoms: C_15  and  C_16
REMARK                            x       y       z     vdW  Elec       q    Type
REMARK                         _______ _______ _______ _____ _____    ______ ____
ROOT
ATOM      1  N   UNL     1      48.957   7.599  13.969  0.00  0.00    +0.000 N 
ATOM      2  C   UNL     1      48.749   6.890  15.177  0.00  0.00    +0.000 A 
ATOM      3  C   UNL     1      49.039   7.501  16.385  0.00  0.00    +0.000 A 
ATOM      4  C   UNL     1      48.854   6.752  17.530  0.00  0.00    +0.000 A 
ATOM      5  N   UNL     1      48.405   5.486  17.527  0.00  0.00    +0.000 NA
ATOM      6  C   UNL     1      48.151   4.985  16.301  0.00  0.00    +0.000 A 
ATOM      7  N   UNL     1      48.310   5.627  15.133  0.00  0.00    +0.000 NA
ATOM      8  H   UNL     1      48.435   8.473  14.008  0.00  0.00    +0.000 HD
ENDROOT
BRANCH   6   9
ATOM      9  C   UNL     1      47.619   3.570  16.237  0.00  0.00    +0.000 C 
ATOM     10  N   UNL     1      46.929   3.143  17.346  0.00  0.00    +0.000 N 
ATOM     11  O   UNL     1      47.771   2.824  15.276  0.00  0.00    +0.000 OA
ATOM     12  H   UNL     1      46.801   3.765  18.139  0.00  0.00    +0.000 HD
ATOM     13  H   UNL     1      46.552   2.207  17.355  0.00  0.00    +0.000 HD
ENDBRANCH   6   9
BRANCH   1  14
ATOM     14  C   UNL     1      48.606   6.792  12.781  0.00  0.00    +0.000 C 
BRANCH  14  15
ATOM     15  C   UNL     1      47.475   7.425  11.954  0.00  0.00    +0.000 C 
BRANCH  15  20
ATOM     16  C   UNL     1      44.860   4.946  10.629  0.00  0.00    +0.000 A 
ATOM     17  C   UNL     1      44.138   4.675  11.798  0.00  0.00    +0.000 A 
ATOM     18  C   UNL     1      44.442   5.335  12.987  0.00  0.00    +0.000 A 
ATOM     19  C   UNL     1      45.494   6.252  13.031  0.00  0.00    +0.000 A 
ATOM     20  C   UNL     1      46.261   6.515  11.886  0.00  0.00    +0.000 A 
ATOM     21  C   UNL     1      45.923   5.865  10.686  0.00  0.00    +0.000 A 
BRANCH  16  22
ATOM     22  C   UNL     1      44.516   4.225   9.348  0.00  0.00    +0.000 C 
BRANCH  22  23
ATOM     23  N   UNL     1      45.390   4.626   8.249  0.00  0.00    +0.000 NA
ATOM     24  H   UNL     1      45.525   5.634   8.279  0.00  0.00    +0.000 HD
ATOM     25  H   UNL     1      44.923   4.420   7.368  0.00  0.00    +0.000 HD
ENDBRANCH  22  23
ENDBRANCH  16  22
ENDBRANCH  15  20
ENDBRANCH  14  15
ENDBRANCH   1  14
TORSDOF 6
ENDMDL
MODEL 9
REMARK VINA RESULT:    -6.185      2.815      6.845
REMARK INTER + INTRA:          -8.794
REMARK INTER:                  -8.291
REMARK INTRA:                  -0.503
REMARK UNBOUND:                -0.621
REMARK  Name = 
REMARK  6 active torsions:
REMARK  status: ('A' for Active; 'I' for Inactive)
REMARK    1  A    between atoms: N_1  and  C_2
REMARK    2  A    between atoms: C_2  and  C_3
REMARK    3  A    between atoms: C_7  and  C_8
REMARK    4  A    between atoms: C_8  and  C_9
REMARK    5  A    between atoms: C_9  and  N_10
REMARK    6  A    between atoms: C_15  and  C_16
REMARK                            x       y       z     vdW  Elec       q    Type
REMARK                         _______ _______ _______ _____ _____    ______ ____
ROOT
ATOM      1  N   UNL     1      45.561   5.840  13.299  0.00  0.00    +0.000 N 
ATOM      2  C   UNL     1      44.905   4.984  12.380  0.00  0.00    +0.000 A 
ATOM      3  C   UNL     1      43.929   4.114  12.837  0.00  0.00    +0.000 A 
ATOM      4  C   UNL     1      43.347   3.275  11.907  0.00  0.00    +0.000 A 
ATOM      5  N   UNL     1      43.671   3.272  10.602  0.00  0.00    +0.000 NA
ATOM      6  C   UNL     1      44.630   4.157  10.261  0.00  0.00    +0.000 A 
ATOM      7  N   UNL     1      45.261   5.002  11.092  0.00  0.00    +0.000 NA
ATOM      8  H   UNL     1      44.860   6.390  13.792  0.00  0.00    +0.000 HD
ENDROOT
BRANCH   6   9
ATOM      9  C   UNL     1      45.019   4.215   8.801  0.00  0.00    +0.000 C 
ATOM     10  N   UNL     1      44.298   3.400   7.960  0.00  0.00    +0.000 N 
ATOM     11  O   UNL     1      45.909   4.931   8.357  0.00  0.00    +0.000 OA
ATOM     12  H   UNL     1      43.558   2.811   8.331  0.00  0.00    +0.000 HD
ATOM     13  H   UNL     1      44.517   3.401   6.975  0.00  0.00    +0.000 HD
ENDBRANCH   6   9
BRANCH   1  14
ATOM     14  C   UNL     1      46.577   6.689  12.641  0.00  0.00    +0.000 C 
BRANCH  14  15
ATOM     15  C   UNL     1      46.803   8.015  13.385  0.00  0.00    +0.000 C 
BRANCH  15  20
ATOM     16  C   UNL     1      44.542  10.471  11.488  0.00  0.00    +0.000 A 
ATOM     17  C   UNL     1      45.455  11.491  11.188  0.00  0.00    +0.000 A 
ATOM     18  C   UNL     1      46.799  11.361  11.529  0.00  0.00    +0.000 A 
ATOM     19  C   UNL     1      47.245  10.222  12.204  0.00  0.00    +0.000 A 
ATOM     20  C   UNL     1      46.348   9.202  12.553  0.00  0.00    +0.000 A 
ATOM     21  C   UNL     1      45.000   9.333  12.175  0.00  0.00    +0.000 A 
BRANCH  16  22
ATOM     22  C   UNL     1      43.090  10.627  11.108  0.00  0.00    +0.000 C 
BRANCH  22  23
ATOM     23  N   UNL     1      42.280  11.073  12.239  0.00  0.00    +0.000 NA
ATOM     24  H   UNL     1      41.903  11.996  12.038  0.00  0.00    +0.000 HD
ATOM     25  H   UNL     1      42.884  11.175  13.053  0.00  0.00    +0.000 HD
ENDBRANCH  22  23
ENDBRANCH  16  22
ENDBRANCH  15  20
ENDBRANCH  14  15
ENDBRANCH   1  14
TORSDOF 6
ENDMDL
