MODEL 1
REMARK VINA RESULT:    -8.443      0.000      0.000
REMARK INTER + INTRA:         -13.432
REMARK INTER:                 -11.898
REMARK INTRA:                  -1.534
REMARK UNBOUND:                -1.534
REMARK  Name = 
REMARK  8 active torsions:
REMARK  status: ('A' for Active; 'I' for Inactive)
REMARK    1  A    between atoms: C_1  and  C_2
REMARK    2  A    between atoms: C_5  and  C_6
REMARK    3  A    between atoms: C_8  and  N_9
REMARK    4  A    between atoms: N_9  and  C_10
REMARK    5  A    between atoms: C_10  and  C_11
REMARK    6  A    between atoms: C_11  and  C_14
REMARK    7  A    between atoms: C_17  and  C_18
REMARK    8  A    between atoms: C_24  and  C_25
REMARK                            x       y       z     vdW  Elec       q    Type
REMARK                         _______ _______ _______ _____ _____    ______ ____
ROOT
ATOM      1  N   UNL     1      45.759   3.177  12.524  0.00  0.00    +0.000 N 
ATOM      2  H   UNL     1      46.318   2.938  11.703  0.00  0.00    +0.000 HD
ENDROOT
BRANCH   1   5
ATOM      3  C   UNL     1      47.527   6.237  13.691  0.00  0.00    +0.000 A 
ATOM      4  C   UNL     1      46.816   5.325  12.891  0.00  0.00    +0.000 A 
ATOM      5  C   UNL     1      46.423   4.070  13.379  0.00  0.00    +0.000 A 
ATOM      6  C   UNL     1      46.813   3.724  14.679  0.00  0.00    +0.000 A 
ATOM      7  C   UNL     1      47.528   4.606  15.498  0.00  0.00    +0.000 A 
ATOM      8  C   UNL     1      47.888   5.855  14.987  0.00  0.00    +0.000 A 
BRANCH   3  13
ATOM      9  C   UNL     1      44.947  11.010  11.777  0.00  0.00    +0.000 C 
ATOM     10  C   UNL     1      45.837   9.783  11.688  0.00  0.00    +0.000 C 
ATOM     11  C   UNL     1      45.554   8.693  12.747  0.00  0.00    +0.000 C 
ATOM     12  C   UNL     1      47.064   8.540  12.778  0.00  0.00    +0.000 C 
ATOM     13  C   UNL     1      47.898   7.555  13.149  0.00  0.00    +0.000 C 
ATOM     14  C   UNL     1      47.292   9.929  12.207  0.00  0.00    +0.000 C 
ENDBRANCH   3  13
BRANCH   7  15
ATOM     15  C   UNL     1      47.900   4.222  16.904  0.00  0.00    +0.000 C 
ATOM     16  F   UNL     1      48.002   2.875  17.094  0.00  0.00    +0.000 F 
ATOM     17  F   UNL     1      49.096   4.743  17.292  0.00  0.00    +0.000 F 
ATOM     18  F   UNL     1      46.988   4.655  17.820  0.00  0.00    +0.000 F 
ENDBRANCH   7  15
ENDBRANCH   1   5
BRANCH   1  19
ATOM     19  C   UNL     1      44.333   3.437  12.216  0.00  0.00    +0.000 C 
BRANCH  19  20
ATOM     20  C   UNL     1      44.073   4.288  10.954  0.00  0.00    +0.000 C 
ATOM     21  F   UNL     1      42.733   4.255  10.677  0.00  0.00    +0.000 F 
ATOM     22  F   UNL     1      44.348   5.599  11.238  0.00  0.00    +0.000 F 
BRANCH  20  23
ATOM     23  C   UNL     1      44.913   3.764   9.787  0.00  0.00    +0.000 A 
ATOM     24  C   UNL     1      45.531   4.666   8.924  0.00  0.00    +0.000 A 
ATOM     25  C   UNL     1      46.293   4.178   7.861  0.00  0.00    +0.000 A 
ATOM     26  C   UNL     1      46.425   2.801   7.664  0.00  0.00    +0.000 A 
ATOM     27  C   UNL     1      45.777   1.972   8.564  0.00  0.00    +0.000 A 
ATOM     28  N   UNL     1      45.028   2.416   9.606  0.00  0.00    +0.000 NA
BRANCH  26  29
ATOM     29  C   UNL     1      47.236   2.310   6.525  0.00  0.00    +0.000 C 
ATOM     30  N   UNL     1      47.189   2.975   5.331  0.00  0.00    +0.000 N 
ATOM     31  O   UNL     1      47.944   1.318   6.636  0.00  0.00    +0.000 OA
ATOM     32  H   UNL     1      46.651   3.804   5.126  0.00  0.00    +0.000 HD
ATOM     33  H   UNL     1      47.764   2.602   4.587  0.00  0.00    +0.000 HD
ENDBRANCH  26  29
ENDBRANCH  20  23
ENDBRANCH  19  20
ENDBRANCH   1  19
TORSDOF 7
ENDMDL
MODEL 2
REMARK VINA RESULT:    -8.170      1.387      2.061
REMARK INTER + INTRA:         -13.047
REMARK INTER:                 -11.509
REMARK INTRA:                  -1.538
REMARK UNBOUND:                -1.534
REMARK  Name = 
REMARK  8 active torsions:
REMARK  status: ('A' for Active; 'I' for Inactive)
REMARK    1  A    between atoms: C_1  and  C_2
REMARK    2  A    between atoms: C_5  and  C_6
REMARK    3  A    between atoms: C_8  and  N_9
REMARK    4  A    between atoms: N_9  and  C_10
REMARK    5  A    between atoms: C_10  and  C_11
REMARK    6  A    between atoms: C_11  and  C_14
REMARK    7  A    between atoms: C_17  and  C_18
REMARK    8  A    between atoms: C_24  and  C_25
REMARK                            x       y       z     vdW  Elec       q    Type
REMARK                         _______ _______ _______ _____ _____    ______ ____
ROOT
ATOM      1  N   UNL     1      45.652   3.488  12.509  0.00  0.00    +0.000 N 
ATOM      2  H   UNL     1      46.184   3.143  11.708  0.00  0.00    +0.000 HD
ENDROOT
BRANCH   1   5
ATOM      3  C   UNL     1      47.463   6.612  13.408  0.00  0.00    +0.000 A 
ATOM      4  C   UNL     1      46.698   5.663  12.708  0.00  0.00    +0.000 A 
ATOM      5  C   UNL     1      46.375   4.418  13.270  0.00  0.00    +0.000 A 
ATOM      6  C   UNL     1      46.892   4.122  14.538  0.00  0.00    +0.000 A 
ATOM      7  C   UNL     1      47.663   5.041  15.258  0.00  0.00    +0.000 A 
ATOM      8  C   UNL     1      47.951   6.278  14.676  0.00  0.00    +0.000 A 
BRANCH   3  13
ATOM      9  C   UNL     1      51.746   9.178  10.550  0.00  0.00    +0.000 C 
ATOM     10  C   UNL     1      50.752   8.987  11.683  0.00  0.00    +0.000 C 
ATOM     11  C   UNL     1      50.179   7.557  11.813  0.00  0.00    +0.000 C 
ATOM     12  C   UNL     1      48.879   8.267  12.142  0.00  0.00    +0.000 C 
ATOM     13  C   UNL     1      47.758   7.917  12.793  0.00  0.00    +0.000 C 
ATOM     14  C   UNL     1      49.323   9.555  11.469  0.00  0.00    +0.000 C 
ENDBRANCH   3  13
BRANCH   7  15
ATOM     15  C   UNL     1      48.171   4.709  16.635  0.00  0.00    +0.000 C 
ATOM     16  F   UNL     1      47.222   4.814  17.607  0.00  0.00    +0.000 F 
ATOM     17  F   UNL     1      48.656   3.440  16.724  0.00  0.00    +0.000 F 
ATOM     18  F   UNL     1      49.189   5.527  17.023  0.00  0.00    +0.000 F 
ENDBRANCH   7  15
ENDBRANCH   1   5
BRANCH   1  19
ATOM     19  C   UNL     1      44.237   3.795  12.193  0.00  0.00    +0.000 C 
BRANCH  19  20
ATOM     20  C   UNL     1      43.991   4.432  10.808  0.00  0.00    +0.000 C 
ATOM     21  F   UNL     1      42.657   4.332  10.516  0.00  0.00    +0.000 F 
ATOM     22  F   UNL     1      44.241   5.775  10.887  0.00  0.00    +0.000 F 
BRANCH  20  23
ATOM     23  C   UNL     1      44.862   3.745   9.754  0.00  0.00    +0.000 A 
ATOM     24  C   UNL     1      45.600   4.519   8.861  0.00  0.00    +0.000 A 
ATOM     25  C   UNL     1      46.390   3.882   7.902  0.00  0.00    +0.000 A 
ATOM     26  C   UNL     1      46.430   2.487   7.836  0.00  0.00    +0.000 A 
ATOM     27  C   UNL     1      45.665   1.792   8.757  0.00  0.00    +0.000 A 
ATOM     28  N   UNL     1      44.887   2.382   9.701  0.00  0.00    +0.000 NA
BRANCH  26  29
ATOM     29  C   UNL     1      47.274   1.838   6.805  0.00  0.00    +0.000 C 
ATOM     30  N   UNL     1      48.254   2.563   6.186  0.00  0.00    +0.000 N 
ATOM     31  O   UNL     1      47.103   0.666   6.497  0.00  0.00    +0.000 OA
ATOM     32  H   UNL     1      48.490   3.528   6.362  0.00  0.00    +0.000 HD
ATOM     33  H   UNL     1      48.804   2.073   5.493  0.00  0.00    +0.000 HD
ENDBRANCH  26  29
ENDBRANCH  20  23
ENDBRANCH  19  20
ENDBRANCH   1  19
TORSDOF 7
ENDMDL
MODEL 3
REMARK VINA RESULT:    -8.137      2.992      4.400
REMARK INTER + INTRA:         -13.001
REMARK INTER:                 -11.657
REMARK INTRA:                  -1.344
REMARK UNBOUND:                -1.534
REMARK  Name = 
REMARK  8 active torsions:
REMARK  status: ('A' for Active; 'I' for Inactive)
REMARK    1  A    between atoms: C_1  and  C_2
REMARK    2  A    between atoms: C_5  and  C_6
REMARK    3  A    between atoms: C_8  and  N_9
REMARK    4  A    between atoms: N_9  and  C_10
REMARK    5  A    between atoms: C_10  and  C_11
REMARK    6  A    between atoms: C_11  and  C_14
REMARK    7  A    between atoms: C_17  and  C_18
REMARK    8  A    between atoms: C_24  and  C_25
REMARK                            x       y       z     vdW  Elec       q    Type
REMARK                         _______ _______ _______ _____ _____    ______ ____
ROOT
ATOM      1  N   UNL     1      44.536   4.691  12.918  0.00  0.00    +0.000 N 
ATOM      2  H   UNL     1      44.348   4.498  13.903  0.00  0.00    +0.000 HD
ENDROOT
BRANCH   1   5
ATOM      3  C   UNL     1      47.462   6.987  13.055  0.00  0.00    +0.000 A 
ATOM      4  C   UNL     1      46.652   5.843  13.164  0.00  0.00    +0.000 A 
ATOM      5  C   UNL     1      45.315   5.845  12.741  0.00  0.00    +0.000 A 
ATOM      6  C   UNL     1      44.786   7.048  12.256  0.00  0.00    +0.000 A 
ATOM      7  C   UNL     1      45.563   8.206  12.142  0.00  0.00    +0.000 A 
ATOM      8  C   UNL     1      46.897   8.165  12.556  0.00  0.00    +0.000 A 
BRANCH   3  13
ATOM      9  C   UNL     1      50.681   8.658  17.521  0.00  0.00    +0.000 C 
ATOM     10  C   UNL     1      50.244   8.606  16.067  0.00  0.00    +0.000 C 
ATOM     11  C   UNL     1      48.794   8.124  15.838  0.00  0.00    +0.000 C 
ATOM     12  C   UNL     1      49.378   7.406  14.636  0.00  0.00    +0.000 C 
ATOM     13  C   UNL     1      48.869   6.935  13.486  0.00  0.00    +0.000 C 
ATOM     14  C   UNL     1      50.785   7.430  15.210  0.00  0.00    +0.000 C 
ENDBRANCH   3  13
BRANCH   7  15
ATOM     15  C   UNL     1      44.978   9.475  11.581  0.00  0.00    +0.000 C 
ATOM     16  F   UNL     1      45.913  10.333  11.084  0.00  0.00    +0.000 F 
ATOM     17  F   UNL     1      44.106   9.245  10.562  0.00  0.00    +0.000 F 
ATOM     18  F   UNL     1      44.286  10.185  12.515  0.00  0.00    +0.000 F 
ENDBRANCH   7  15
ENDBRANCH   1   5
BRANCH   1  19
ATOM     19  C   UNL     1      44.889   3.485  12.133  0.00  0.00    +0.000 C 
BRANCH  19  20
ATOM     20  C   UNL     1      44.011   3.225  10.890  0.00  0.00    +0.000 C 
ATOM     21  F   UNL     1      43.265   2.098  11.113  0.00  0.00    +0.000 F 
ATOM     22  F   UNL     1      43.100   4.239  10.769  0.00  0.00    +0.000 F 
BRANCH  20  23
ATOM     23  C   UNL     1      44.892   3.092   9.646  0.00  0.00    +0.000 A 
ATOM     24  C   UNL     1      45.292   4.237   8.961  0.00  0.00    +0.000 A 
ATOM     25  C   UNL     1      46.094   4.106   7.825  0.00  0.00    +0.000 A 
ATOM     26  C   UNL     1      46.481   2.839   7.381  0.00  0.00    +0.000 A 
ATOM     27  C   UNL     1      46.038   1.752   8.115  0.00  0.00    +0.000 A 
ATOM     28  N   UNL     1      45.257   1.847   9.222  0.00  0.00    +0.000 NA
BRANCH  26  29
ATOM     29  C   UNL     1      47.329   2.728   6.170  0.00  0.00    +0.000 C 
ATOM     30  N   UNL     1      48.667   2.485   6.307  0.00  0.00    +0.000 N 
ATOM     31  O   UNL     1      46.849   2.854   5.051  0.00  0.00    +0.000 OA
ATOM     32  H   UNL     1      49.169   2.357   7.174  0.00  0.00    +0.000 HD
ATOM     33  H   UNL     1      49.200   2.415   5.451  0.00  0.00    +0.000 HD
ENDBRANCH  26  29
ENDBRANCH  20  23
ENDBRANCH  19  20
ENDBRANCH   1  19
TORSDOF 7
ENDMDL
MODEL 4
REMARK VINA RESULT:    -7.956      3.081      4.554
REMARK INTER + INTRA:         -12.745
REMARK INTER:                 -11.379
REMARK INTRA:                  -1.366
REMARK UNBOUND:                -1.534
REMARK  Name = 
REMARK  8 active torsions:
REMARK  status: ('A' for Active; 'I' for Inactive)
REMARK    1  A    between atoms: C_1  and  C_2
REMARK    2  A    between atoms: C_5  and  C_6
REMARK    3  A    between atoms: C_8  and  N_9
REMARK    4  A    between atoms: N_9  and  C_10
REMARK    5  A    between atoms: C_10  and  C_11
REMARK    6  A    between atoms: C_11  and  C_14
REMARK    7  A    between atoms: C_17  and  C_18
REMARK    8  A    between atoms: C_24  and  C_25
REMARK                            x       y       z     vdW  Elec       q    Type
REMARK                         _______ _______ _______ _____ _____    ______ ____
ROOT
ATOM      1  N   UNL     1      44.369   4.991  12.850  0.00  0.00    +0.000 N 
ATOM      2  H   UNL     1      44.243   4.815  13.848  0.00  0.00    +0.000 HD
ENDROOT
BRANCH   1   5
ATOM      3  C   UNL     1      46.917   7.703  12.879  0.00  0.00    +0.000 A 
ATOM      4  C   UNL     1      46.281   6.463  13.060  0.00  0.00    +0.000 A 
ATOM      5  C   UNL     1      44.976   6.231  12.599  0.00  0.00    +0.000 A 
ATOM      6  C   UNL     1      44.297   7.300  12.001  0.00  0.00    +0.000 A 
ATOM      7  C   UNL     1      44.898   8.549  11.814  0.00  0.00    +0.000 A 
ATOM      8  C   UNL     1      46.205   8.741  12.268  0.00  0.00    +0.000 A 
BRANCH   3  13
ATOM      9  C   UNL     1      52.172   8.521  10.683  0.00  0.00    +0.000 C 
ATOM     10  C   UNL     1      51.099   7.806  11.485  0.00  0.00    +0.000 C 
ATOM     11  C   UNL     1      49.646   8.172  11.105  0.00  0.00    +0.000 C 
ATOM     12  C   UNL     1      49.391   8.093  12.599  0.00  0.00    +0.000 C 
ATOM     13  C   UNL     1      48.298   7.897  13.354  0.00  0.00    +0.000 C 
ATOM     14  C   UNL     1      50.857   8.300  12.937  0.00  0.00    +0.000 C 
ENDBRANCH   3  13
BRANCH   7  15
ATOM     15  C   UNL     1      44.157   9.668  11.133  0.00  0.00    +0.000 C 
ATOM     16  F   UNL     1      43.584  10.551  12.000  0.00  0.00    +0.000 F 
ATOM     17  F   UNL     1      44.958  10.411  10.321  0.00  0.00    +0.000 F 
ATOM     18  F   UNL     1      43.142   9.215  10.344  0.00  0.00    +0.000 F 
ENDBRANCH   7  15
ENDBRANCH   1   5
BRANCH   1  19
ATOM     19  C   UNL     1      44.856   3.812  12.096  0.00  0.00    +0.000 C 
BRANCH  19  20
ATOM     20  C   UNL     1      43.992   3.399  10.884  0.00  0.00    +0.000 C 
ATOM     21  F   UNL     1      43.310   2.257  11.207  0.00  0.00    +0.000 F 
ATOM     22  F   UNL     1      43.027   4.348  10.683  0.00  0.00    +0.000 F 
BRANCH  20  23
ATOM     23  C   UNL     1      44.878   3.209   9.651  0.00  0.00    +0.000 A 
ATOM     24  C   UNL     1      45.289   4.321   8.921  0.00  0.00    +0.000 A 
ATOM     25  C   UNL     1      46.095   4.138   7.795  0.00  0.00    +0.000 A 
ATOM     26  C   UNL     1      46.475   2.851   7.405  0.00  0.00    +0.000 A 
ATOM     27  C   UNL     1      46.022   1.798   8.182  0.00  0.00    +0.000 A 
ATOM     28  N   UNL     1      45.236   1.945   9.281  0.00  0.00    +0.000 NA
BRANCH  26  29
ATOM     29  C   UNL     1      47.327   2.684   6.205  0.00  0.00    +0.000 C 
ATOM     30  N   UNL     1      48.648   2.364   6.357  0.00  0.00    +0.000 N 
ATOM     31  O   UNL     1      46.868   2.832   5.080  0.00  0.00    +0.000 OA
ATOM     32  H   UNL     1      49.132   2.211   7.229  0.00  0.00    +0.000 HD
ATOM     33  H   UNL     1      49.185   2.258   5.507  0.00  0.00    +0.000 HD
ENDBRANCH  26  29
ENDBRANCH  20  23
ENDBRANCH  19  20
ENDBRANCH   1  19
TORSDOF 7
ENDMDL
MODEL 5
REMARK VINA RESULT:    -7.816      1.965      2.446
REMARK INTER + INTRA:         -12.548
REMARK INTER:                 -11.387
REMARK INTRA:                  -1.160
REMARK UNBOUND:                -1.534
REMARK  Name = 
REMARK  8 active torsions:
REMARK  status: ('A' for Active; 'I' for Inactive)
REMARK    1  A    between atoms: C_1  and  C_2
REMARK    2  A    between atoms: C_5  and  C_6
REMARK    3  A    between atoms: C_8  and  N_9
REMARK    4  A    between atoms: N_9  and  C_10
REMARK    5  A    between atoms: C_10  and  C_11
REMARK    6  A    between atoms: C_11  and  C_14
REMARK    7  A    between atoms: C_17  and  C_18
REMARK    8  A    between atoms: C_24  and  C_25
REMARK                            x       y       z     vdW  Elec       q    Type
REMARK                         _______ _______ _______ _____ _____    ______ ____
ROOT
ATOM      1  N   UNL     1      45.402   5.189  12.222  0.00  0.00    +0.000 N 
ATOM      2  H   UNL     1      44.801   5.993  12.036  0.00  0.00    +0.000 HD
ENDROOT
BRANCH   1   5
ATOM      3  C   UNL     1      48.058   6.869  14.215  0.00  0.00    +0.000 A 
ATOM      4  C   UNL     1      47.095   6.599  13.227  0.00  0.00    +0.000 A 
ATOM      5  C   UNL     1      46.314   5.434  13.260  0.00  0.00    +0.000 A 
ATOM      6  C   UNL     1      46.565   4.509  14.281  0.00  0.00    +0.000 A 
ATOM      7  C   UNL     1      47.522   4.743  15.275  0.00  0.00    +0.000 A 
ATOM      8  C   UNL     1      48.270   5.922  15.223  0.00  0.00    +0.000 A 
BRANCH   3  13
ATOM      9  C   UNL     1      49.313  11.341  17.610  0.00  0.00    +0.000 C 
ATOM     10  C   UNL     1      48.751  10.645  16.383  0.00  0.00    +0.000 C 
ATOM     11  C   UNL     1      48.465   9.137  16.562  0.00  0.00    +0.000 C 
ATOM     12  C   UNL     1      48.988   9.019  15.142  0.00  0.00    +0.000 C 
ATOM     13  C   UNL     1      48.839   8.117  14.159  0.00  0.00    +0.000 C 
ATOM     14  C   UNL     1      49.745  10.334  15.231  0.00  0.00    +0.000 C 
ENDBRANCH   3  13
BRANCH   7  15
ATOM     15  C   UNL     1      47.743   3.749  16.383  0.00  0.00    +0.000 C 
ATOM     16  F   UNL     1      48.150   2.524  15.944  0.00  0.00    +0.000 F 
ATOM     17  F   UNL     1      48.688   4.157  17.273  0.00  0.00    +0.000 F 
ATOM     18  F   UNL     1      46.614   3.524  17.111  0.00  0.00    +0.000 F 
ENDBRANCH   7  15
ENDBRANCH   1   5
BRANCH   1  19
ATOM     19  C   UNL     1      44.681   3.895  12.219  0.00  0.00    +0.000 C 
BRANCH  19  20
ATOM     20  C   UNL     1      43.831   3.614  10.960  0.00  0.00    +0.000 C 
ATOM     21  F   UNL     1      42.985   2.572  11.232  0.00  0.00    +0.000 F 
ATOM     22  F   UNL     1      43.014   4.687  10.727  0.00  0.00    +0.000 F 
BRANCH  20  23
ATOM     23  C   UNL     1      44.743   3.317   9.768  0.00  0.00    +0.000 A 
ATOM     24  C   UNL     1      45.030   1.996   9.434  0.00  0.00    +0.000 A 
ATOM     25  C   UNL     1      45.865   1.734   8.346  0.00  0.00    +0.000 A 
ATOM     26  C   UNL     1      46.412   2.789   7.611  0.00  0.00    +0.000 A 
ATOM     27  C   UNL     1      46.082   4.073   8.010  0.00  0.00    +0.000 A 
ATOM     28  N   UNL     1      45.273   4.358   9.063  0.00  0.00    +0.000 NA
BRANCH  26  29
ATOM     29  C   UNL     1      47.300   2.483   6.464  0.00  0.00    +0.000 C 
ATOM     30  N   UNL     1      47.237   3.261   5.341  0.00  0.00    +0.000 N 
ATOM     31  O   UNL     1      48.084   1.544   6.505  0.00  0.00    +0.000 OA
ATOM     32  H   UNL     1      46.640   4.060   5.196  0.00  0.00    +0.000 HD
ATOM     33  H   UNL     1      47.866   3.013   4.588  0.00  0.00    +0.000 HD
ENDBRANCH  26  29
ENDBRANCH  20  23
ENDBRANCH  19  20
ENDBRANCH   1  19
TORSDOF 7
ENDMDL
MODEL 6
REMARK VINA RESULT:    -7.707      2.512      4.619
REMARK INTER + INTRA:         -12.395
REMARK INTER:                 -11.328
REMARK INTRA:                  -1.067
REMARK UNBOUND:                -1.534
REMARK  Name = 
REMARK  8 active torsions:
REMARK  status: ('A' for Active; 'I' for Inactive)
REMARK    1  A    between atoms: C_1  and  C_2
REMARK    2  A    between atoms: C_5  and  C_6
REMARK    3  A    between atoms: C_8  and  N_9
REMARK    4  A    between atoms: N_9  and  C_10
REMARK    5  A    between atoms: C_10  and  C_11
REMARK    6  A    between atoms: C_11  and  C_14
REMARK    7  A    between atoms: C_17  and  C_18
REMARK    8  A    between atoms: C_24  and  C_25
REMARK                            x       y       z     vdW  Elec       q    Type
REMARK                         _______ _______ _______ _____ _____    ______ ____
ROOT
ATOM      1  N   UNL     1      45.659   3.954  12.623  0.00  0.00    +0.000 N 
ATOM      2  H   UNL     1      46.091   3.341  11.930  0.00  0.00    +0.000 HD
ENDROOT
BRANCH   1   5
ATOM      3  C   UNL     1      47.718   5.145  15.485  0.00  0.00    +0.000 A 
ATOM      4  C   UNL     1      46.816   4.403  14.703  0.00  0.00    +0.000 A 
ATOM      5  C   UNL     1      46.607   4.694  13.346  0.00  0.00    +0.000 A 
ATOM      6  C   UNL     1      47.285   5.793  12.803  0.00  0.00    +0.000 A 
ATOM      7  C   UNL     1      48.182   6.557  13.556  0.00  0.00    +0.000 A 
ATOM      8  C   UNL     1      48.381   6.229  14.900  0.00  0.00    +0.000 A 
BRANCH   3  13
ATOM      9  C   UNL     1      52.066   4.656  19.221  0.00  0.00    +0.000 C 
ATOM     10  C   UNL     1      50.881   4.178  18.401  0.00  0.00    +0.000 C 
ATOM     11  C   UNL     1      50.537   5.056  17.176  0.00  0.00    +0.000 C 
ATOM     12  C   UNL     1      49.097   4.771  17.560  0.00  0.00    +0.000 C 
ATOM     13  C   UNL     1      47.928   4.791  16.899  0.00  0.00    +0.000 C 
ATOM     14  C   UNL     1      49.467   4.428  18.993  0.00  0.00    +0.000 C 
ENDBRANCH   3  13
BRANCH   7  15
ATOM     15  C   UNL     1      48.926   7.709  12.936  0.00  0.00    +0.000 C 
ATOM     16  F   UNL     1      50.267   7.687  13.178  0.00  0.00    +0.000 F 
ATOM     17  F   UNL     1      48.794   7.750  11.581  0.00  0.00    +0.000 F 
ATOM     18  F   UNL     1      48.488   8.916  13.392  0.00  0.00    +0.000 F 
ENDBRANCH   7  15
ENDBRANCH   1   5
BRANCH   1  19
ATOM     19  C   UNL     1      44.457   4.662  12.122  0.00  0.00    +0.000 C 
BRANCH  19  20
ATOM     20  C   UNL     1      43.666   3.924  11.020  0.00  0.00    +0.000 C 
ATOM     21  F   UNL     1      43.044   2.842  11.585  0.00  0.00    +0.000 F 
ATOM     22  F   UNL     1      42.652   4.733  10.584  0.00  0.00    +0.000 F 
BRANCH  20  23
ATOM     23  C   UNL     1      44.607   3.517   9.884  0.00  0.00    +0.000 A 
ATOM     24  C   UNL     1      45.161   4.497   9.066  0.00  0.00    +0.000 A 
ATOM     25  C   UNL     1      46.017   4.116   8.030  0.00  0.00    +0.000 A 
ATOM     26  C   UNL     1      46.304   2.765   7.816  0.00  0.00    +0.000 A 
ATOM     27  C   UNL     1      45.709   1.853   8.672  0.00  0.00    +0.000 A 
ATOM     28  N   UNL     1      44.872   2.193   9.686  0.00  0.00    +0.000 NA
BRANCH  26  29
ATOM     29  C   UNL     1      47.211   2.387   6.707  0.00  0.00    +0.000 C 
ATOM     30  N   UNL     1      47.201   3.120   5.552  0.00  0.00    +0.000 N 
ATOM     31  O   UNL     1      47.965   1.429   6.808  0.00  0.00    +0.000 OA
ATOM     32  H   UNL     1      46.632   3.930   5.360  0.00  0.00    +0.000 HD
ATOM     33  H   UNL     1      47.842   2.823   4.828  0.00  0.00    +0.000 HD
ENDBRANCH  26  29
ENDBRANCH  20  23
ENDBRANCH  19  20
ENDBRANCH   1  19
TORSDOF 7
ENDMDL
MODEL 7
REMARK VINA RESULT:    -7.648      3.673      7.429
REMARK INTER + INTRA:         -12.312
REMARK INTER:                 -11.061
REMARK INTRA:                  -1.250
REMARK UNBOUND:                -1.534
REMARK  Name = 
REMARK  8 active torsions:
REMARK  status: ('A' for Active; 'I' for Inactive)
REMARK    1  A    between atoms: C_1  and  C_2
REMARK    2  A    between atoms: C_5  and  C_6
REMARK    3  A    between atoms: C_8  and  N_9
REMARK    4  A    between atoms: N_9  and  C_10
REMARK    5  A    between atoms: C_10  and  C_11
REMARK    6  A    between atoms: C_11  and  C_14
REMARK    7  A    between atoms: C_17  and  C_18
REMARK    8  A    between atoms: C_24  and  C_25
REMARK                            x       y       z     vdW  Elec       q    Type
REMARK                         _______ _______ _______ _____ _____    ______ ____
ROOT
ATOM      1  N   UNL     1      47.203   3.555  14.692  0.00  0.00    +0.000 N 
ATOM      2  H   UNL     1      47.163   2.537  14.621  0.00  0.00    +0.000 HD
ENDROOT
BRANCH   1   5
ATOM      3  C   UNL     1      46.311   6.249  12.285  0.00  0.00    +0.000 A 
ATOM      4  C   UNL     1      46.891   5.553  13.360  0.00  0.00    +0.000 A 
ATOM      5  C   UNL     1      46.639   4.190  13.575  0.00  0.00    +0.000 A 
ATOM      6  C   UNL     1      45.738   3.549  12.715  0.00  0.00    +0.000 A 
ATOM      7  C   UNL     1      45.138   4.215  11.641  0.00  0.00    +0.000 A 
ATOM      8  C   UNL     1      45.425   5.569  11.444  0.00  0.00    +0.000 A 
BRANCH   3  13
ATOM      9  C   UNL     1      50.900   9.576  11.297  0.00  0.00    +0.000 C 
ATOM     10  C   UNL     1      49.682   9.082  12.058  0.00  0.00    +0.000 C 
ATOM     11  C   UNL     1      49.233   7.645  11.708  0.00  0.00    +0.000 C 
ATOM     12  C   UNL     1      47.830   8.210  11.839  0.00  0.00    +0.000 C 
ATOM     13  C   UNL     1      46.622   7.674  12.079  0.00  0.00    +0.000 C 
ATOM     14  C   UNL     1      48.302   9.636  11.613  0.00  0.00    +0.000 C 
ENDBRANCH   3  13
BRANCH   7  15
ATOM     15  C   UNL     1      44.204   3.491  10.709  0.00  0.00    +0.000 C 
ATOM     16  F   UNL     1      44.801   2.481  10.014  0.00  0.00    +0.000 F 
ATOM     17  F   UNL     1      43.151   2.924  11.358  0.00  0.00    +0.000 F 
ATOM     18  F   UNL     1      43.664   4.317   9.769  0.00  0.00    +0.000 F 
ENDBRANCH   7  15
ENDBRANCH   1   5
BRANCH   1  19
ATOM     19  C   UNL     1      46.856   4.071  16.037  0.00  0.00    +0.000 C 
BRANCH  19  20
ATOM     20  C   UNL     1      47.983   4.836  16.764  0.00  0.00    +0.000 C 
ATOM     21  F   UNL     1      48.340   5.913  15.997  0.00  0.00    +0.000 F 
ATOM     22  F   UNL     1      47.484   5.370  17.921  0.00  0.00    +0.000 F 
BRANCH  20  23
ATOM     23  C   UNL     1      49.166   3.901  17.024  0.00  0.00    +0.000 A 
ATOM     24  C   UNL     1      50.345   4.415  17.558  0.00  0.00    +0.000 A 
ATOM     25  C   UNL     1      51.420   3.554  17.790  0.00  0.00    +0.000 A 
ATOM     26  C   UNL     1      51.312   2.196  17.482  0.00  0.00    +0.000 A 
ATOM     27  C   UNL     1      50.108   1.765  16.951  0.00  0.00    +0.000 A 
ATOM     28  N   UNL     1      49.045   2.578  16.713  0.00  0.00    +0.000 NA
BRANCH  26  29
ATOM     29  C   UNL     1      52.469   1.305  17.734  0.00  0.00    +0.000 C 
ATOM     30  N   UNL     1      52.258   0.064  18.267  0.00  0.00    +0.000 N 
ATOM     31  O   UNL     1      53.610   1.665  17.476  0.00  0.00    +0.000 OA
ATOM     32  H   UNL     1      51.366  -0.341  18.511  0.00  0.00    +0.000 HD
ATOM     33  H   UNL     1      53.080  -0.506  18.416  0.00  0.00    +0.000 HD
ENDBRANCH  26  29
ENDBRANCH  20  23
ENDBRANCH  19  20
ENDBRANCH   1  19
TORSDOF 7
ENDMDL
MODEL 8
REMARK VINA RESULT:    -7.354      3.710      8.079
REMARK INTER + INTRA:         -11.897
REMARK INTER:                 -10.756
REMARK INTRA:                  -1.141
REMARK UNBOUND:                -1.534
REMARK  Name = 
REMARK  8 active torsions:
REMARK  status: ('A' for Active; 'I' for Inactive)
REMARK    1  A    between atoms: C_1  and  C_2
REMARK    2  A    between atoms: C_5  and  C_6
REMARK    3  A    between atoms: C_8  and  N_9
REMARK    4  A    between atoms: N_9  and  C_10
REMARK    5  A    between atoms: C_10  and  C_11
REMARK    6  A    between atoms: C_11  and  C_14
REMARK    7  A    between atoms: C_17  and  C_18
REMARK    8  A    between atoms: C_24  and  C_25
REMARK                            x       y       z     vdW  Elec       q    Type
REMARK                         _______ _______ _______ _____ _____    ______ ____
ROOT
ATOM      1  N   UNL     1      46.925   3.989  14.731  0.00  0.00    +0.000 N 
ATOM      2  H   UNL     1      46.370   3.236  15.139  0.00  0.00    +0.000 HD
ENDROOT
BRANCH   1   5
ATOM      3  C   UNL     1      45.202   4.279  11.445  0.00  0.00    +0.000 A 
ATOM      4  C   UNL     1      45.795   3.746  12.603  0.00  0.00    +0.000 A 
ATOM      5  C   UNL     1      46.298   4.572  13.619  0.00  0.00    +0.000 A 
ATOM      6  C   UNL     1      46.246   5.957  13.418  0.00  0.00    +0.000 A 
ATOM      7  C   UNL     1      45.670   6.520  12.274  0.00  0.00    +0.000 A 
ATOM      8  C   UNL     1      45.162   5.668  11.290  0.00  0.00    +0.000 A 
BRANCH   3  13
ATOM      9  C   UNL     1      46.345   2.731   6.023  0.00  0.00    +0.000 C 
ATOM     10  C   UNL     1      45.514   3.308   7.156  0.00  0.00    +0.000 C 
ATOM     11  C   UNL     1      46.320   3.749   8.398  0.00  0.00    +0.000 C 
ATOM     12  C   UNL     1      45.150   3.180   9.178  0.00  0.00    +0.000 C 
ATOM     13  C   UNL     1      44.662   3.376  10.414  0.00  0.00    +0.000 C 
ATOM     14  C   UNL     1      44.707   2.301   8.021  0.00  0.00    +0.000 C 
ENDBRANCH   3  13
BRANCH   7  15
ATOM     15  C   UNL     1      45.593   8.013  12.104  0.00  0.00    +0.000 C 
ATOM     16  F   UNL     1      44.698   8.408  11.154  0.00  0.00    +0.000 F 
ATOM     17  F   UNL     1      45.229   8.654  13.248  0.00  0.00    +0.000 F 
ATOM     18  F   UNL     1      46.787   8.555  11.733  0.00  0.00    +0.000 F 
ENDBRANCH   7  15
ENDBRANCH   1   5
BRANCH   1  19
ATOM     19  C   UNL     1      47.536   4.889  15.737  0.00  0.00    +0.000 C 
BRANCH  19  20
ATOM     20  C   UNL     1      47.663   4.302  17.160  0.00  0.00    +0.000 C 
ATOM     21  F   UNL     1      47.555   5.326  18.063  0.00  0.00    +0.000 F 
ATOM     22  F   UNL     1      46.586   3.494  17.404  0.00  0.00    +0.000 F 
BRANCH  20  23
ATOM     23  C   UNL     1      48.989   3.551  17.300  0.00  0.00    +0.000 A 
ATOM     24  C   UNL     1      50.016   4.105  18.060  0.00  0.00    +0.000 A 
ATOM     25  C   UNL     1      51.223   3.413  18.180  0.00  0.00    +0.000 A 
ATOM     26  C   UNL     1      51.397   2.185  17.537  0.00  0.00    +0.000 A 
ATOM     27  C   UNL     1      50.329   1.705  16.798  0.00  0.00    +0.000 A 
ATOM     28  N   UNL     1      49.143   2.355  16.661  0.00  0.00    +0.000 NA
BRANCH  26  29
ATOM     29  C   UNL     1      52.690   1.474  17.677  0.00  0.00    +0.000 C 
ATOM     30  N   UNL     1      52.700   0.181  18.121  0.00  0.00    +0.000 N 
ATOM     31  O   UNL     1      53.747   2.029  17.406  0.00  0.00    +0.000 OA
ATOM     32  H   UNL     1      51.896  -0.377  18.366  0.00  0.00    +0.000 HD
ATOM     33  H   UNL     1      53.607  -0.260  18.196  0.00  0.00    +0.000 HD
ENDBRANCH  26  29
ENDBRANCH  20  23
ENDBRANCH  19  20
ENDBRANCH   1  19
TORSDOF 7
ENDMDL
MODEL 9
REMARK VINA RESULT:    -7.221      2.532      3.473
REMARK INTER + INTRA:         -11.709
REMARK INTER:                 -10.529
REMARK INTRA:                  -1.180
REMARK UNBOUND:                -1.534
REMARK  Name = 
REMARK  8 active torsions:
REMARK  status: ('A' for Active; 'I' for Inactive)
REMARK    1  A    between atoms: C_1  and  C_2
REMARK    2  A    between atoms: C_5  and  C_6
REMARK    3  A    between atoms: C_8  and  N_9
REMARK    4  A    between atoms: N_9  and  C_10
REMARK    5  A    between atoms: C_10  and  C_11
REMARK    6  A    between atoms: C_11  and  C_14
REMARK    7  A    between atoms: C_17  and  C_18
REMARK    8  A    between atoms: C_24  and  C_25
REMARK                            x       y       z     vdW  Elec       q    Type
REMARK                         _______ _______ _______ _____ _____    ______ ____
ROOT
ATOM      1  N   UNL     1      45.343   6.743  12.198  0.00  0.00    +0.000 N 
ATOM      2  H   UNL     1      44.750   6.196  12.824  0.00  0.00    +0.000 HD
ENDROOT
BRANCH   1   5
ATOM      3  C   UNL     1      48.742   8.203  12.599  0.00  0.00    +0.000 A 
ATOM      4  C   UNL     1      47.468   7.899  12.089  0.00  0.00    +0.000 A 
ATOM      5  C   UNL     1      46.583   7.053  12.775  0.00  0.00    +0.000 A 
ATOM      6  C   UNL     1      47.034   6.465  13.964  0.00  0.00    +0.000 A 
ATOM      7  C   UNL     1      48.299   6.740  14.494  0.00  0.00    +0.000 A 
ATOM      8  C   UNL     1      49.148   7.602  13.795  0.00  0.00    +0.000 A 
BRANCH   3  13
ATOM      9  C   UNL     1      53.401   7.930   9.233  0.00  0.00    +0.000 C 
ATOM     10  C   UNL     1      52.589   8.344  10.448  0.00  0.00    +0.000 C 
ATOM     11  C   UNL     1      51.350   7.465  10.735  0.00  0.00    +0.000 C 
ATOM     12  C   UNL     1      50.685   8.780  11.102  0.00  0.00    +0.000 C 
ATOM     13  C   UNL     1      49.630   9.117  11.861  0.00  0.00    +0.000 C 
ATOM     14  C   UNL     1      51.682   9.595  10.297  0.00  0.00    +0.000 C 
ENDBRANCH   3  13
BRANCH   7  15
ATOM     15  C   UNL     1      48.741   6.124  15.794  0.00  0.00    +0.000 C 
ATOM     16  F   UNL     1      48.347   6.828  16.893  0.00  0.00    +0.000 F 
ATOM     17  F   UNL     1      48.259   4.863  15.969  0.00  0.00    +0.000 F 
ATOM     18  F   UNL     1      50.097   6.024  15.887  0.00  0.00    +0.000 F 
ENDBRANCH   7  15
ENDBRANCH   1   5
BRANCH   1  19
ATOM     19  C   UNL     1      45.326   6.265  10.795  0.00  0.00    +0.000 C 
BRANCH  19  20
ATOM     20  C   UNL     1      44.578   4.935  10.558  0.00  0.00    +0.000 C 
ATOM     21  F   UNL     1      44.533   4.247  11.741  0.00  0.00    +0.000 F 
ATOM     22  F   UNL     1      43.272   5.208  10.253  0.00  0.00    +0.000 F 
BRANCH  20  23
ATOM     23  C   UNL     1      45.272   4.134   9.455  0.00  0.00    +0.000 A 
ATOM     24  C   UNL     1      45.228   2.743   9.483  0.00  0.00    +0.000 A 
ATOM     25  C   UNL     1      45.866   2.021   8.472  0.00  0.00    +0.000 A 
ATOM     26  C   UNL     1      46.546   2.690   7.452  0.00  0.00    +0.000 A 
ATOM     27  C   UNL     1      46.546   4.074   7.498  0.00  0.00    +0.000 A 
ATOM     28  N   UNL     1      45.936   4.804   8.468  0.00  0.00    +0.000 NA
BRANCH  26  29
ATOM     29  C   UNL     1      47.219   1.899   6.395  0.00  0.00    +0.000 C 
ATOM     30  N   UNL     1      47.888   2.548   5.394  0.00  0.00    +0.000 N 
ATOM     31  O   UNL     1      47.181   0.676   6.401  0.00  0.00    +0.000 OA
ATOM     32  H   UNL     1      47.993   3.546   5.290  0.00  0.00    +0.000 HD
ATOM     33  H   UNL     1      48.333   1.963   4.700  0.00  0.00    +0.000 HD
ENDBRANCH  26  29
ENDBRANCH  20  23
ENDBRANCH  19  20
ENDBRANCH   1  19
TORSDOF 7
ENDMDL
