MODEL 1
REMARK VINA RESULT:    -8.533      0.000      0.000
REMARK INTER + INTRA:         -12.211
REMARK INTER:                 -11.525
REMARK INTRA:                  -0.686
REMARK UNBOUND:                -0.686
REMARK  Name = 
REMARK  6 active torsions:
REMARK  status: ('A' for Active; 'I' for Inactive)
REMARK    1  A    between atoms: C_2  and  C_25
REMARK    2  A    between atoms: N_3  and  C_4
REMARK    3  A    between atoms: C_4  and  C_5
REMARK    4  A    between atoms: C_8  and  C_9
REMARK    5  A    between atoms: C_9  and  N_10
REMARK    6  A    between atoms: C_11  and  C_13
REMARK                            x       y       z     vdW  Elec       q    Type
REMARK                         _______ _______ _______ _____ _____    ______ ____
ROOT
ATOM      1  C   UNL     1      44.588   5.559  11.381  0.00  0.00    +0.000 A 
ATOM      2  C   UNL     1      45.628   4.989  12.128  0.00  0.00    +0.000 A 
ATOM      3  C   UNL     1      46.524   5.798  12.837  0.00  0.00    +0.000 A 
ATOM      4  C   UNL     1      46.383   7.193  12.832  0.00  0.00    +0.000 A 
ATOM      5  C   UNL     1      45.336   7.760  12.094  0.00  0.00    +0.000 A 
ATOM      6  C   UNL     1      44.441   6.952  11.386  0.00  0.00    +0.000 A 
ENDROOT
BRANCH   1   7
ATOM      7  C   UNL     1      43.681   4.696  10.546  0.00  0.00    +0.000 C 
BRANCH   7  10
ATOM      8  O   UNL     1      45.455   5.101   8.466  0.00  0.00    +0.000 OA
ATOM      9  C   UNL     1      45.239   3.946   8.827  0.00  0.00    +0.000 C 
ATOM     10  N   UNL     1      44.362   3.635   9.847  0.00  0.00    +0.000 N 
ATOM     11  H   UNL     1      44.228   2.665  10.115  0.00  0.00    +0.000 HD
BRANCH   9  12
ATOM     12  C   UNL     1      45.941   2.814   8.162  0.00  0.00    +0.000 A 
ATOM     13  C   UNL     1      46.743   3.046   7.051  0.00  0.00    +0.000 A 
ATOM     14  C   UNL     1      47.385   1.963   6.464  0.00  0.00    +0.000 A 
ATOM     15  C   UNL     1      47.184   0.713   7.017  0.00  0.00    +0.000 A 
ATOM     16  N   UNL     1      46.397   0.513   8.099  0.00  0.00    +0.000 NA
ATOM     17  N   UNL     1      45.766   1.578   8.682  0.00  0.00    +0.000 NA
ENDBRANCH   9  12
ENDBRANCH   7  10
ENDBRANCH   1   7
BRANCH   4  18
ATOM     18  C   UNL     1      47.359   8.073  13.569  0.00  0.00    +0.000 C 
BRANCH  18  19
ATOM     19  N   UNL     1      47.778   7.476  14.814  0.00  0.00    +0.000 N 
ATOM     20  C   UNL     1      49.052   6.988  14.968  0.00  0.00    +0.000 C 
ATOM     21  O   UNL     1      49.890   7.071  14.073  0.00  0.00    +0.000 OA
ATOM     22  H   UNL     1      47.051   7.199  15.468  0.00  0.00    +0.000 HD
BRANCH  20  23
ATOM     23  C   UNL     1      49.390   6.413  16.278  0.00  0.00    +0.000 A 
ATOM     24  C   UNL     1      50.353   7.029  17.066  0.00  0.00    +0.000 A 
ATOM     25  S   UNL     1      50.588   6.276  18.578  0.00  0.00    +0.000 S 
ATOM     26  C   UNL     1      49.450   5.065  18.210  0.00  0.00    +0.000 A 
ATOM     27  N   UNL     1      49.186   4.064  19.092  0.00  0.00    +0.000 NA
ATOM     28  C   UNL     1      48.334   3.191  18.669  0.00  0.00    +0.000 A 
ATOM     29  N   UNL     1      47.715   3.235  17.447  0.00  0.00    +0.000 N 
ATOM     30  C   UNL     1      47.922   4.246  16.539  0.00  0.00    +0.000 A 
ATOM     31  O   UNL     1      47.316   4.281  15.472  0.00  0.00    +0.000 OA
ATOM     32  C   UNL     1      48.887   5.245  16.959  0.00  0.00    +0.000 A 
ATOM     33  H   UNL     1      47.049   2.525  17.179  0.00  0.00    +0.000 HD
ENDBRANCH  20  23
ENDBRANCH  18  19
ENDBRANCH   4  18
TORSDOF 6
ENDMDL
MODEL 2
REMARK VINA RESULT:    -7.969      1.291      1.606
REMARK INTER + INTRA:         -11.450
REMARK INTER:                 -10.395
REMARK INTRA:                  -1.055
REMARK UNBOUND:                -0.686
REMARK  Name = 
REMARK  6 active torsions:
REMARK  status: ('A' for Active; 'I' for Inactive)
REMARK    1  A    between atoms: C_2  and  C_25
REMARK    2  A    between atoms: N_3  and  C_4
REMARK    3  A    between atoms: C_4  and  C_5
REMARK    4  A    between atoms: C_8  and  C_9
REMARK    5  A    between atoms: C_9  and  N_10
REMARK    6  A    between atoms: C_11  and  C_13
REMARK                            x       y       z     vdW  Elec       q    Type
REMARK                         _______ _______ _______ _____ _____    ______ ____
ROOT
ATOM      1  C   UNL     1      45.435   6.724  11.350  0.00  0.00    +0.000 A 
ATOM      2  C   UNL     1      44.889   7.776  12.098  0.00  0.00    +0.000 A 
ATOM      3  C   UNL     1      45.676   8.486  13.013  0.00  0.00    +0.000 A 
ATOM      4  C   UNL     1      47.032   8.173  13.180  0.00  0.00    +0.000 A 
ATOM      5  C   UNL     1      47.580   7.129  12.423  0.00  0.00    +0.000 A 
ATOM      6  C   UNL     1      46.793   6.420  11.509  0.00  0.00    +0.000 A 
ENDROOT
BRANCH   1   7
ATOM      7  C   UNL     1      44.568   5.903  10.435  0.00  0.00    +0.000 C 
BRANCH   7  10
ATOM      8  O   UNL     1      44.029   3.267   9.800  0.00  0.00    +0.000 OA
ATOM      9  C   UNL     1      44.948   3.830   9.207  0.00  0.00    +0.000 C 
ATOM     10  N   UNL     1      45.305   5.141   9.458  0.00  0.00    +0.000 N 
ATOM     11  H   UNL     1      46.064   5.562   8.933  0.00  0.00    +0.000 HD
BRANCH   9  12
ATOM     12  C   UNL     1      45.720   3.100   8.166  0.00  0.00    +0.000 A 
ATOM     13  C   UNL     1      46.073   1.770   8.362  0.00  0.00    +0.000 A 
ATOM     14  C   UNL     1      46.789   1.124   7.363  0.00  0.00    +0.000 A 
ATOM     15  C   UNL     1      47.114   1.844   6.229  0.00  0.00    +0.000 A 
ATOM     16  N   UNL     1      46.759   3.138   6.062  0.00  0.00    +0.000 NA
ATOM     17  N   UNL     1      46.051   3.777   7.042  0.00  0.00    +0.000 NA
ENDBRANCH   9  12
ENDBRANCH   7  10
ENDBRANCH   1   7
BRANCH   4  18
ATOM     18  C   UNL     1      47.881   8.913  14.182  0.00  0.00    +0.000 C 
BRANCH  18  19
ATOM     19  N   UNL     1      48.164   8.101  15.341  0.00  0.00    +0.000 N 
ATOM     20  C   UNL     1      49.418   7.586  15.551  0.00  0.00    +0.000 C 
ATOM     21  O   UNL     1      50.352   7.822  14.788  0.00  0.00    +0.000 OA
ATOM     22  H   UNL     1      47.371   7.718  15.847  0.00  0.00    +0.000 HD
BRANCH  20  23
ATOM     23  C   UNL     1      49.613   6.786  16.769  0.00  0.00    +0.000 A 
ATOM     24  C   UNL     1      50.459   7.254  17.766  0.00  0.00    +0.000 A 
ATOM     25  S   UNL     1      50.532   6.241  19.136  0.00  0.00    +0.000 S 
ATOM     26  C   UNL     1      49.477   5.113  18.423  0.00  0.00    +0.000 A 
ATOM     27  N   UNL     1      49.136   3.967  19.073  0.00  0.00    +0.000 NA
ATOM     28  C   UNL     1      48.362   3.183  18.401  0.00  0.00    +0.000 A 
ATOM     29  N   UNL     1      47.892   3.443  17.140  0.00  0.00    +0.000 N 
ATOM     30  C   UNL     1      48.180   4.602  16.459  0.00  0.00    +0.000 A 
ATOM     31  O   UNL     1      47.704   4.826  15.350  0.00  0.00    +0.000 OA
ATOM     32  C   UNL     1      49.062   5.512  17.164  0.00  0.00    +0.000 A 
ATOM     33  H   UNL     1      47.280   2.791  16.671  0.00  0.00    +0.000 HD
ENDBRANCH  20  23
ENDBRANCH  18  19
ENDBRANCH   4  18
TORSDOF 6
ENDMDL
MODEL 3
REMARK VINA RESULT:    -7.422      3.743      4.987
REMARK INTER + INTRA:         -10.711
REMARK INTER:                  -9.586
REMARK INTRA:                  -1.125
REMARK UNBOUND:                -0.686
REMARK  Name = 
REMARK  6 active torsions:
REMARK  status: ('A' for Active; 'I' for Inactive)
REMARK    1  A    between atoms: C_2  and  C_25
REMARK    2  A    between atoms: N_3  and  C_4
REMARK    3  A    between atoms: C_4  and  C_5
REMARK    4  A    between atoms: C_8  and  C_9
REMARK    5  A    between atoms: C_9  and  N_10
REMARK    6  A    between atoms: C_11  and  C_13
REMARK                            x       y       z     vdW  Elec       q    Type
REMARK                         _______ _______ _______ _____ _____    ______ ____
ROOT
ATOM      1  C   UNL     1      44.940   6.241  11.523  0.00  0.00    +0.000 A 
ATOM      2  C   UNL     1      46.012   5.739  12.275  0.00  0.00    +0.000 A 
ATOM      3  C   UNL     1      46.793   6.593  13.062  0.00  0.00    +0.000 A 
ATOM      4  C   UNL     1      46.504   7.963  13.132  0.00  0.00    +0.000 A 
ATOM      5  C   UNL     1      45.425   8.461  12.390  0.00  0.00    +0.000 A 
ATOM      6  C   UNL     1      44.644   7.607  11.604  0.00  0.00    +0.000 A 
ENDROOT
BRANCH   1   7
ATOM      7  C   UNL     1      44.158   5.340  10.607  0.00  0.00    +0.000 C 
BRANCH   7  10
ATOM      8  O   UNL     1      44.124   2.621  10.110  0.00  0.00    +0.000 OA
ATOM      9  C   UNL     1      44.859   3.326   9.422  0.00  0.00    +0.000 C 
ATOM     10  N   UNL     1      44.959   4.693   9.598  0.00  0.00    +0.000 N 
ATOM     11  H   UNL     1      45.572   5.232   8.995  0.00  0.00    +0.000 HD
BRANCH   9  12
ATOM     12  C   UNL     1      45.683   2.715   8.344  0.00  0.00    +0.000 A 
ATOM     13  C   UNL     1      46.040   3.463   7.229  0.00  0.00    +0.000 A 
ATOM     14  C   UNL     1      46.815   2.856   6.249  0.00  0.00    +0.000 A 
ATOM     15  C   UNL     1      47.182   1.538   6.437  0.00  0.00    +0.000 A 
ATOM     16  N   UNL     1      46.821   0.830   7.532  0.00  0.00    +0.000 NA
ATOM     17  N   UNL     1      46.061   1.425   8.502  0.00  0.00    +0.000 NA
ENDBRANCH   9  12
ENDBRANCH   7  10
ENDBRANCH   1   7
BRANCH   4  18
ATOM     18  C   UNL     1      47.356   8.894  13.955  0.00  0.00    +0.000 C 
BRANCH  18  19
ATOM     19  N   UNL     1      48.672   9.052  13.387  0.00  0.00    +0.000 N 
ATOM     20  C   UNL     1      48.971  10.128  12.588  0.00  0.00    +0.000 C 
ATOM     21  O   UNL     1      48.148  11.011  12.357  0.00  0.00    +0.000 OA
ATOM     22  H   UNL     1      49.279   8.238  13.380  0.00  0.00    +0.000 HD
BRANCH  20  23
ATOM     23  C   UNL     1      50.344  10.211  12.070  0.00  0.00    +0.000 A 
ATOM     24  C   UNL     1      51.017  11.425  12.109  0.00  0.00    +0.000 A 
ATOM     25  S   UNL     1      52.617  11.342  11.525  0.00  0.00    +0.000 S 
ATOM     26  C   UNL     1      52.449   9.691  11.147  0.00  0.00    +0.000 A 
ATOM     27  N   UNL     1      53.471   8.998  10.576  0.00  0.00    +0.000 NA
ATOM     28  C   UNL     1      53.193   7.767  10.304  0.00  0.00    +0.000 A 
ATOM     29  N   UNL     1      51.989   7.163  10.560  0.00  0.00    +0.000 N 
ATOM     30  C   UNL     1      50.941   7.813  11.168  0.00  0.00    +0.000 A 
ATOM     31  O   UNL     1      49.892   7.231  11.425  0.00  0.00    +0.000 OA
ATOM     32  C   UNL     1      51.195   9.207  11.478  0.00  0.00    +0.000 A 
ATOM     33  H   UNL     1      51.839   6.192  10.331  0.00  0.00    +0.000 HD
ENDBRANCH  20  23
ENDBRANCH  18  19
ENDBRANCH   4  18
TORSDOF 6
ENDMDL
MODEL 4
REMARK VINA RESULT:    -7.308      3.490      4.718
REMARK INTER + INTRA:         -10.557
REMARK INTER:                  -9.739
REMARK INTRA:                  -0.818
REMARK UNBOUND:                -0.686
REMARK  Name = 
REMARK  6 active torsions:
REMARK  status: ('A' for Active; 'I' for Inactive)
REMARK    1  A    between atoms: C_2  and  C_25
REMARK    2  A    between atoms: N_3  and  C_4
REMARK    3  A    between atoms: C_4  and  C_5
REMARK    4  A    between atoms: C_8  and  C_9
REMARK    5  A    between atoms: C_9  and  N_10
REMARK    6  A    between atoms: C_11  and  C_13
REMARK                            x       y       z     vdW  Elec       q    Type
REMARK                         _______ _______ _______ _____ _____    ______ ____
ROOT
ATOM      1  C   UNL     1      47.317   6.109  14.025  0.00  0.00    +0.000 A 
ATOM      2  C   UNL     1      48.271   6.770  14.811  0.00  0.00    +0.000 A 
ATOM      3  C   UNL     1      48.732   6.202  16.004  0.00  0.00    +0.000 A 
ATOM      4  C   UNL     1      48.267   4.948  16.423  0.00  0.00    +0.000 A 
ATOM      5  C   UNL     1      47.323   4.281  15.631  0.00  0.00    +0.000 A 
ATOM      6  C   UNL     1      46.862   4.850  14.439  0.00  0.00    +0.000 A 
ENDROOT
BRANCH   1   7
ATOM      7  C   UNL     1      46.754   6.760  12.792  0.00  0.00    +0.000 C 
BRANCH   7  10
ATOM      8  O   UNL     1      44.447   6.448  11.302  0.00  0.00    +0.000 OA
ATOM      9  C   UNL     1      45.438   5.797  10.978  0.00  0.00    +0.000 C 
ATOM     10  N   UNL     1      46.635   5.871  11.663  0.00  0.00    +0.000 N 
ATOM     11  H   UNL     1      47.428   5.321  11.347  0.00  0.00    +0.000 HD
BRANCH   9  12
ATOM     12  C   UNL     1      45.381   4.889   9.800  0.00  0.00    +0.000 A 
ATOM     13  C   UNL     1      44.636   3.718   9.856  0.00  0.00    +0.000 A 
ATOM     14  C   UNL     1      44.604   2.902   8.733  0.00  0.00    +0.000 A 
ATOM     15  C   UNL     1      45.322   3.300   7.622  0.00  0.00    +0.000 A 
ATOM     16  N   UNL     1      46.042   4.446   7.592  0.00  0.00    +0.000 NA
ATOM     17  N   UNL     1      46.072   5.254   8.695  0.00  0.00    +0.000 NA
ENDBRANCH   9  12
ENDBRANCH   7  10
ENDBRANCH   1   7
BRANCH   4  18
ATOM     18  C   UNL     1      48.738   4.339  17.719  0.00  0.00    +0.000 C 
BRANCH  18  19
ATOM     19  N   UNL     1      50.105   3.887  17.629  0.00  0.00    +0.000 N 
ATOM     20  C   UNL     1      50.999   4.139  18.640  0.00  0.00    +0.000 C 
ATOM     21  O   UNL     1      50.666   4.722  19.669  0.00  0.00    +0.000 OA
ATOM     22  H   UNL     1      50.447   3.612  16.712  0.00  0.00    +0.000 HD
BRANCH  20  23
ATOM     23  C   UNL     1      52.364   3.623  18.464  0.00  0.00    +0.000 A 
ATOM     24  C   UNL     1      53.446   4.426  18.800  0.00  0.00    +0.000 A 
ATOM     25  S   UNL     1      54.957   3.664  18.593  0.00  0.00    +0.000 S 
ATOM     26  C   UNL     1      54.221   2.251  17.995  0.00  0.00    +0.000 A 
ATOM     27  N   UNL     1      54.971   1.188  17.596  0.00  0.00    +0.000 NA
ATOM     28  C   UNL     1      54.287   0.200  17.125  0.00  0.00    +0.000 A 
ATOM     29  N   UNL     1      52.920   0.174  17.025  0.00  0.00    +0.000 N 
ATOM     30  C   UNL     1      52.120   1.209  17.448  0.00  0.00    +0.000 A 
ATOM     31  O   UNL     1      50.896   1.136  17.387  0.00  0.00    +0.000 OA
ATOM     32  C   UNL     1      52.841   2.354  17.970  0.00  0.00    +0.000 A 
ATOM     33  H   UNL     1      52.443  -0.635  16.655  0.00  0.00    +0.000 HD
ENDBRANCH  20  23
ENDBRANCH  18  19
ENDBRANCH   4  18
TORSDOF 6
ENDMDL
MODEL 5
REMARK VINA RESULT:    -7.296      4.954      7.548
REMARK INTER + INTRA:         -10.540
REMARK INTER:                  -9.645
REMARK INTRA:                  -0.896
REMARK UNBOUND:                -0.686
REMARK  Name = 
REMARK  6 active torsions:
REMARK  status: ('A' for Active; 'I' for Inactive)
REMARK    1  A    between atoms: C_2  and  C_25
REMARK    2  A    between atoms: N_3  and  C_4
REMARK    3  A    between atoms: C_4  and  C_5
REMARK    4  A    between atoms: C_8  and  C_9
REMARK    5  A    between atoms: C_9  and  N_10
REMARK    6  A    between atoms: C_11  and  C_13
REMARK                            x       y       z     vdW  Elec       q    Type
REMARK                         _______ _______ _______ _____ _____    ______ ____
ROOT
ATOM      1  C   UNL     1      50.383   8.763  11.396  0.00  0.00    +0.000 A 
ATOM      2  C   UNL     1      49.500   9.842  11.529  0.00  0.00    +0.000 A 
ATOM      3  C   UNL     1      48.229   9.661  12.087  0.00  0.00    +0.000 A 
ATOM      4  C   UNL     1      47.824   8.399  12.544  0.00  0.00    +0.000 A 
ATOM      5  C   UNL     1      48.712   7.322  12.421  0.00  0.00    +0.000 A 
ATOM      6  C   UNL     1      49.983   7.505  11.864  0.00  0.00    +0.000 A 
ENDROOT
BRANCH   1   7
ATOM      7  C   UNL     1      51.713   8.939  10.715  0.00  0.00    +0.000 C 
BRANCH   7  10
ATOM      8  O   UNL     1      52.786   8.910   8.168  0.00  0.00    +0.000 OA
ATOM      9  C   UNL     1      52.724   7.846   8.783  0.00  0.00    +0.000 C 
ATOM     10  N   UNL     1      52.194   7.751  10.055  0.00  0.00    +0.000 N 
ATOM     11  H   UNL     1      52.177   6.851  10.524  0.00  0.00    +0.000 HD
BRANCH   9  12
ATOM     12  C   UNL     1      53.237   6.595   8.161  0.00  0.00    +0.000 A 
ATOM     13  C   UNL     1      54.298   5.912   8.741  0.00  0.00    +0.000 A 
ATOM     14  C   UNL     1      54.742   4.745   8.133  0.00  0.00    +0.000 A 
ATOM     15  C   UNL     1      54.105   4.333   6.979  0.00  0.00    +0.000 A 
ATOM     16  N   UNL     1      53.073   5.017   6.432  0.00  0.00    +0.000 NA
ATOM     17  N   UNL     1      52.630   6.164   7.031  0.00  0.00    +0.000 NA
ENDBRANCH   9  12
ENDBRANCH   7  10
ENDBRANCH   1   7
BRANCH   4  18
ATOM     18  C   UNL     1      46.448   8.187  13.120  0.00  0.00    +0.000 C 
BRANCH  18  19
ATOM     19  N   UNL     1      45.946   6.866  12.827  0.00  0.00    +0.000 N 
ATOM     20  C   UNL     1      45.002   6.672  11.849  0.00  0.00    +0.000 C 
ATOM     21  O   UNL     1      44.577   7.600  11.165  0.00  0.00    +0.000 OA
ATOM     22  H   UNL     1      46.112   6.140  13.517  0.00  0.00    +0.000 HD
BRANCH  20  23
ATOM     23  C   UNL     1      44.566   5.289  11.612  0.00  0.00    +0.000 A 
ATOM     24  C   UNL     1      43.844   4.622  12.594  0.00  0.00    +0.000 A 
ATOM     25  S   UNL     1      43.363   3.049  12.144  0.00  0.00    +0.000 S 
ATOM     26  C   UNL     1      44.149   3.183  10.641  0.00  0.00    +0.000 A 
ATOM     27  N   UNL     1      44.147   2.148   9.757  0.00  0.00    +0.000 NA
ATOM     28  C   UNL     1      44.815   2.369   8.675  0.00  0.00    +0.000 A 
ATOM     29  N   UNL     1      45.478   3.535   8.392  0.00  0.00    +0.000 N 
ATOM     30  C   UNL     1      45.478   4.619   9.238  0.00  0.00    +0.000 A 
ATOM     31  O   UNL     1      46.043   5.665   8.934  0.00  0.00    +0.000 OA
ATOM     32  C   UNL     1      44.755   4.416  10.479  0.00  0.00    +0.000 A 
ATOM     33  H   UNL     1      45.976   3.649   7.521  0.00  0.00    +0.000 HD
ENDBRANCH  20  23
ENDBRANCH  18  19
ENDBRANCH   4  18
TORSDOF 6
ENDMDL
MODEL 6
REMARK VINA RESULT:    -7.084      3.456      8.469
REMARK INTER + INTRA:         -10.255
REMARK INTER:                  -9.395
REMARK INTRA:                  -0.860
REMARK UNBOUND:                -0.686
REMARK  Name = 
REMARK  6 active torsions:
REMARK  status: ('A' for Active; 'I' for Inactive)
REMARK    1  A    between atoms: C_2  and  C_25
REMARK    2  A    between atoms: N_3  and  C_4
REMARK    3  A    between atoms: C_4  and  C_5
REMARK    4  A    between atoms: C_8  and  C_9
REMARK    5  A    between atoms: C_9  and  N_10
REMARK    6  A    between atoms: C_11  and  C_13
REMARK                            x       y       z     vdW  Elec       q    Type
REMARK                         _______ _______ _______ _____ _____    ______ ____
ROOT
ATOM      1  C   UNL     1      49.927   6.807  16.049  0.00  0.00    +0.000 A 
ATOM      2  C   UNL     1      48.644   6.405  15.655  0.00  0.00    +0.000 A 
ATOM      3  C   UNL     1      48.147   6.739  14.390  0.00  0.00    +0.000 A 
ATOM      4  C   UNL     1      48.935   7.462  13.483  0.00  0.00    +0.000 A 
ATOM      5  C   UNL     1      50.222   7.853  13.873  0.00  0.00    +0.000 A 
ATOM      6  C   UNL     1      50.717   7.519  15.138  0.00  0.00    +0.000 A 
ENDROOT
BRANCH   1   7
ATOM      7  C   UNL     1      50.426   6.527  17.440  0.00  0.00    +0.000 C 
BRANCH   7  10
ATOM      8  O   UNL     1      49.484   3.974  17.925  0.00  0.00    +0.000 OA
ATOM      9  C   UNL     1      50.694   4.126  17.772  0.00  0.00    +0.000 C 
ATOM     10  N   UNL     1      51.267   5.361  17.537  0.00  0.00    +0.000 N 
ATOM     11  H   UNL     1      52.271   5.430  17.406  0.00  0.00    +0.000 HD
BRANCH   9  12
ATOM     12  C   UNL     1      51.605   2.950  17.829  0.00  0.00    +0.000 A 
ATOM     13  C   UNL     1      52.900   3.094  18.312  0.00  0.00    +0.000 A 
ATOM     14  C   UNL     1      53.716   1.970  18.353  0.00  0.00    +0.000 A 
ATOM     15  C   UNL     1      53.193   0.772  17.906  0.00  0.00    +0.000 A 
ATOM     16  N   UNL     1      51.928   0.659  17.439  0.00  0.00    +0.000 NA
ATOM     17  N   UNL     1      51.120   1.762  17.400  0.00  0.00    +0.000 NA
ENDBRANCH   9  12
ENDBRANCH   7  10
ENDBRANCH   1   7
BRANCH   4  18
ATOM     18  C   UNL     1      48.399   7.850  12.129  0.00  0.00    +0.000 C 
BRANCH  18  19
ATOM     19  N   UNL     1      47.675   6.765  11.512  0.00  0.00    +0.000 N 
ATOM     20  C   UNL     1      46.305   6.795  11.419  0.00  0.00    +0.000 C 
ATOM     21  O   UNL     1      45.650   7.754  11.819  0.00  0.00    +0.000 OA
ATOM     22  H   UNL     1      48.168   5.886  11.386  0.00  0.00    +0.000 HD
BRANCH  20  23
ATOM     23  C   UNL     1      45.659   5.652  10.760  0.00  0.00    +0.000 A 
ATOM     24  C   UNL     1      45.768   5.505   9.383  0.00  0.00    +0.000 A 
ATOM     25  S   UNL     1      45.014   4.101   8.780  0.00  0.00    +0.000 S 
ATOM     26  C   UNL     1      44.466   3.666  10.331  0.00  0.00    +0.000 A 
ATOM     27  N   UNL     1      43.714   2.547  10.518  0.00  0.00    +0.000 NA
ATOM     28  C   UNL     1      43.332   2.360  11.736  0.00  0.00    +0.000 A 
ATOM     29  N   UNL     1      43.640   3.184  12.787  0.00  0.00    +0.000 N 
ATOM     30  C   UNL     1      44.426   4.304  12.653  0.00  0.00    +0.000 A 
ATOM     31  O   UNL     1      44.723   4.996  13.622  0.00  0.00    +0.000 OA
ATOM     32  C   UNL     1      44.868   4.571  11.297  0.00  0.00    +0.000 A 
ATOM     33  H   UNL     1      43.317   2.975  13.721  0.00  0.00    +0.000 HD
ENDBRANCH  20  23
ENDBRANCH  18  19
ENDBRANCH   4  18
TORSDOF 6
ENDMDL
MODEL 7
REMARK VINA RESULT:    -7.025      2.984      8.635
REMARK INTER + INTRA:         -10.175
REMARK INTER:                  -9.297
REMARK INTRA:                  -0.878
REMARK UNBOUND:                -0.686
REMARK  Name = 
REMARK  6 active torsions:
REMARK  status: ('A' for Active; 'I' for Inactive)
REMARK    1  A    between atoms: C_2  and  C_25
REMARK    2  A    between atoms: N_3  and  C_4
REMARK    3  A    between atoms: C_4  and  C_5
REMARK    4  A    between atoms: C_8  and  C_9
REMARK    5  A    between atoms: C_9  and  N_10
REMARK    6  A    between atoms: C_11  and  C_13
REMARK                            x       y       z     vdW  Elec       q    Type
REMARK                         _______ _______ _______ _____ _____    ______ ____
ROOT
ATOM      1  C   UNL     1      49.847   8.110  15.048  0.00  0.00    +0.000 A 
ATOM      2  C   UNL     1      50.092   7.602  13.765  0.00  0.00    +0.000 A 
ATOM      3  C   UNL     1      49.088   7.614  12.789  0.00  0.00    +0.000 A 
ATOM      4  C   UNL     1      47.826   8.156  13.070  0.00  0.00    +0.000 A 
ATOM      5  C   UNL     1      47.587   8.674  14.349  0.00  0.00    +0.000 A 
ATOM      6  C   UNL     1      48.590   8.662  15.324  0.00  0.00    +0.000 A 
ENDROOT
BRANCH   1   7
ATOM      7  C   UNL     1      50.895   8.015  16.123  0.00  0.00    +0.000 C 
BRANCH   7  10
ATOM      8  O   UNL     1      49.626   6.205  17.782  0.00  0.00    +0.000 OA
ATOM      9  C   UNL     1      50.650   5.843  17.206  0.00  0.00    +0.000 C 
ATOM     10  N   UNL     1      51.365   6.674  16.366  0.00  0.00    +0.000 N 
ATOM     11  H   UNL     1      52.199   6.322  15.905  0.00  0.00    +0.000 HD
BRANCH   9  12
ATOM     12  C   UNL     1      51.161   4.458  17.395  0.00  0.00    +0.000 A 
ATOM     13  C   UNL     1      52.407   4.247  17.971  0.00  0.00    +0.000 A 
ATOM     14  C   UNL     1      52.844   2.938  18.134  0.00  0.00    +0.000 A 
ATOM     15  C   UNL     1      52.014   1.920  17.708  0.00  0.00    +0.000 A 
ATOM     16  N   UNL     1      50.805   2.151  17.148  0.00  0.00    +0.000 NA
ATOM     17  N   UNL     1      50.369   3.439  16.989  0.00  0.00    +0.000 NA
ENDBRANCH   9  12
ENDBRANCH   7  10
ENDBRANCH   1   7
BRANCH   4  18
ATOM     18  C   UNL     1      46.731   8.148  12.035  0.00  0.00    +0.000 C 
BRANCH  18  19
ATOM     19  N   UNL     1      46.256   6.810  11.774  0.00  0.00    +0.000 N 
ATOM     20  C   UNL     1      44.941   6.579  11.455  0.00  0.00    +0.000 C 
ATOM     21  O   UNL     1      44.130   7.496  11.345  0.00  0.00    +0.000 OA
ATOM     22  H   UNL     1      46.844   6.039  12.076  0.00  0.00    +0.000 HD
BRANCH  20  23
ATOM     23  C   UNL     1      44.557   5.186  11.189  0.00  0.00    +0.000 A 
ATOM     24  C   UNL     1      43.755   4.511  12.102  0.00  0.00    +0.000 A 
ATOM     25  S   UNL     1      43.351   2.926  11.621  0.00  0.00    +0.000 S 
ATOM     26  C   UNL     1      44.278   3.065  10.201  0.00  0.00    +0.000 A 
ATOM     27  N   UNL     1      44.383   2.024   9.331  0.00  0.00    +0.000 NA
ATOM     28  C   UNL     1      45.150   2.251   8.318  0.00  0.00    +0.000 A 
ATOM     29  N   UNL     1      45.815   3.427   8.091  0.00  0.00    +0.000 N 
ATOM     30  C   UNL     1      45.711   4.518   8.922  0.00  0.00    +0.000 A 
ATOM     31  O   UNL     1      46.282   5.573   8.665  0.00  0.00    +0.000 OA
ATOM     32  C   UNL     1      44.873   4.309  10.088  0.00  0.00    +0.000 A 
ATOM     33  H   UNL     1      46.394   3.545   7.272  0.00  0.00    +0.000 HD
ENDBRANCH  20  23
ENDBRANCH  18  19
ENDBRANCH   4  18
TORSDOF 6
ENDMDL
MODEL 8
REMARK VINA RESULT:    -6.995      1.707      2.268
REMARK INTER + INTRA:         -10.134
REMARK INTER:                  -9.122
REMARK INTRA:                  -1.012
REMARK UNBOUND:                -0.686
REMARK  Name = 
REMARK  6 active torsions:
REMARK  status: ('A' for Active; 'I' for Inactive)
REMARK    1  A    between atoms: C_2  and  C_25
REMARK    2  A    between atoms: N_3  and  C_4
REMARK    3  A    between atoms: C_4  and  C_5
REMARK    4  A    between atoms: C_8  and  C_9
REMARK    5  A    between atoms: C_9  and  N_10
REMARK    6  A    between atoms: C_11  and  C_13
REMARK                            x       y       z     vdW  Elec       q    Type
REMARK                         _______ _______ _______ _____ _____    ______ ____
ROOT
ATOM      1  C   UNL     1      46.060   7.306  11.857  0.00  0.00    +0.000 A 
ATOM      2  C   UNL     1      45.643   8.283  12.771  0.00  0.00    +0.000 A 
ATOM      3  C   UNL     1      46.576   8.966  13.561  0.00  0.00    +0.000 A 
ATOM      4  C   UNL     1      47.947   8.702  13.435  0.00  0.00    +0.000 A 
ATOM      5  C   UNL     1      48.363   7.733  12.513  0.00  0.00    +0.000 A 
ATOM      6  C   UNL     1      47.430   7.052  11.724  0.00  0.00    +0.000 A 
ENDROOT
BRANCH   1   7
ATOM      7  C   UNL     1      45.053   6.509  11.074  0.00  0.00    +0.000 C 
BRANCH   7  10
ATOM      8  O   UNL     1      43.848   4.216  10.110  0.00  0.00    +0.000 OA
ATOM      9  C   UNL     1      44.945   4.531   9.651  0.00  0.00    +0.000 C 
ATOM     10  N   UNL     1      45.636   5.650  10.074  0.00  0.00    +0.000 N 
ATOM     11  H   UNL     1      46.533   5.872   9.655  0.00  0.00    +0.000 HD
BRANCH   9  12
ATOM     12  C   UNL     1      45.577   3.697   8.593  0.00  0.00    +0.000 A 
ATOM     13  C   UNL     1      45.741   2.331   8.784  0.00  0.00    +0.000 A 
ATOM     14  C   UNL     1      46.330   1.589   7.769  0.00  0.00    +0.000 A 
ATOM     15  C   UNL     1      46.726   2.255   6.625  0.00  0.00    +0.000 A 
ATOM     16  N   UNL     1      46.557   3.588   6.463  0.00  0.00    +0.000 NA
ATOM     17  N   UNL     1      45.973   4.321   7.459  0.00  0.00    +0.000 NA
ENDBRANCH   9  12
ENDBRANCH   7  10
ENDBRANCH   1   7
BRANCH   4  18
ATOM     18  C   UNL     1      48.956   9.412  14.300  0.00  0.00    +0.000 C 
BRANCH  18  19
ATOM     19  N   UNL     1      49.488   8.541  15.321  0.00  0.00    +0.000 N 
ATOM     20  C   UNL     1      50.722   7.958  15.176  0.00  0.00    +0.000 C 
ATOM     21  O   UNL     1      51.433   8.180  14.199  0.00  0.00    +0.000 OA
ATOM     22  H   UNL     1      48.836   8.175  16.009  0.00  0.00    +0.000 HD
BRANCH  20  23
ATOM     23  C   UNL     1      51.185   7.100  16.277  0.00  0.00    +0.000 A 
ATOM     24  C   UNL     1      52.441   7.315  16.829  0.00  0.00    +0.000 A 
ATOM     25  S   UNL     1      52.805   6.277  18.132  0.00  0.00    +0.000 S 
ATOM     26  C   UNL     1      51.318   5.465  17.969  0.00  0.00    +0.000 A 
ATOM     27  N   UNL     1      51.000   4.422  18.781  0.00  0.00    +0.000 NA
ATOM     28  C   UNL     1      49.861   3.872  18.521  0.00  0.00    +0.000 A 
ATOM     29  N   UNL     1      49.008   4.277  17.528  0.00  0.00    +0.000 N 
ATOM     30  C   UNL     1      49.271   5.348  16.707  0.00  0.00    +0.000 A 
ATOM     31  O   UNL     1      48.464   5.714  15.857  0.00  0.00    +0.000 OA
ATOM     32  C   UNL     1      50.549   5.991  16.946  0.00  0.00    +0.000 A 
ATOM     33  H   UNL     1      48.125   3.809  17.382  0.00  0.00    +0.000 HD
ENDBRANCH  20  23
ENDBRANCH  18  19
ENDBRANCH   4  18
TORSDOF 6
ENDMDL
MODEL 9
REMARK VINA RESULT:    -6.901      3.844      8.633
REMARK INTER + INTRA:         -10.008
REMARK INTER:                  -9.216
REMARK INTRA:                  -0.792
REMARK UNBOUND:                -0.686
REMARK  Name = 
REMARK  6 active torsions:
REMARK  status: ('A' for Active; 'I' for Inactive)
REMARK    1  A    between atoms: C_2  and  C_25
REMARK    2  A    between atoms: N_3  and  C_4
REMARK    3  A    between atoms: C_4  and  C_5
REMARK    4  A    between atoms: C_8  and  C_9
REMARK    5  A    between atoms: C_9  and  N_10
REMARK    6  A    between atoms: C_11  and  C_13
REMARK                            x       y       z     vdW  Elec       q    Type
REMARK                         _______ _______ _______ _____ _____    ______ ____
ROOT
ATOM      1  C   UNL     1      49.820   4.639  17.582  0.00  0.00    +0.000 A 
ATOM      2  C   UNL     1      48.513   4.631  17.075  0.00  0.00    +0.000 A 
ATOM      3  C   UNL     1      48.100   5.598  16.152  0.00  0.00    +0.000 A 
ATOM      4  C   UNL     1      48.992   6.579  15.699  0.00  0.00    +0.000 A 
ATOM      5  C   UNL     1      50.301   6.580  16.197  0.00  0.00    +0.000 A 
ATOM      6  C   UNL     1      50.714   5.613  17.120  0.00  0.00    +0.000 A 
ENDROOT
BRANCH   1   7
ATOM      7  C   UNL     1      50.237   3.656  18.642  0.00  0.00    +0.000 C 
BRANCH   7  10
ATOM      8  O   UNL     1      50.919   1.380  17.229  0.00  0.00    +0.000 OA
ATOM      9  C   UNL     1      51.822   2.028  17.755  0.00  0.00    +0.000 C 
ATOM     10  N   UNL     1      51.587   3.172  18.492  0.00  0.00    +0.000 N 
ATOM     11  H   UNL     1      52.370   3.677  18.896  0.00  0.00    +0.000 HD
BRANCH   9  12
ATOM     12  C   UNL     1      53.237   1.591  17.604  0.00  0.00    +0.000 A 
ATOM     13  C   UNL     1      54.252   2.535  17.508  0.00  0.00    +0.000 A 
ATOM     14  C   UNL     1      55.559   2.085  17.374  0.00  0.00    +0.000 A 
ATOM     15  C   UNL     1      55.775   0.721  17.339  0.00  0.00    +0.000 A 
ATOM     16  N   UNL     1      54.769  -0.179  17.433  0.00  0.00    +0.000 NA
ATOM     17  N   UNL     1      53.480   0.261  17.569  0.00  0.00    +0.000 NA
ENDBRANCH   9  12
ENDBRANCH   7  10
ENDBRANCH   1   7
BRANCH   4  18
ATOM     18  C   UNL     1      48.548   7.641  14.726  0.00  0.00    +0.000 C 
BRANCH  18  19
ATOM     19  N   UNL     1      47.292   7.301  14.103  0.00  0.00    +0.000 N 
ATOM     20  C   UNL     1      47.248   6.469  13.012  0.00  0.00    +0.000 C 
ATOM     21  O   UNL     1      48.264   5.955  12.548  0.00  0.00    +0.000 OA
ATOM     22  H   UNL     1      46.488   7.881  14.325  0.00  0.00    +0.000 HD
BRANCH  20  23
ATOM     23  C   UNL     1      45.921   6.167  12.459  0.00  0.00    +0.000 A 
ATOM     24  C   UNL     1      45.144   7.198  11.944  0.00  0.00    +0.000 A 
ATOM     25  S   UNL     1      43.659   6.677  11.289  0.00  0.00    +0.000 S 
ATOM     26  C   UNL     1      43.976   5.061  11.719  0.00  0.00    +0.000 A 
ATOM     27  N   UNL     1      43.070   4.079  11.459  0.00  0.00    +0.000 NA
ATOM     28  C   UNL     1      43.420   2.908  11.876  0.00  0.00    +0.000 A 
ATOM     29  N   UNL     1      44.597   2.629  12.519  0.00  0.00    +0.000 N 
ATOM     30  C   UNL     1      45.557   3.580  12.770  0.00  0.00    +0.000 A 
ATOM     31  O   UNL     1      46.621   3.288  13.307  0.00  0.00    +0.000 OA
ATOM     32  C   UNL     1      45.205   4.920  12.338  0.00  0.00    +0.000 A 
ATOM     33  H   UNL     1      44.816   1.687  12.812  0.00  0.00    +0.000 HD
ENDBRANCH  20  23
ENDBRANCH  18  19
ENDBRANCH   4  18
TORSDOF 6
ENDMDL
