MODEL 1
REMARK VINA RESULT:    -6.803      0.000      0.000
REMARK INTER + INTRA:         -10.379
REMARK INTER:                  -9.189
REMARK INTRA:                  -1.189
REMARK UNBOUND:                -1.189
REMARK  Name = 
REMARK  11 active torsions:
REMARK  status: ('A' for Active; 'I' for Inactive)
REMARK    1  A    between atoms: C_1  and  C_2
REMARK    2  A    between atoms: C_2  and  C_3
REMARK    3  A    between atoms: C_2  and  C_4
REMARK    4  A    between atoms: C_2  and  N_5
REMARK    5  A    between atoms: C_11  and  C_12
REMARK    6  A    between atoms: C_12  and  C_13
REMARK    7  A    between atoms: C_12  and  C_14
REMARK    8  A    between atoms: C_12  and  C_26
REMARK    9  A    between atoms: C_14  and  N_15
REMARK   10  A    between atoms: C_19  and  S_20
REMARK   11  A    between atoms: S_20  and  C_21
REMARK                            x       y       z     vdW  Elec       q    Type
REMARK                         _______ _______ _______ _____ _____    ______ ____
ROOT
ATOM      1  C   UNL     1      45.367   5.327  12.223  0.00  0.00    +0.000 C 
ATOM      2  C   UNL     1      44.095   5.136  13.097  0.00  0.00    +0.000 C 
ENDROOT
BRANCH   1   9
ATOM      3  N   UNL     1      51.742   9.288  12.308  0.00  0.00    +0.000 NA
ATOM      4  C   UNL     1      51.075   8.421  13.310  0.00  0.00    +0.000 C 
ATOM      5  C   UNL     1      49.795   7.728  12.825  0.00  0.00    +0.000 C 
ATOM      6  N   UNL     1      48.902   8.693  12.196  0.00  0.00    +0.000 N 
ATOM      7  C   UNL     1      47.561   8.433  12.138  0.00  0.00    +0.000 A 
ATOM      8  C   UNL     1      47.111   7.127  12.016  0.00  0.00    +0.000 A 
ATOM      9  C   UNL     1      45.779   6.808  12.261  0.00  0.00    +0.000 A 
ATOM     10  C   UNL     1      44.934   7.879  12.573  0.00  0.00    +0.000 A 
ATOM     11  C   UNL     1      45.434   9.170  12.560  0.00  0.00    +0.000 A 
ATOM     12  N   UNL     1      46.719   9.466  12.336  0.00  0.00    +0.000 NA
ATOM     13  C   UNL     1      49.416   9.718  11.304  0.00  0.00    +0.000 C 
ATOM     14  C   UNL     1      50.735  10.284  11.857  0.00  0.00    +0.000 C 
BRANCH   3  16
ATOM     15  C   UNL     1      51.857   7.469  10.468  0.00  0.00    +0.000 C 
ATOM     16  C   UNL     1      52.541   8.601  11.261  0.00  0.00    +0.000 C 
ATOM     17  C   UNL     1      53.803   7.995  11.924  0.00  0.00    +0.000 C 
ATOM     18  C   UNL     1      53.060   9.620  10.216  0.00  0.00    +0.000 C 
ENDBRANCH   3  16
ENDBRANCH   1   9
BRANCH   1  19
ATOM     19  C   UNL     1      45.039   4.863  10.765  0.00  0.00    +0.000 C 
ATOM     20  F   UNL     1      45.792   5.474   9.821  0.00  0.00    +0.000 F 
ATOM     21  F   UNL     1      45.226   3.532  10.593  0.00  0.00    +0.000 F 
ATOM     22  F   UNL     1      43.747   5.114  10.436  0.00  0.00    +0.000 F 
ENDBRANCH   1  19
BRANCH   1  23
ATOM     23  C   UNL     1      46.477   4.386  12.750  0.00  0.00    +0.000 C 
BRANCH  23  24
ATOM     24  N   UNL     1      46.237   3.976  14.128  0.00  0.00    +0.000 N 
ATOM     25  C   UNL     1      47.079   4.317  15.153  0.00  0.00    +0.000 A 
ATOM     26  C   UNL     1      47.833   5.484  15.172  0.00  0.00    +0.000 A 
ATOM     27  C   UNL     1      48.639   5.757  16.274  0.00  0.00    +0.000 A 
ATOM     28  C   UNL     1      48.648   4.855  17.329  0.00  0.00    +0.000 A 
ATOM     29  C   UNL     1      47.873   3.718  17.244  0.00  0.00    +0.000 A 
ATOM     30  N   UNL     1      47.077   3.448  16.183  0.00  0.00    +0.000 NA
ATOM     31  H   UNL     1      45.852   3.053  14.304  0.00  0.00    +0.000 HD
BRANCH  28  32
ATOM     32  S   UNL     1      49.715   5.084  18.710  0.00  0.00    +0.000 S 
ATOM     33  C   UNL     1      48.736   4.581  20.099  0.00  0.00    +0.000 C 
ATOM     34  O   UNL     1      50.815   4.163  18.574  0.00  0.00    +0.000 OA
ATOM     35  O   UNL     1      49.950   6.515  18.828  0.00  0.00    +0.000 OA
ENDBRANCH  28  32
ENDBRANCH  23  24
ENDBRANCH   1  23
TORSDOF 6
ENDMDL
MODEL 2
REMARK VINA RESULT:    -6.701      4.466      6.502
REMARK INTER + INTRA:         -10.240
REMARK INTER:                  -9.338
REMARK INTRA:                  -0.902
REMARK UNBOUND:                -1.189
REMARK  Name = 
REMARK  11 active torsions:
REMARK  status: ('A' for Active; 'I' for Inactive)
REMARK    1  A    between atoms: C_1  and  C_2
REMARK    2  A    between atoms: C_2  and  C_3
REMARK    3  A    between atoms: C_2  and  C_4
REMARK    4  A    between atoms: C_2  and  N_5
REMARK    5  A    between atoms: C_11  and  C_12
REMARK    6  A    between atoms: C_12  and  C_13
REMARK    7  A    between atoms: C_12  and  C_14
REMARK    8  A    between atoms: C_12  and  C_26
REMARK    9  A    between atoms: C_14  and  N_15
REMARK   10  A    between atoms: C_19  and  S_20
REMARK   11  A    between atoms: S_20  and  C_21
REMARK                            x       y       z     vdW  Elec       q    Type
REMARK                         _______ _______ _______ _____ _____    ______ ____
ROOT
ATOM      1  C   UNL     1      48.651   4.577  17.482  0.00  0.00    +0.000 C 
ATOM      2  C   UNL     1      49.087   3.085  17.484  0.00  0.00    +0.000 C 
ENDROOT
BRANCH   1   9
ATOM      3  N   UNL     1      49.875   9.449  11.904  0.00  0.00    +0.000 NA
ATOM      4  C   UNL     1      49.667   7.980  11.940  0.00  0.00    +0.000 C 
ATOM      5  C   UNL     1      49.364   7.396  13.326  0.00  0.00    +0.000 C 
ATOM      6  N   UNL     1      50.333   7.876  14.302  0.00  0.00    +0.000 N 
ATOM      7  C   UNL     1      50.568   7.147  15.434  0.00  0.00    +0.000 A 
ATOM      8  C   UNL     1      49.543   6.413  16.012  0.00  0.00    +0.000 A 
ATOM      9  C   UNL     1      49.817   5.436  16.965  0.00  0.00    +0.000 A 
ATOM     10  C   UNL     1      51.159   5.290  17.333  0.00  0.00    +0.000 A 
ATOM     11  C   UNL     1      52.110   6.142  16.797  0.00  0.00    +0.000 A 
ATOM     12  N   UNL     1      51.839   7.070  15.872  0.00  0.00    +0.000 NA
ATOM     13  C   UNL     1      50.769   9.262  14.306  0.00  0.00    +0.000 C 
ATOM     14  C   UNL     1      50.968   9.755  12.863  0.00  0.00    +0.000 C 
BRANCH   3  16
ATOM     15  C   UNL     1      47.295   9.580  12.105  0.00  0.00    +0.000 C 
ATOM     16  C   UNL     1      48.654  10.294  11.967  0.00  0.00    +0.000 C 
ATOM     17  C   UNL     1      48.587  11.155  10.681  0.00  0.00    +0.000 C 
ATOM     18  C   UNL     1      48.747  11.297  13.143  0.00  0.00    +0.000 C 
ENDBRANCH   3  16
ENDBRANCH   1   9
BRANCH   1  19
ATOM     19  C   UNL     1      48.251   4.977  18.941  0.00  0.00    +0.000 C 
ATOM     20  F   UNL     1      46.928   5.220  19.092  0.00  0.00    +0.000 F 
ATOM     21  F   UNL     1      48.562   4.016  19.843  0.00  0.00    +0.000 F 
ATOM     22  F   UNL     1      48.888   6.104  19.346  0.00  0.00    +0.000 F 
ENDBRANCH   1  19
BRANCH   1  23
ATOM     23  C   UNL     1      47.376   4.720  16.617  0.00  0.00    +0.000 C 
BRANCH  23  24
ATOM     24  N   UNL     1      47.391   3.822  15.469  0.00  0.00    +0.000 N 
ATOM     25  C   UNL     1      46.750   4.119  14.295  0.00  0.00    +0.000 A 
ATOM     26  C   UNL     1      46.559   5.414  13.831  0.00  0.00    +0.000 A 
ATOM     27  C   UNL     1      45.921   5.614  12.610  0.00  0.00    +0.000 A 
ATOM     28  C   UNL     1      45.509   4.502  11.887  0.00  0.00    +0.000 A 
ATOM     29  C   UNL     1      45.734   3.245  12.407  0.00  0.00    +0.000 A 
ATOM     30  N   UNL     1      46.363   3.040  13.588  0.00  0.00    +0.000 NA
ATOM     31  H   UNL     1      47.346   2.820  15.631  0.00  0.00    +0.000 HD
BRANCH  28  32
ATOM     32  S   UNL     1      44.610   4.679  10.384  0.00  0.00    +0.000 S 
ATOM     33  C   UNL     1      44.381   3.013   9.822  0.00  0.00    +0.000 C 
ATOM     34  O   UNL     1      43.318   5.229  10.707  0.00  0.00    +0.000 OA
ATOM     35  O   UNL     1      45.493   5.348   9.442  0.00  0.00    +0.000 OA
ENDBRANCH  28  32
ENDBRANCH  23  24
ENDBRANCH   1  23
TORSDOF 6
ENDMDL
MODEL 3
REMARK VINA RESULT:    -6.152      3.043      6.064
REMARK INTER + INTRA:          -9.499
REMARK INTER:                  -8.770
REMARK INTRA:                  -0.729
REMARK UNBOUND:                -1.189
REMARK  Name = 
REMARK  11 active torsions:
REMARK  status: ('A' for Active; 'I' for Inactive)
REMARK    1  A    between atoms: C_1  and  C_2
REMARK    2  A    between atoms: C_2  and  C_3
REMARK    3  A    between atoms: C_2  and  C_4
REMARK    4  A    between atoms: C_2  and  N_5
REMARK    5  A    between atoms: C_11  and  C_12
REMARK    6  A    between atoms: C_12  and  C_13
REMARK    7  A    between atoms: C_12  and  C_14
REMARK    8  A    between atoms: C_12  and  C_26
REMARK    9  A    between atoms: C_14  and  N_15
REMARK   10  A    between atoms: C_19  and  S_20
REMARK   11  A    between atoms: S_20  and  C_21
REMARK                            x       y       z     vdW  Elec       q    Type
REMARK                         _______ _______ _______ _____ _____    ______ ____
ROOT
ATOM      1  C   UNL     1      49.434   9.167  12.293  0.00  0.00    +0.000 C 
ATOM      2  C   UNL     1      49.956   7.799  11.770  0.00  0.00    +0.000 C 
ENDROOT
BRANCH   1   9
ATOM      3  N   UNL     1      43.972   4.427  10.284  0.00  0.00    +0.000 NA
ATOM      4  C   UNL     1      45.019   5.150   9.519  0.00  0.00    +0.000 C 
ATOM      5  C   UNL     1      45.999   5.970  10.368  0.00  0.00    +0.000 C 
ATOM      6  N   UNL     1      45.274   6.811  11.312  0.00  0.00    +0.000 N 
ATOM      7  C   UNL     1      45.867   7.940  11.803  0.00  0.00    +0.000 A 
ATOM      8  C   UNL     1      47.240   7.974  11.998  0.00  0.00    +0.000 A 
ATOM      9  C   UNL     1      47.899   9.183  12.199  0.00  0.00    +0.000 A 
ATOM     10  C   UNL     1      47.094  10.327  12.247  0.00  0.00    +0.000 A 
ATOM     11  C   UNL     1      45.719  10.197  12.162  0.00  0.00    +0.000 A 
ATOM     12  N   UNL     1      45.094   9.032  11.956  0.00  0.00    +0.000 NA
ATOM     13  C   UNL     1      44.119   6.303  12.033  0.00  0.00    +0.000 C 
ATOM     14  C   UNL     1      43.253   5.440  11.100  0.00  0.00    +0.000 C 
BRANCH   3  16
ATOM     15  C   UNL     1      45.526   3.270  12.004  0.00  0.00    +0.000 C 
ATOM     16  C   UNL     1      44.393   3.174  10.963  0.00  0.00    +0.000 C 
ATOM     17  C   UNL     1      44.849   2.160   9.885  0.00  0.00    +0.000 C 
ATOM     18  C   UNL     1      43.189   2.515  11.681  0.00  0.00    +0.000 C 
ENDBRANCH   3  16
ENDBRANCH   1   9
BRANCH   1  19
ATOM     19  C   UNL     1      50.071  10.303  11.426  0.00  0.00    +0.000 C 
ATOM     20  F   UNL     1      50.390  11.411  12.136  0.00  0.00    +0.000 F 
ATOM     21  F   UNL     1      51.212   9.906  10.813  0.00  0.00    +0.000 F 
ATOM     22  F   UNL     1      49.232  10.716  10.443  0.00  0.00    +0.000 F 
ENDBRANCH   1  19
BRANCH   1  23
ATOM     23  C   UNL     1      49.945   9.373  13.739  0.00  0.00    +0.000 C 
BRANCH  23  24
ATOM     24  N   UNL     1      50.678   8.212  14.230  0.00  0.00    +0.000 N 
ATOM     25  C   UNL     1      50.124   7.304  15.093  0.00  0.00    +0.000 A 
ATOM     26  C   UNL     1      48.767   7.008  15.130  0.00  0.00    +0.000 A 
ATOM     27  C   UNL     1      48.303   6.047  16.024  0.00  0.00    +0.000 A 
ATOM     28  C   UNL     1      49.221   5.403  16.842  0.00  0.00    +0.000 A 
ATOM     29  C   UNL     1      50.554   5.746  16.751  0.00  0.00    +0.000 A 
ATOM     30  N   UNL     1      51.017   6.671  15.878  0.00  0.00    +0.000 NA
ATOM     31  H   UNL     1      51.668   8.311  14.437  0.00  0.00    +0.000 HD
BRANCH  28  32
ATOM     32  S   UNL     1      48.697   4.250  18.064  0.00  0.00    +0.000 S 
ATOM     33  C   UNL     1      47.203   3.567  17.398  0.00  0.00    +0.000 C 
ATOM     34  O   UNL     1      49.683   3.202  18.132  0.00  0.00    +0.000 OA
ATOM     35  O   UNL     1      48.344   5.021  19.246  0.00  0.00    +0.000 OA
ENDBRANCH  28  32
ENDBRANCH  23  24
ENDBRANCH   1  23
TORSDOF 6
ENDMDL
MODEL 4
REMARK VINA RESULT:    -5.773      4.054      7.334
REMARK INTER + INTRA:          -8.987
REMARK INTER:                  -8.194
REMARK INTRA:                  -0.793
REMARK UNBOUND:                -1.189
REMARK  Name = 
REMARK  11 active torsions:
REMARK  status: ('A' for Active; 'I' for Inactive)
REMARK    1  A    between atoms: C_1  and  C_2
REMARK    2  A    between atoms: C_2  and  C_3
REMARK    3  A    between atoms: C_2  and  C_4
REMARK    4  A    between atoms: C_2  and  N_5
REMARK    5  A    between atoms: C_11  and  C_12
REMARK    6  A    between atoms: C_12  and  C_13
REMARK    7  A    between atoms: C_12  and  C_14
REMARK    8  A    between atoms: C_12  and  C_26
REMARK    9  A    between atoms: C_14  and  N_15
REMARK   10  A    between atoms: C_19  and  S_20
REMARK   11  A    between atoms: S_20  and  C_21
REMARK                            x       y       z     vdW  Elec       q    Type
REMARK                         _______ _______ _______ _____ _____    ______ ____
ROOT
ATOM      1  C   UNL     1      50.512   8.537  12.126  0.00  0.00    +0.000 C 
ATOM      2  C   UNL     1      49.749   9.799  11.630  0.00  0.00    +0.000 C 
ENDROOT
BRANCH   1   9
ATOM      3  N   UNL     1      49.122   6.673  19.263  0.00  0.00    +0.000 NA
ATOM      4  C   UNL     1      48.416   7.539  18.285  0.00  0.00    +0.000 C 
ATOM      5  C   UNL     1      49.027   7.569  16.879  0.00  0.00    +0.000 C 
ATOM      6  N   UNL     1      50.462   7.815  16.953  0.00  0.00    +0.000 N 
ATOM      7  C   UNL     1      51.110   8.357  15.878  0.00  0.00    +0.000 A 
ATOM      8  C   UNL     1      50.680   8.070  14.592  0.00  0.00    +0.000 A 
ATOM      9  C   UNL     1      51.113   8.832  13.511  0.00  0.00    +0.000 A 
ATOM     10  C   UNL     1      52.033   9.847  13.797  0.00  0.00    +0.000 A 
ATOM     11  C   UNL     1      52.503   9.996  15.091  0.00  0.00    +0.000 A 
ATOM     12  N   UNL     1      52.072   9.266  16.127  0.00  0.00    +0.000 NA
ATOM     13  C   UNL     1      51.282   7.165  17.961  0.00  0.00    +0.000 C 
ATOM     14  C   UNL     1      50.536   7.130  19.305  0.00  0.00    +0.000 C 
BRANCH   3  16
ATOM     15  C   UNL     1      49.877   4.381  18.322  0.00  0.00    +0.000 C 
ATOM     16  C   UNL     1      48.879   5.212  19.153  0.00  0.00    +0.000 C 
ATOM     17  C   UNL     1      47.476   4.992  18.533  0.00  0.00    +0.000 C 
ATOM     18  C   UNL     1      48.827   4.562  20.558  0.00  0.00    +0.000 C 
ENDBRANCH   3  16
ENDBRANCH   1   9
BRANCH   1  19
ATOM     19  C   UNL     1      51.625   8.190  11.083  0.00  0.00    +0.000 C 
ATOM     20  F   UNL     1      51.981   9.238  10.303  0.00  0.00    +0.000 F 
ATOM     21  F   UNL     1      52.765   7.754  11.670  0.00  0.00    +0.000 F 
ATOM     22  F   UNL     1      51.230   7.207  10.234  0.00  0.00    +0.000 F 
ENDBRANCH   1  19
BRANCH   1  23
ATOM     23  C   UNL     1      49.531   7.341  12.144  0.00  0.00    +0.000 C 
BRANCH  23  24
ATOM     24  N   UNL     1      48.149   7.764  11.959  0.00  0.00    +0.000 N 
ATOM     25  C   UNL     1      47.093   6.902  12.092  0.00  0.00    +0.000 A 
ATOM     26  C   UNL     1      47.101   5.803  12.941  0.00  0.00    +0.000 A 
ATOM     27  C   UNL     1      45.966   5.001  13.029  0.00  0.00    +0.000 A 
ATOM     28  C   UNL     1      44.853   5.340  12.271  0.00  0.00    +0.000 A 
ATOM     29  C   UNL     1      44.915   6.446  11.451  0.00  0.00    +0.000 A 
ATOM     30  N   UNL     1      46.009   7.239  11.366  0.00  0.00    +0.000 NA
ATOM     31  H   UNL     1      47.938   8.443  11.233  0.00  0.00    +0.000 HD
BRANCH  28  32
ATOM     32  S   UNL     1      43.420   4.319  12.255  0.00  0.00    +0.000 S 
ATOM     33  C   UNL     1      43.733   3.156  10.955  0.00  0.00    +0.000 C 
ATOM     34  O   UNL     1      43.377   3.601  13.504  0.00  0.00    +0.000 OA
ATOM     35  O   UNL     1      42.308   5.160  11.839  0.00  0.00    +0.000 OA
ENDBRANCH  28  32
ENDBRANCH  23  24
ENDBRANCH   1  23
TORSDOF 6
ENDMDL
MODEL 5
REMARK VINA RESULT:    -5.463      4.294      6.508
REMARK INTER + INTRA:          -8.569
REMARK INTER:                  -7.783
REMARK INTRA:                  -0.785
REMARK UNBOUND:                -1.189
REMARK  Name = 
REMARK  11 active torsions:
REMARK  status: ('A' for Active; 'I' for Inactive)
REMARK    1  A    between atoms: C_1  and  C_2
REMARK    2  A    between atoms: C_2  and  C_3
REMARK    3  A    between atoms: C_2  and  C_4
REMARK    4  A    between atoms: C_2  and  N_5
REMARK    5  A    between atoms: C_11  and  C_12
REMARK    6  A    between atoms: C_12  and  C_13
REMARK    7  A    between atoms: C_12  and  C_14
REMARK    8  A    between atoms: C_12  and  C_26
REMARK    9  A    between atoms: C_14  and  N_15
REMARK   10  A    between atoms: C_19  and  S_20
REMARK   11  A    between atoms: S_20  and  C_21
REMARK                            x       y       z     vdW  Elec       q    Type
REMARK                         _______ _______ _______ _____ _____    ______ ____
ROOT
ATOM      1  C   UNL     1      49.962   8.917  13.338  0.00  0.00    +0.000 C 
ATOM      2  C   UNL     1      49.952   8.212  14.724  0.00  0.00    +0.000 C 
ENDROOT
BRANCH   1   9
ATOM      3  N   UNL     1      54.788   6.122   8.314  0.00  0.00    +0.000 NA
ATOM      4  C   UNL     1      54.198   5.580   9.564  0.00  0.00    +0.000 C 
ATOM      5  C   UNL     1      53.169   6.489  10.248  0.00  0.00    +0.000 C 
ATOM      6  N   UNL     1      53.697   7.840  10.386  0.00  0.00    +0.000 N 
ATOM      7  C   UNL     1      53.200   8.663  11.358  0.00  0.00    +0.000 A 
ATOM      8  C   UNL     1      51.870   8.564  11.738  0.00  0.00    +0.000 A 
ATOM      9  C   UNL     1      51.420   9.159  12.912  0.00  0.00    +0.000 A 
ATOM     10  C   UNL     1      52.366   9.893  13.637  0.00  0.00    +0.000 A 
ATOM     11  C   UNL     1      53.646  10.043  13.131  0.00  0.00    +0.000 A 
ATOM     12  N   UNL     1      54.074   9.457  12.006  0.00  0.00    +0.000 NA
ATOM     13  C   UNL     1      54.442   8.467   9.307  0.00  0.00    +0.000 C 
ATOM     14  C   UNL     1      55.383   7.442   8.653  0.00  0.00    +0.000 C 
BRANCH   3  16
ATOM     15  C   UNL     1      52.645   6.873   7.069  0.00  0.00    +0.000 C 
ATOM     16  C   UNL     1      53.945   6.045   7.094  0.00  0.00    +0.000 C 
ATOM     17  C   UNL     1      53.547   4.565   6.864  0.00  0.00    +0.000 C 
ATOM     18  C   UNL     1      54.758   6.463   5.844  0.00  0.00    +0.000 C 
ENDBRANCH   3  16
ENDBRANCH   1   9
BRANCH   1  19
ATOM     19  C   UNL     1      49.173  10.262  13.463  0.00  0.00    +0.000 C 
ATOM     20  F   UNL     1      47.833  10.118  13.334  0.00  0.00    +0.000 F 
ATOM     21  F   UNL     1      49.373  10.870  14.657  0.00  0.00    +0.000 F 
ATOM     22  F   UNL     1      49.547  11.155  12.512  0.00  0.00    +0.000 F 
ENDBRANCH   1  19
BRANCH   1  23
ATOM     23  C   UNL     1      49.185   8.038  12.329  0.00  0.00    +0.000 C 
BRANCH  23  24
ATOM     24  N   UNL     1      48.792   6.759  12.907  0.00  0.00    +0.000 N 
ATOM     25  C   UNL     1      47.565   6.195  12.678  0.00  0.00    +0.000 A 
ATOM     26  C   UNL     1      46.838   6.385  11.510  0.00  0.00    +0.000 A 
ATOM     27  C   UNL     1      45.611   5.745  11.358  0.00  0.00    +0.000 A 
ATOM     28  C   UNL     1      45.161   4.921  12.381  0.00  0.00    +0.000 A 
ATOM     29  C   UNL     1      45.936   4.777  13.513  0.00  0.00    +0.000 A 
ATOM     30  N   UNL     1      47.135   5.386  13.666  0.00  0.00    +0.000 NA
ATOM     31  H   UNL     1      49.092   6.537  13.852  0.00  0.00    +0.000 HD
BRANCH  28  32
ATOM     32  S   UNL     1      43.578   4.158  12.303  0.00  0.00    +0.000 S 
ATOM     33  C   UNL     1      42.475   5.492  11.919  0.00  0.00    +0.000 C 
ATOM     34  O   UNL     1      43.585   3.242  11.190  0.00  0.00    +0.000 OA
ATOM     35  O   UNL     1      43.265   3.696  13.647  0.00  0.00    +0.000 OA
ENDBRANCH  28  32
ENDBRANCH  23  24
ENDBRANCH   1  23
TORSDOF 6
ENDMDL
MODEL 6
REMARK VINA RESULT:    -5.290      5.049      7.306
REMARK INTER + INTRA:          -8.336
REMARK INTER:                  -7.598
REMARK INTRA:                  -0.737
REMARK UNBOUND:                -1.189
REMARK  Name = 
REMARK  11 active torsions:
REMARK  status: ('A' for Active; 'I' for Inactive)
REMARK    1  A    between atoms: C_1  and  C_2
REMARK    2  A    between atoms: C_2  and  C_3
REMARK    3  A    between atoms: C_2  and  C_4
REMARK    4  A    between atoms: C_2  and  N_5
REMARK    5  A    between atoms: C_11  and  C_12
REMARK    6  A    between atoms: C_12  and  C_13
REMARK    7  A    between atoms: C_12  and  C_14
REMARK    8  A    between atoms: C_12  and  C_26
REMARK    9  A    between atoms: C_14  and  N_15
REMARK   10  A    between atoms: C_19  and  S_20
REMARK   11  A    between atoms: S_20  and  C_21
REMARK                            x       y       z     vdW  Elec       q    Type
REMARK                         _______ _______ _______ _____ _____    ______ ____
ROOT
ATOM      1  C   UNL     1      48.659   3.364  16.940  0.00  0.00    +0.000 C 
ATOM      2  C   UNL     1      48.641   1.931  16.336  0.00  0.00    +0.000 C 
ENDROOT
BRANCH   1   9
ATOM      3  N   UNL     1      53.225   9.317  16.711  0.00  0.00    +0.000 NA
ATOM      4  C   UNL     1      52.692   8.407  15.667  0.00  0.00    +0.000 C 
ATOM      5  C   UNL     1      51.702   7.348  16.166  0.00  0.00    +0.000 C 
ATOM      6  N   UNL     1      52.243   6.655  17.328  0.00  0.00    +0.000 N 
ATOM      7  C   UNL     1      51.798   5.398  17.632  0.00  0.00    +0.000 A 
ATOM      8  C   UNL     1      50.486   5.041  17.356  0.00  0.00    +0.000 A 
ATOM      9  C   UNL     1      50.096   3.705  17.368  0.00  0.00    +0.000 A 
ATOM     10  C   UNL     1      51.080   2.776  17.725  0.00  0.00    +0.000 A 
ATOM     11  C   UNL     1      52.335   3.222  18.102  0.00  0.00    +0.000 A 
ATOM     12  N   UNL     1      52.706   4.508  18.076  0.00  0.00    +0.000 NA
ATOM     13  C   UNL     1      52.939   7.381  18.377  0.00  0.00    +0.000 C 
ATOM     14  C   UNL     1      53.842   8.461  17.758  0.00  0.00    +0.000 C 
BRANCH   3  16
ATOM     15  C   UNL     1      50.857  10.044  17.470  0.00  0.00    +0.000 C 
ATOM     16  C   UNL     1      52.323  10.408  17.164  0.00  0.00    +0.000 C 
ATOM     17  C   UNL     1      52.302  11.511  16.077  0.00  0.00    +0.000 C 
ATOM     18  C   UNL     1      52.885  11.083  18.440  0.00  0.00    +0.000 C 
ENDBRANCH   3  16
ENDBRANCH   1   9
BRANCH   1  19
ATOM     19  C   UNL     1      47.678   3.398  18.159  0.00  0.00    +0.000 C 
ATOM     20  F   UNL     1      48.298   3.287  19.356  0.00  0.00    +0.000 F 
ATOM     21  F   UNL     1      46.960   4.546  18.211  0.00  0.00    +0.000 F 
ATOM     22  F   UNL     1      46.776   2.385  18.107  0.00  0.00    +0.000 F 
ENDBRANCH   1  19
BRANCH   1  23
ATOM     23  C   UNL     1      48.099   4.352  15.890  0.00  0.00    +0.000 C 
BRANCH  23  24
ATOM     24  N   UNL     1      47.589   3.665  14.710  0.00  0.00    +0.000 N 
ATOM     25  C   UNL     1      46.595   4.189  13.927  0.00  0.00    +0.000 A 
ATOM     26  C   UNL     1      46.387   5.553  13.760  0.00  0.00    +0.000 A 
ATOM     27  C   UNL     1      45.367   5.989  12.918  0.00  0.00    +0.000 A 
ATOM     28  C   UNL     1      44.598   5.039  12.260  0.00  0.00    +0.000 A 
ATOM     29  C   UNL     1      44.862   3.702  12.471  0.00  0.00    +0.000 A 
ATOM     30  N   UNL     1      45.857   3.267  13.278  0.00  0.00    +0.000 NA
ATOM     31  H   UNL     1      47.498   2.654  14.734  0.00  0.00    +0.000 HD
BRANCH  28  32
ATOM     32  S   UNL     1      43.230   5.513  11.259  0.00  0.00    +0.000 S 
ATOM     33  C   UNL     1      43.446   7.258  11.034  0.00  0.00    +0.000 C 
ATOM     34  O   UNL     1      43.378   4.869   9.978  0.00  0.00    +0.000 OA
ATOM     35  O   UNL     1      42.033   5.314  12.061  0.00  0.00    +0.000 OA
ENDBRANCH  28  32
ENDBRANCH  23  24
ENDBRANCH   1  23
TORSDOF 6
ENDMDL
MODEL 7
REMARK VINA RESULT:    -5.153      4.558      6.151
REMARK INTER + INTRA:          -8.150
REMARK INTER:                  -7.605
REMARK INTRA:                  -0.545
REMARK UNBOUND:                -1.189
REMARK  Name = 
REMARK  11 active torsions:
REMARK  status: ('A' for Active; 'I' for Inactive)
REMARK    1  A    between atoms: C_1  and  C_2
REMARK    2  A    between atoms: C_2  and  C_3
REMARK    3  A    between atoms: C_2  and  C_4
REMARK    4  A    between atoms: C_2  and  N_5
REMARK    5  A    between atoms: C_11  and  C_12
REMARK    6  A    between atoms: C_12  and  C_13
REMARK    7  A    between atoms: C_12  and  C_14
REMARK    8  A    between atoms: C_12  and  C_26
REMARK    9  A    between atoms: C_14  and  N_15
REMARK   10  A    between atoms: C_19  and  S_20
REMARK   11  A    between atoms: S_20  and  C_21
REMARK                            x       y       z     vdW  Elec       q    Type
REMARK                         _______ _______ _______ _____ _____    ______ ____
ROOT
ATOM      1  C   UNL     1      49.112   8.371  14.778  0.00  0.00    +0.000 C 
ATOM      2  C   UNL     1      49.984   7.090  14.904  0.00  0.00    +0.000 C 
ENDROOT
BRANCH   1   9
ATOM      3  N   UNL     1      54.771   8.214   9.849  0.00  0.00    +0.000 NA
ATOM      4  C   UNL     1      54.715   8.146  11.330  0.00  0.00    +0.000 C 
ATOM      5  C   UNL     1      53.303   8.131  11.930  0.00  0.00    +0.000 C 
ATOM      6  N   UNL     1      52.497   9.202  11.361  0.00  0.00    +0.000 N 
ATOM      7  C   UNL     1      51.426   9.686  12.059  0.00  0.00    +0.000 A 
ATOM      8  C   UNL     1      50.693   8.840  12.879  0.00  0.00    +0.000 A 
ATOM      9  C   UNL     1      49.808   9.354  13.821  0.00  0.00    +0.000 A 
ATOM     10  C   UNL     1      49.668  10.747  13.845  0.00  0.00    +0.000 A 
ATOM     11  C   UNL     1      50.346  11.516  12.915  0.00  0.00    +0.000 A 
ATOM     12  N   UNL     1      51.206  11.014  12.020  0.00  0.00    +0.000 NA
ATOM     13  C   UNL     1      52.552   9.508   9.941  0.00  0.00    +0.000 C 
ATOM     14  C   UNL     1      54.004   9.420   9.440  0.00  0.00    +0.000 C 
BRANCH   3  16
ATOM     15  C   UNL     1      53.027   6.537   8.923  0.00  0.00    +0.000 C 
ATOM     16  C   UNL     1      54.499   6.950   9.116  0.00  0.00    +0.000 C 
ATOM     17  C   UNL     1      55.205   5.789   9.860  0.00  0.00    +0.000 C 
ATOM     18  C   UNL     1      55.133   6.995   7.703  0.00  0.00    +0.000 C 
ENDBRANCH   3  16
ENDBRANCH   1   9
BRANCH   1  19
ATOM     19  C   UNL     1      48.935   8.991  16.203  0.00  0.00    +0.000 C 
ATOM     20  F   UNL     1      47.887   9.842  16.297  0.00  0.00    +0.000 F 
ATOM     21  F   UNL     1      48.740   8.048  17.156  0.00  0.00    +0.000 F 
ATOM     22  F   UNL     1      50.028   9.699  16.583  0.00  0.00    +0.000 F 
ENDBRANCH   1  19
BRANCH   1  23
ATOM     23  C   UNL     1      47.701   7.965  14.291  0.00  0.00    +0.000 C 
BRANCH  23  24
ATOM     24  N   UNL     1      47.554   6.518  14.187  0.00  0.00    +0.000 N 
ATOM     25  C   UNL     1      46.750   5.927  13.248  0.00  0.00    +0.000 A 
ATOM     26  C   UNL     1      46.489   6.482  12.002  0.00  0.00    +0.000 A 
ATOM     27  C   UNL     1      45.681   5.790  11.103  0.00  0.00    +0.000 A 
ATOM     28  C   UNL     1      45.174   4.554  11.483  0.00  0.00    +0.000 A 
ATOM     29  C   UNL     1      45.477   4.063  12.735  0.00  0.00    +0.000 A 
ATOM     30  N   UNL     1      46.270   4.722  13.612  0.00  0.00    +0.000 NA
ATOM     31  H   UNL     1      47.538   5.965  15.039  0.00  0.00    +0.000 HD
BRANCH  28  32
ATOM     32  S   UNL     1      44.068   3.667  10.440  0.00  0.00    +0.000 S 
ATOM     33  C   UNL     1      45.115   2.538   9.562  0.00  0.00    +0.000 C 
ATOM     34  O   UNL     1      43.184   2.903  11.284  0.00  0.00    +0.000 OA
ATOM     35  O   UNL     1      43.539   4.622   9.478  0.00  0.00    +0.000 OA
ENDBRANCH  28  32
ENDBRANCH  23  24
ENDBRANCH   1  23
TORSDOF 6
ENDMDL
MODEL 8
REMARK VINA RESULT:    -5.078      4.932      7.120
REMARK INTER + INTRA:          -8.048
REMARK INTER:                  -7.371
REMARK INTRA:                  -0.677
REMARK UNBOUND:                -1.189
REMARK  Name = 
REMARK  11 active torsions:
REMARK  status: ('A' for Active; 'I' for Inactive)
REMARK    1  A    between atoms: C_1  and  C_2
REMARK    2  A    between atoms: C_2  and  C_3
REMARK    3  A    between atoms: C_2  and  C_4
REMARK    4  A    between atoms: C_2  and  N_5
REMARK    5  A    between atoms: C_11  and  C_12
REMARK    6  A    between atoms: C_12  and  C_13
REMARK    7  A    between atoms: C_12  and  C_14
REMARK    8  A    between atoms: C_12  and  C_26
REMARK    9  A    between atoms: C_14  and  N_15
REMARK   10  A    between atoms: C_19  and  S_20
REMARK   11  A    between atoms: S_20  and  C_21
REMARK                            x       y       z     vdW  Elec       q    Type
REMARK                         _______ _______ _______ _____ _____    ______ ____
ROOT
ATOM      1  C   UNL     1      48.658   5.106  18.068  0.00  0.00    +0.000 C 
ATOM      2  C   UNL     1      48.392   3.576  18.145  0.00  0.00    +0.000 C 
ENDROOT
BRANCH   1   9
ATOM      3  N   UNL     1      54.822   8.485  15.433  0.00  0.00    +0.000 NA
ATOM      4  C   UNL     1      54.127   7.223  15.077  0.00  0.00    +0.000 C 
ATOM      5  C   UNL     1      52.823   6.957  15.840  0.00  0.00    +0.000 C 
ATOM      6  N   UNL     1      53.028   7.131  17.272  0.00  0.00    +0.000 N 
ATOM      7  C   UNL     1      52.198   6.497  18.155  0.00  0.00    +0.000 A 
ATOM      8  C   UNL     1      50.868   6.283  17.825  0.00  0.00    +0.000 A 
ATOM      9  C   UNL     1      50.090   5.387  18.553  0.00  0.00    +0.000 A 
ATOM     10  C   UNL     1      50.711   4.777  19.649  0.00  0.00    +0.000 A 
ATOM     11  C   UNL     1      52.006   5.132  19.984  0.00  0.00    +0.000 A 
ATOM     12  N   UNL     1      52.751   5.985  19.271  0.00  0.00    +0.000 NA
ATOM     13  C   UNL     1      53.822   8.233  17.787  0.00  0.00    +0.000 C 
ATOM     14  C   UNL     1      55.060   8.450  16.900  0.00  0.00    +0.000 C 
BRANCH   3  16
ATOM     15  C   UNL     1      53.074  10.391  15.597  0.00  0.00    +0.000 C 
ATOM     16  C   UNL     1      54.261   9.736  14.861  0.00  0.00    +0.000 C 
ATOM     17  C   UNL     1      53.795   9.448  13.412  0.00  0.00    +0.000 C 
ATOM     18  C   UNL     1      55.360  10.821  14.745  0.00  0.00    +0.000 C 
ENDBRANCH   3  16
ENDBRANCH   1   9
BRANCH   1  19
ATOM     19  C   UNL     1      47.600   5.838  18.958  0.00  0.00    +0.000 C 
ATOM     20  F   UNL     1      47.685   7.187  18.901  0.00  0.00    +0.000 F 
ATOM     21  F   UNL     1      46.328   5.525  18.611  0.00  0.00    +0.000 F 
ATOM     22  F   UNL     1      47.731   5.509  20.268  0.00  0.00    +0.000 F 
ENDBRANCH   1  19
BRANCH   1  23
ATOM     23  C   UNL     1      48.418   5.579  16.614  0.00  0.00    +0.000 C 
BRANCH  23  24
ATOM     24  N   UNL     1      47.746   4.563  15.813  0.00  0.00    +0.000 N 
ATOM     25  C   UNL     1      47.132   4.853  14.623  0.00  0.00    +0.000 A 
ATOM     26  C   UNL     1      47.544   5.872  13.775  0.00  0.00    +0.000 A 
ATOM     27  C   UNL     1      46.874   6.071  12.571  0.00  0.00    +0.000 A 
ATOM     28  C   UNL     1      45.818   5.226  12.252  0.00  0.00    +0.000 A 
ATOM     29  C   UNL     1      45.465   4.233  13.141  0.00  0.00    +0.000 A 
ATOM     30  N   UNL     1      46.117   4.024  14.309  0.00  0.00    +0.000 NA
ATOM     31  H   UNL     1      47.227   3.830  16.288  0.00  0.00    +0.000 HD
BRANCH  28  32
ATOM     32  S   UNL     1      44.862   5.478  10.797  0.00  0.00    +0.000 S 
ATOM     33  C   UNL     1      43.967   3.960  10.602  0.00  0.00    +0.000 C 
ATOM     34  O   UNL     1      43.916   6.530  11.068  0.00  0.00    +0.000 OA
ATOM     35  O   UNL     1      45.800   5.585   9.690  0.00  0.00    +0.000 OA
ENDBRANCH  28  32
ENDBRANCH  23  24
ENDBRANCH   1  23
TORSDOF 6
ENDMDL
MODEL 9
REMARK VINA RESULT:    -4.984      1.713      2.211
REMARK INTER + INTRA:          -7.922
REMARK INTER:                  -8.147
REMARK INTRA:                   0.225
REMARK UNBOUND:                -1.189
REMARK  Name = 
REMARK  11 active torsions:
REMARK  status: ('A' for Active; 'I' for Inactive)
REMARK    1  A    between atoms: C_1  and  C_2
REMARK    2  A    between atoms: C_2  and  C_3
REMARK    3  A    between atoms: C_2  and  C_4
REMARK    4  A    between atoms: C_2  and  N_5
REMARK    5  A    between atoms: C_11  and  C_12
REMARK    6  A    between atoms: C_12  and  C_13
REMARK    7  A    between atoms: C_12  and  C_14
REMARK    8  A    between atoms: C_12  and  C_26
REMARK    9  A    between atoms: C_14  and  N_15
REMARK   10  A    between atoms: C_19  and  S_20
REMARK   11  A    between atoms: S_20  and  C_21
REMARK                            x       y       z     vdW  Elec       q    Type
REMARK                         _______ _______ _______ _____ _____    ______ ____
ROOT
ATOM      1  C   UNL     1      44.554   5.825  11.946  0.00  0.00    +0.000 C 
ATOM      2  C   UNL     1      43.008   5.666  11.899  0.00  0.00    +0.000 C 
ENDROOT
BRANCH   1   9
ATOM      3  N   UNL     1      49.836  10.498  14.516  0.00  0.00    +0.000 NA
ATOM      4  C   UNL     1      48.697   9.802  15.163  0.00  0.00    +0.000 C 
ATOM      5  C   UNL     1      47.905   8.856  14.251  0.00  0.00    +0.000 C 
ATOM      6  N   UNL     1      47.553   9.527  13.007  0.00  0.00    +0.000 N 
ATOM      7  C   UNL     1      46.478   9.089  12.284  0.00  0.00    +0.000 A 
ATOM      8  C   UNL     1      46.147   7.742  12.280  0.00  0.00    +0.000 A 
ATOM      9  C   UNL     1      44.906   7.316  11.817  0.00  0.00    +0.000 A 
ATOM     10  C   UNL     1      44.058   8.310  11.315  0.00  0.00    +0.000 A 
ATOM     11  C   UNL     1      44.507   9.618  11.244  0.00  0.00    +0.000 A 
ATOM     12  N   UNL     1      45.698  10.020  11.703  0.00  0.00    +0.000 NA
ATOM     13  C   UNL     1      48.507  10.380  12.319  0.00  0.00    +0.000 C 
ATOM     14  C   UNL     1      49.289  11.224  13.340  0.00  0.00    +0.000 C 
BRANCH   3  16
ATOM     15  C   UNL     1      51.188   8.879  13.012  0.00  0.00    +0.000 C 
ATOM     16  C   UNL     1      51.073   9.700  14.311  0.00  0.00    +0.000 C 
ATOM     17  C   UNL     1      51.217   8.708  15.492  0.00  0.00    +0.000 C 
ATOM     18  C   UNL     1      52.324  10.611  14.370  0.00  0.00    +0.000 C 
ENDBRANCH   3  16
ENDBRANCH   1   9
BRANCH   1  19
ATOM     19  C   UNL     1      45.173   4.989  10.777  0.00  0.00    +0.000 C 
ATOM     20  F   UNL     1      46.241   5.582  10.194  0.00  0.00    +0.000 F 
ATOM     21  F   UNL     1      45.595   3.767  11.182  0.00  0.00    +0.000 F 
ATOM     22  F   UNL     1      44.274   4.774   9.783  0.00  0.00    +0.000 F 
ENDBRANCH   1  19
BRANCH   1  23
ATOM     23  C   UNL     1      45.076   5.201  13.262  0.00  0.00    +0.000 C 
BRANCH  23  24
ATOM     24  N   UNL     1      46.502   5.436  13.451  0.00  0.00    +0.000 N 
ATOM     25  C   UNL     1      47.146   5.145  14.624  0.00  0.00    +0.000 A 
ATOM     26  C   UNL     1      46.758   4.122  15.480  0.00  0.00    +0.000 A 
ATOM     27  C   UNL     1      47.495   3.884  16.637  0.00  0.00    +0.000 A 
ATOM     28  C   UNL     1      48.609   4.674  16.888  0.00  0.00    +0.000 A 
ATOM     29  C   UNL     1      48.937   5.670  15.994  0.00  0.00    +0.000 A 
ATOM     30  N   UNL     1      48.235   5.903  14.861  0.00  0.00    +0.000 NA
ATOM     31  H   UNL     1      46.921   6.264  13.036  0.00  0.00    +0.000 HD
BRANCH  28  32
ATOM     32  S   UNL     1      49.530   4.497  18.377  0.00  0.00    +0.000 S 
ATOM     33  C   UNL     1      49.947   6.160  18.826  0.00  0.00    +0.000 C 
ATOM     34  O   UNL     1      48.645   3.965  19.382  0.00  0.00    +0.000 OA
ATOM     35  O   UNL     1      50.764   3.809  18.030  0.00  0.00    +0.000 OA
ENDBRANCH  28  32
ENDBRANCH  23  24
ENDBRANCH   1  23
TORSDOF 6
ENDMDL
