MODEL 1
REMARK VINA RESULT:    -8.178      0.000      0.000
REMARK INTER + INTRA:         -13.385
REMARK INTER:                 -12.003
REMARK INTRA:                  -1.382
REMARK UNBOUND:                -1.382
REMARK  Name = 
REMARK  10 active torsions:
REMARK  status: ('A' for Active; 'I' for Inactive)
REMARK    1  A    between atoms: C_1  and  O_2
REMARK    2  A    between atoms: O_2  and  C_3
REMARK    3  A    between atoms: C_10  and  C_11
REMARK    4  A    between atoms: N_13  and  C_14
REMARK    5  A    between atoms: C_14  and  C_15
REMARK    6  A    between atoms: C_18  and  C_19
REMARK    7  A    between atoms: C_19  and  N_20
REMARK    8  A    between atoms: N_20  and  C_21
REMARK    9  A    between atoms: C_21  and  C_22
REMARK   10  A    between atoms: C_25  and  C_26
REMARK                            x       y       z     vdW  Elec       q    Type
REMARK                         _______ _______ _______ _____ _____    ______ ____
ROOT
ATOM      1  C   UNL     1      47.032   6.089  12.897  0.00  0.00    +0.000 A 
ATOM      2  C   UNL     1      46.529   6.567  11.679  0.00  0.00    +0.000 A 
ATOM      3  C   UNL     1      45.332   6.064  11.150  0.00  0.00    +0.000 A 
ATOM      4  C   UNL     1      44.610   5.066  11.825  0.00  0.00    +0.000 A 
ATOM      5  C   UNL     1      45.114   4.596  13.048  0.00  0.00    +0.000 A 
ATOM      6  C   UNL     1      46.305   5.106  13.580  0.00  0.00    +0.000 A 
ENDROOT
BRANCH   1   7
ATOM      7  C   UNL     1      48.305   6.651  13.482  0.00  0.00    +0.000 C 
BRANCH   7  10
ATOM      8  C   UNL     1      49.085   7.422  15.687  0.00  0.00    +0.000 C 
ATOM      9  O   UNL     1      49.895   8.189  15.168  0.00  0.00    +0.000 OA
ATOM     10  N   UNL     1      48.271   6.631  14.925  0.00  0.00    +0.000 N 
ATOM     11  H   UNL     1      47.650   5.966  15.367  0.00  0.00    +0.000 HD
BRANCH   8  19
ATOM     12  C   UNL     1      48.876   4.778  17.882  0.00  0.00    +0.000 A 
ATOM     13  N   UNL     1      48.793   3.949  18.941  0.00  0.00    +0.000 NA
ATOM     14  C   UNL     1      48.689   4.488  20.157  0.00  0.00    +0.000 A 
ATOM     15  N   UNL     1      48.658   5.784  20.455  0.00  0.00    +0.000 NA
ATOM     16  C   UNL     1      48.755   6.576  19.373  0.00  0.00    +0.000 A 
ATOM     17  S   UNL     1      48.730   8.262  19.566  0.00  0.00    +0.000 S 
ATOM     18  C   UNL     1      48.879   8.506  17.890  0.00  0.00    +0.000 A 
ATOM     19  C   UNL     1      48.956   7.330  17.153  0.00  0.00    +0.000 A 
ATOM     20  C   UNL     1      48.878   6.175  18.046  0.00  0.00    +0.000 A 
BRANCH  12  22
ATOM     21  C   UNL     1      47.965   3.268  16.363  0.00  0.00    +0.000 C 
ATOM     22  O   UNL     1      49.001   4.210  16.631  0.00  0.00    +0.000 OA
ENDBRANCH  12  22
ENDBRANCH   8  19
ENDBRANCH   7  10
ENDBRANCH   1   7
BRANCH   4  23
ATOM     23  C   UNL     1      43.307   4.523  11.267  0.00  0.00    +0.000 C 
BRANCH  23  24
ATOM     24  N   UNL     1      43.492   3.976   9.923  0.00  0.00    +0.000 NA
ATOM     25  H   UNL     1      44.047   4.637   9.379  0.00  0.00    +0.000 HD
BRANCH  24  26
ATOM     26  C   UNL     1      44.219   2.697   9.942  0.00  0.00    +0.000 C 
BRANCH  26  27
ATOM     27  C   UNL     1      45.208   2.592   8.790  0.00  0.00    +0.000 A 
ATOM     28  C   UNL     1      45.422   3.684   7.950  0.00  0.00    +0.000 A 
ATOM     29  C   UNL     1      46.354   3.577   6.919  0.00  0.00    +0.000 A 
ATOM     30  C   UNL     1      47.047   2.383   6.734  0.00  0.00    +0.000 A 
ATOM     31  C   UNL     1      48.053   2.218   5.640  0.00  0.00    +0.000 C 
ATOM     32  C   UNL     1      46.763   1.341   7.610  0.00  0.00    +0.000 A 
ATOM     33  N   UNL     1      45.870   1.418   8.628  0.00  0.00    +0.000 NA
ENDBRANCH  26  27
ENDBRANCH  24  26
ENDBRANCH  23  24
ENDBRANCH   4  23
TORSDOF 8
ENDMDL
MODEL 2
REMARK VINA RESULT:    -6.988      1.895      2.182
REMARK INTER + INTRA:         -11.638
REMARK INTER:                 -10.429
REMARK INTRA:                  -1.209
REMARK UNBOUND:                -1.382
REMARK  Name = 
REMARK  10 active torsions:
REMARK  status: ('A' for Active; 'I' for Inactive)
REMARK    1  A    between atoms: C_1  and  O_2
REMARK    2  A    between atoms: O_2  and  C_3
REMARK    3  A    between atoms: C_10  and  C_11
REMARK    4  A    between atoms: N_13  and  C_14
REMARK    5  A    between atoms: C_14  and  C_15
REMARK    6  A    between atoms: C_18  and  C_19
REMARK    7  A    between atoms: C_19  and  N_20
REMARK    8  A    between atoms: N_20  and  C_21
REMARK    9  A    between atoms: C_21  and  C_22
REMARK   10  A    between atoms: C_25  and  C_26
REMARK                            x       y       z     vdW  Elec       q    Type
REMARK                         _______ _______ _______ _____ _____    ______ ____
ROOT
ATOM      1  C   UNL     1      47.671   7.885  13.245  0.00  0.00    +0.000 A 
ATOM      2  C   UNL     1      46.379   8.408  13.088  0.00  0.00    +0.000 A 
ATOM      3  C   UNL     1      45.323   7.592  12.660  0.00  0.00    +0.000 A 
ATOM      4  C   UNL     1      45.532   6.234  12.374  0.00  0.00    +0.000 A 
ATOM      5  C   UNL     1      46.825   5.713  12.540  0.00  0.00    +0.000 A 
ATOM      6  C   UNL     1      47.878   6.526  12.977  0.00  0.00    +0.000 A 
ENDROOT
BRANCH   1   7
ATOM      7  C   UNL     1      48.803   8.756  13.734  0.00  0.00    +0.000 C 
BRANCH   7  10
ATOM      8  C   UNL     1      50.729   7.884  14.996  0.00  0.00    +0.000 C 
ATOM      9  O   UNL     1      51.474   8.039  14.029  0.00  0.00    +0.000 OA
ATOM     10  N   UNL     1      49.404   8.209  14.928  0.00  0.00    +0.000 N 
ATOM     11  H   UNL     1      48.794   8.023  15.713  0.00  0.00    +0.000 HD
BRANCH   8  19
ATOM     12  C   UNL     1      49.788   5.243  16.995  0.00  0.00    +0.000 A 
ATOM     13  N   UNL     1      49.646   4.287  17.934  0.00  0.00    +0.000 NA
ATOM     14  C   UNL     1      50.488   4.292  18.969  0.00  0.00    +0.000 A 
ATOM     15  N   UNL     1      51.479   5.151  19.188  0.00  0.00    +0.000 NA
ATOM     16  C   UNL     1      51.594   6.080  18.223  0.00  0.00    +0.000 A 
ATOM     17  S   UNL     1      52.805   7.263  18.340  0.00  0.00    +0.000 S 
ATOM     18  C   UNL     1      52.317   7.979  16.879  0.00  0.00    +0.000 A 
ATOM     19  C   UNL     1      51.240   7.345  16.271  0.00  0.00    +0.000 A 
ATOM     20  C   UNL     1      50.807   6.208  17.082  0.00  0.00    +0.000 A 
BRANCH  12  22
ATOM     21  C   UNL     1      47.667   4.634  16.253  0.00  0.00    +0.000 C 
ATOM     22  O   UNL     1      48.924   5.219  15.920  0.00  0.00    +0.000 OA
ENDBRANCH  12  22
ENDBRANCH   8  19
ENDBRANCH   7  10
ENDBRANCH   1   7
BRANCH   4  23
ATOM     23  C   UNL     1      44.393   5.339  11.922  0.00  0.00    +0.000 C 
BRANCH  23  24
ATOM     24  N   UNL     1      44.293   5.303  10.463  0.00  0.00    +0.000 NA
ATOM     25  H   UNL     1      45.200   5.559  10.071  0.00  0.00    +0.000 HD
BRANCH  24  26
ATOM     26  C   UNL     1      43.958   3.959   9.964  0.00  0.00    +0.000 C 
BRANCH  26  27
ATOM     27  C   UNL     1      44.999   3.447   8.979  0.00  0.00    +0.000 A 
ATOM     28  C   UNL     1      45.317   2.090   8.940  0.00  0.00    +0.000 A 
ATOM     29  C   UNL     1      46.251   1.636   8.010  0.00  0.00    +0.000 A 
ATOM     30  C   UNL     1      46.860   2.541   7.143  0.00  0.00    +0.000 A 
ATOM     31  C   UNL     1      47.869   2.104   6.131  0.00  0.00    +0.000 C 
ATOM     32  C   UNL     1      46.492   3.877   7.258  0.00  0.00    +0.000 A 
ATOM     33  N   UNL     1      45.580   4.347   8.145  0.00  0.00    +0.000 NA
ENDBRANCH  26  27
ENDBRANCH  24  26
ENDBRANCH  23  24
ENDBRANCH   4  23
TORSDOF 8
ENDMDL
MODEL 3
REMARK VINA RESULT:    -6.788      4.991      6.977
REMARK INTER + INTRA:         -11.345
REMARK INTER:                 -10.238
REMARK INTRA:                  -1.107
REMARK UNBOUND:                -1.382
REMARK  Name = 
REMARK  10 active torsions:
REMARK  status: ('A' for Active; 'I' for Inactive)
REMARK    1  A    between atoms: C_1  and  O_2
REMARK    2  A    between atoms: O_2  and  C_3
REMARK    3  A    between atoms: C_10  and  C_11
REMARK    4  A    between atoms: N_13  and  C_14
REMARK    5  A    between atoms: C_14  and  C_15
REMARK    6  A    between atoms: C_18  and  C_19
REMARK    7  A    between atoms: C_19  and  N_20
REMARK    8  A    between atoms: N_20  and  C_21
REMARK    9  A    between atoms: C_21  and  C_22
REMARK   10  A    between atoms: C_25  and  C_26
REMARK                            x       y       z     vdW  Elec       q    Type
REMARK                         _______ _______ _______ _____ _____    ______ ____
ROOT
ATOM      1  C   UNL     1      48.549   7.068  12.734  0.00  0.00    +0.000 A 
ATOM      2  C   UNL     1      47.998   6.179  13.668  0.00  0.00    +0.000 A 
ATOM      3  C   UNL     1      46.775   5.542  13.418  0.00  0.00    +0.000 A 
ATOM      4  C   UNL     1      46.069   5.781  12.228  0.00  0.00    +0.000 A 
ATOM      5  C   UNL     1      46.627   6.665  11.293  0.00  0.00    +0.000 A 
ATOM      6  C   UNL     1      47.854   7.294  11.538  0.00  0.00    +0.000 A 
ENDROOT
BRANCH   1   7
ATOM      7  C   UNL     1      49.880   7.732  12.989  0.00  0.00    +0.000 C 
BRANCH   7  10
ATOM      8  C   UNL     1      51.786   8.491  11.627  0.00  0.00    +0.000 C 
ATOM      9  O   UNL     1      52.572   8.279  12.550  0.00  0.00    +0.000 OA
ATOM     10  N   UNL     1      50.448   8.250  11.766  0.00  0.00    +0.000 N 
ATOM     11  H   UNL     1      49.809   8.483  11.018  0.00  0.00    +0.000 HD
BRANCH   8  19
ATOM     12  C   UNL     1      53.199   7.009   8.859  0.00  0.00    +0.000 A 
ATOM     13  N   UNL     1      53.742   6.693   7.667  0.00  0.00    +0.000 NA
ATOM     14  C   UNL     1      53.961   7.678   6.794  0.00  0.00    +0.000 A 
ATOM     15  N   UNL     1      53.698   8.971   6.967  0.00  0.00    +0.000 NA
ATOM     16  C   UNL     1      53.148   9.241   8.163  0.00  0.00    +0.000 A 
ATOM     17  S   UNL     1      52.749  10.843   8.558  0.00  0.00    +0.000 S 
ATOM     18  C   UNL     1      52.170  10.375  10.085  0.00  0.00    +0.000 A 
ATOM     19  C   UNL     1      52.259   9.009  10.329  0.00  0.00    +0.000 A 
ATOM     20  C   UNL     1      52.849   8.333   9.175  0.00  0.00    +0.000 A 
BRANCH  12  22
ATOM     21  C   UNL     1      54.161   5.504  10.353  0.00  0.00    +0.000 C 
ATOM     22  O   UNL     1      52.961   5.981   9.747  0.00  0.00    +0.000 OA
ENDBRANCH  12  22
ENDBRANCH   8  19
ENDBRANCH   7  10
ENDBRANCH   1   7
BRANCH   4  23
ATOM     23  C   UNL     1      44.750   5.087  11.943  0.00  0.00    +0.000 C 
BRANCH  23  24
ATOM     24  N   UNL     1      44.323   5.305  10.561  0.00  0.00    +0.000 NA
ATOM     25  H   UNL     1      45.113   5.679  10.034  0.00  0.00    +0.000 HD
BRANCH  24  26
ATOM     26  C   UNL     1      43.905   4.055   9.907  0.00  0.00    +0.000 C 
BRANCH  26  27
ATOM     27  C   UNL     1      44.980   3.519   8.972  0.00  0.00    +0.000 A 
ATOM     28  C   UNL     1      45.285   2.159   8.963  0.00  0.00    +0.000 A 
ATOM     29  C   UNL     1      46.251   1.685   8.078  0.00  0.00    +0.000 A 
ATOM     30  C   UNL     1      46.906   2.572   7.227  0.00  0.00    +0.000 A 
ATOM     31  C   UNL     1      47.952   2.112   6.263  0.00  0.00    +0.000 C 
ATOM     32  C   UNL     1      46.548   3.913   7.310  0.00  0.00    +0.000 A 
ATOM     33  N   UNL     1      45.605   4.404   8.154  0.00  0.00    +0.000 NA
ENDBRANCH  26  27
ENDBRANCH  24  26
ENDBRANCH  23  24
ENDBRANCH   4  23
TORSDOF 8
ENDMDL
MODEL 4
REMARK VINA RESULT:    -6.187      2.588      3.272
REMARK INTER + INTRA:         -10.463
REMARK INTER:                  -9.605
REMARK INTRA:                  -0.858
REMARK UNBOUND:                -1.382
REMARK  Name = 
REMARK  10 active torsions:
REMARK  status: ('A' for Active; 'I' for Inactive)
REMARK    1  A    between atoms: C_1  and  O_2
REMARK    2  A    between atoms: O_2  and  C_3
REMARK    3  A    between atoms: C_10  and  C_11
REMARK    4  A    between atoms: N_13  and  C_14
REMARK    5  A    between atoms: C_14  and  C_15
REMARK    6  A    between atoms: C_18  and  C_19
REMARK    7  A    between atoms: C_19  and  N_20
REMARK    8  A    between atoms: N_20  and  C_21
REMARK    9  A    between atoms: C_21  and  C_22
REMARK   10  A    between atoms: C_25  and  C_26
REMARK                            x       y       z     vdW  Elec       q    Type
REMARK                         _______ _______ _______ _____ _____    ______ ____
ROOT
ATOM      1  C   UNL     1      47.665   7.892  13.735  0.00  0.00    +0.000 A 
ATOM      2  C   UNL     1      46.601   8.684  13.279  0.00  0.00    +0.000 A 
ATOM      3  C   UNL     1      45.503   8.105  12.629  0.00  0.00    +0.000 A 
ATOM      4  C   UNL     1      45.443   6.719  12.414  0.00  0.00    +0.000 A 
ATOM      5  C   UNL     1      46.506   5.929  12.878  0.00  0.00    +0.000 A 
ATOM      6  C   UNL     1      47.598   6.507  13.536  0.00  0.00    +0.000 A 
ENDROOT
BRANCH   1   7
ATOM      7  C   UNL     1      48.834   8.511  14.461  0.00  0.00    +0.000 C 
BRANCH   7  10
ATOM      8  C   UNL     1      50.489   7.248  15.776  0.00  0.00    +0.000 C 
ATOM      9  O   UNL     1      51.370   7.477  14.948  0.00  0.00    +0.000 OA
ATOM     10  N   UNL     1      49.217   7.718  15.606  0.00  0.00    +0.000 N 
ATOM     11  H   UNL     1      48.492   7.473  16.266  0.00  0.00    +0.000 HD
BRANCH   8  19
ATOM     12  C   UNL     1      52.666   7.659  18.412  0.00  0.00    +0.000 A 
ATOM     13  N   UNL     1      53.394   7.582  19.543  0.00  0.00    +0.000 NA
ATOM     14  C   UNL     1      53.198   6.535  20.348  0.00  0.00    +0.000 A 
ATOM     15  N   UNL     1      52.345   5.532  20.159  0.00  0.00    +0.000 NA
ATOM     16  C   UNL     1      51.631   5.654  19.027  0.00  0.00    +0.000 A 
ATOM     17  S   UNL     1      50.494   4.460  18.623  0.00  0.00    +0.000 S 
ATOM     18  C   UNL     1      50.073   5.275  17.192  0.00  0.00    +0.000 A 
ATOM     19  C   UNL     1      50.772   6.459  16.990  0.00  0.00    +0.000 A 
ATOM     20  C   UNL     1      51.708   6.681  18.091  0.00  0.00    +0.000 A 
BRANCH  12  22
ATOM     21  C   UNL     1      54.144   8.732  16.969  0.00  0.00    +0.000 C 
ATOM     22  O   UNL     1      52.864   8.753  17.596  0.00  0.00    +0.000 OA
ENDBRANCH  12  22
ENDBRANCH   8  19
ENDBRANCH   7  10
ENDBRANCH   1   7
BRANCH   4  23
ATOM     23  C   UNL     1      44.252   6.081  11.721  0.00  0.00    +0.000 C 
BRANCH  23  24
ATOM     24  N   UNL     1      44.556   5.764  10.326  0.00  0.00    +0.000 NA
ATOM     25  H   UNL     1      45.569   5.795  10.201  0.00  0.00    +0.000 HD
BRANCH  24  26
ATOM     26  C   UNL     1      44.104   4.415   9.953  0.00  0.00    +0.000 C 
BRANCH  26  27
ATOM     27  C   UNL     1      45.082   3.732   9.008  0.00  0.00    +0.000 A 
ATOM     28  C   UNL     1      45.274   2.352   9.075  0.00  0.00    +0.000 A 
ATOM     29  C   UNL     1      46.151   1.743   8.181  0.00  0.00    +0.000 A 
ATOM     30  C   UNL     1      46.831   2.516   7.242  0.00  0.00    +0.000 A 
ATOM     31  C   UNL     1      47.785   1.909   6.264  0.00  0.00    +0.000 C 
ATOM     32  C   UNL     1      46.589   3.885   7.252  0.00  0.00    +0.000 A 
ATOM     33  N   UNL     1      45.734   4.506   8.103  0.00  0.00    +0.000 NA
ENDBRANCH  26  27
ENDBRANCH  24  26
ENDBRANCH  23  24
ENDBRANCH   4  23
TORSDOF 8
ENDMDL
MODEL 5
REMARK VINA RESULT:    -5.828      3.536      8.481
REMARK INTER + INTRA:          -9.935
REMARK INTER:                  -8.339
REMARK INTRA:                  -1.596
REMARK UNBOUND:                -1.382
REMARK  Name = 
REMARK  10 active torsions:
REMARK  status: ('A' for Active; 'I' for Inactive)
REMARK    1  A    between atoms: C_1  and  O_2
REMARK    2  A    between atoms: O_2  and  C_3
REMARK    3  A    between atoms: C_10  and  C_11
REMARK    4  A    between atoms: N_13  and  C_14
REMARK    5  A    between atoms: C_14  and  C_15
REMARK    6  A    between atoms: C_18  and  C_19
REMARK    7  A    between atoms: C_19  and  N_20
REMARK    8  A    between atoms: N_20  and  C_21
REMARK    9  A    between atoms: C_21  and  C_22
REMARK   10  A    between atoms: C_25  and  C_26
REMARK                            x       y       z     vdW  Elec       q    Type
REMARK                         _______ _______ _______ _____ _____    ______ ____
ROOT
ATOM      1  C   UNL     1      49.459   8.888  15.291  0.00  0.00    +0.000 A 
ATOM      2  C   UNL     1      50.675   8.788  15.983  0.00  0.00    +0.000 A 
ATOM      3  C   UNL     1      50.706   8.803  17.384  0.00  0.00    +0.000 A 
ATOM      4  C   UNL     1      49.522   8.921  18.129  0.00  0.00    +0.000 A 
ATOM      5  C   UNL     1      48.307   9.013  17.433  0.00  0.00    +0.000 A 
ATOM      6  C   UNL     1      48.275   8.989  16.033  0.00  0.00    +0.000 A 
ENDROOT
BRANCH   1   7
ATOM      7  C   UNL     1      49.422   8.843  13.783  0.00  0.00    +0.000 C 
BRANCH   7  10
ATOM      8  C   UNL     1      47.949   7.081  12.894  0.00  0.00    +0.000 C 
ATOM      9  O   UNL     1      48.867   6.262  12.907  0.00  0.00    +0.000 OA
ATOM     10  N   UNL     1      48.144   8.370  13.305  0.00  0.00    +0.000 N 
ATOM     11  H   UNL     1      47.394   9.045  13.235  0.00  0.00    +0.000 HD
BRANCH   8  19
ATOM     12  C   UNL     1      46.122   4.167  13.064  0.00  0.00    +0.000 A 
ATOM     13  N   UNL     1      45.203   3.185  13.007  0.00  0.00    +0.000 NA
ATOM     14  C   UNL     1      44.034   3.448  12.418  0.00  0.00    +0.000 A 
ATOM     15  N   UNL     1      43.661   4.600  11.867  0.00  0.00    +0.000 NA
ATOM     16  C   UNL     1      44.602   5.556  11.955  0.00  0.00    +0.000 A 
ATOM     17  S   UNL     1      44.297   7.092  11.300  0.00  0.00    +0.000 S 
ATOM     18  C   UNL     1      45.829   7.653  11.775  0.00  0.00    +0.000 A 
ATOM     19  C   UNL     1      46.598   6.703  12.438  0.00  0.00    +0.000 A 
ATOM     20  C   UNL     1      45.859   5.446  12.541  0.00  0.00    +0.000 A 
BRANCH  12  22
ATOM     21  C   UNL     1      47.234   4.039  15.105  0.00  0.00    +0.000 C 
ATOM     22  O   UNL     1      47.320   3.890  13.689  0.00  0.00    +0.000 OA
ENDBRANCH  12  22
ENDBRANCH   8  19
ENDBRANCH   7  10
ENDBRANCH   1   7
BRANCH   4  23
ATOM     23  C   UNL     1      49.544   8.926  19.647  0.00  0.00    +0.000 C 
BRANCH  23  24
ATOM     24  N   UNL     1      49.931   7.618  20.177  0.00  0.00    +0.000 NA
ATOM     25  H   UNL     1      50.170   7.728  21.163  0.00  0.00    +0.000 HD
BRANCH  24  26
ATOM     26  C   UNL     1      48.834   6.641  20.092  0.00  0.00    +0.000 C 
BRANCH  26  27
ATOM     27  C   UNL     1      49.214   5.437  19.242  0.00  0.00    +0.000 A 
ATOM     28  C   UNL     1      50.441   5.407  18.580  0.00  0.00    +0.000 A 
ATOM     29  C   UNL     1      50.783   4.283  17.832  0.00  0.00    +0.000 A 
ATOM     30  C   UNL     1      49.895   3.213  17.744  0.00  0.00    +0.000 A 
ATOM     31  C   UNL     1      50.214   1.987  16.951  0.00  0.00    +0.000 C 
ATOM     32  C   UNL     1      48.689   3.331  18.426  0.00  0.00    +0.000 A 
ATOM     33  N   UNL     1      48.332   4.408  19.171  0.00  0.00    +0.000 NA
ENDBRANCH  26  27
ENDBRANCH  24  26
ENDBRANCH  23  24
ENDBRANCH   4  23
TORSDOF 8
ENDMDL
MODEL 6
REMARK VINA RESULT:    -5.591      3.438      5.198
REMARK INTER + INTRA:          -9.588
REMARK INTER:                  -8.251
REMARK INTRA:                  -1.336
REMARK UNBOUND:                -1.382
REMARK  Name = 
REMARK  10 active torsions:
REMARK  status: ('A' for Active; 'I' for Inactive)
REMARK    1  A    between atoms: C_1  and  O_2
REMARK    2  A    between atoms: O_2  and  C_3
REMARK    3  A    between atoms: C_10  and  C_11
REMARK    4  A    between atoms: N_13  and  C_14
REMARK    5  A    between atoms: C_14  and  C_15
REMARK    6  A    between atoms: C_18  and  C_19
REMARK    7  A    between atoms: C_19  and  N_20
REMARK    8  A    between atoms: N_20  and  C_21
REMARK    9  A    between atoms: C_21  and  C_22
REMARK   10  A    between atoms: C_25  and  C_26
REMARK                            x       y       z     vdW  Elec       q    Type
REMARK                         _______ _______ _______ _____ _____    ______ ____
ROOT
ATOM      1  C   UNL     1      48.949   7.664  16.536  0.00  0.00    +0.000 A 
ATOM      2  C   UNL     1      48.558   8.971  16.210  0.00  0.00    +0.000 A 
ATOM      3  C   UNL     1      48.282   9.326  14.883  0.00  0.00    +0.000 A 
ATOM      4  C   UNL     1      48.393   8.385  13.847  0.00  0.00    +0.000 A 
ATOM      5  C   UNL     1      48.777   7.076  14.179  0.00  0.00    +0.000 A 
ATOM      6  C   UNL     1      49.044   6.719  15.507  0.00  0.00    +0.000 A 
ENDROOT
BRANCH   1   7
ATOM      7  C   UNL     1      49.218   7.272  17.969  0.00  0.00    +0.000 C 
BRANCH   7  10
ATOM      8  C   UNL     1      50.919   5.932  19.141  0.00  0.00    +0.000 C 
ATOM      9  O   UNL     1      50.874   6.673  20.122  0.00  0.00    +0.000 OA
ATOM     10  N   UNL     1      50.139   6.162  18.043  0.00  0.00    +0.000 N 
ATOM     11  H   UNL     1      50.229   5.576  17.223  0.00  0.00    +0.000 HD
BRANCH   8  19
ATOM     12  C   UNL     1      50.792   2.893  17.527  0.00  0.00    +0.000 A 
ATOM     13  N   UNL     1      50.999   1.663  17.017  0.00  0.00    +0.000 NA
ATOM     14  C   UNL     1      52.102   1.007  17.381  0.00  0.00    +0.000 A 
ATOM     15  N   UNL     1      53.049   1.437  18.210  0.00  0.00    +0.000 NA
ATOM     16  C   UNL     1      52.811   2.672  18.687  0.00  0.00    +0.000 A 
ATOM     17  S   UNL     1      53.916   3.380  19.764  0.00  0.00    +0.000 S 
ATOM     18  C   UNL     1      52.974   4.789  19.881  0.00  0.00    +0.000 A 
ATOM     19  C   UNL     1      51.815   4.760  19.113  0.00  0.00    +0.000 A 
ATOM     20  C   UNL     1      51.720   3.487  18.401  0.00  0.00    +0.000 A 
BRANCH  12  22
ATOM     21  C   UNL     1      48.471   2.994  17.672  0.00  0.00    +0.000 C 
ATOM     22  O   UNL     1      49.658   3.570  17.130  0.00  0.00    +0.000 OA
ENDBRANCH  12  22
ENDBRANCH   8  19
ENDBRANCH   7  10
ENDBRANCH   1   7
BRANCH   4  23
ATOM     23  C   UNL     1      48.085   8.757  12.408  0.00  0.00    +0.000 C 
BRANCH  23  24
ATOM     24  N   UNL     1      47.308   7.711  11.744  0.00  0.00    +0.000 NA
ATOM     25  H   UNL     1      47.685   6.804  12.019  0.00  0.00    +0.000 HD
BRANCH  24  26
ATOM     26  C   UNL     1      45.890   7.740  12.137  0.00  0.00    +0.000 C 
BRANCH  26  27
ATOM     27  C   UNL     1      45.248   6.364  12.038  0.00  0.00    +0.000 A 
ATOM     28  C   UNL     1      45.873   5.257  12.611  0.00  0.00    +0.000 A 
ATOM     29  C   UNL     1      45.254   4.011  12.536  0.00  0.00    +0.000 A 
ATOM     30  C   UNL     1      44.030   3.885  11.882  0.00  0.00    +0.000 A 
ATOM     31  C   UNL     1      43.328   2.570  11.771  0.00  0.00    +0.000 C 
ATOM     32  C   UNL     1      43.483   5.038  11.330  0.00  0.00    +0.000 A 
ATOM     33  N   UNL     1      44.056   6.266  11.395  0.00  0.00    +0.000 NA
ENDBRANCH  26  27
ENDBRANCH  24  26
ENDBRANCH  23  24
ENDBRANCH   4  23
TORSDOF 8
ENDMDL
MODEL 7
REMARK VINA RESULT:    -5.380      5.485      7.542
REMARK INTER + INTRA:          -9.278
REMARK INTER:                  -8.172
REMARK INTRA:                  -1.105
REMARK UNBOUND:                -1.382
REMARK  Name = 
REMARK  10 active torsions:
REMARK  status: ('A' for Active; 'I' for Inactive)
REMARK    1  A    between atoms: C_1  and  O_2
REMARK    2  A    between atoms: O_2  and  C_3
REMARK    3  A    between atoms: C_10  and  C_11
REMARK    4  A    between atoms: N_13  and  C_14
REMARK    5  A    between atoms: C_14  and  C_15
REMARK    6  A    between atoms: C_18  and  C_19
REMARK    7  A    between atoms: C_19  and  N_20
REMARK    8  A    between atoms: N_20  and  C_21
REMARK    9  A    between atoms: C_21  and  C_22
REMARK   10  A    between atoms: C_25  and  C_26
REMARK                            x       y       z     vdW  Elec       q    Type
REMARK                         _______ _______ _______ _____ _____    ______ ____
ROOT
ATOM      1  C   UNL     1      49.952   9.495  11.510  0.00  0.00    +0.000 A 
ATOM      2  C   UNL     1      50.635  10.594  10.969  0.00  0.00    +0.000 A 
ATOM      3  C   UNL     1      51.861  10.425  10.313  0.00  0.00    +0.000 A 
ATOM      4  C   UNL     1      52.439   9.152  10.183  0.00  0.00    +0.000 A 
ATOM      5  C   UNL     1      51.748   8.053  10.719  0.00  0.00    +0.000 A 
ATOM      6  C   UNL     1      50.518   8.222  11.366  0.00  0.00    +0.000 A 
ENDROOT
BRANCH   1   7
ATOM      7  C   UNL     1      48.617   9.672  12.191  0.00  0.00    +0.000 C 
BRANCH   7  10
ATOM      8  C   UNL     1      46.488   8.436  12.258  0.00  0.00    +0.000 C 
ATOM      9  O   UNL     1      45.848   9.481  12.370  0.00  0.00    +0.000 OA
ATOM     10  N   UNL     1      47.852   8.448  12.168  0.00  0.00    +0.000 N 
ATOM     11  H   UNL     1      48.366   7.578  12.134  0.00  0.00    +0.000 HD
BRANCH   8  19
ATOM     12  C   UNL     1      47.319   5.295  13.397  0.00  0.00    +0.000 A 
ATOM     13  N   UNL     1      47.385   3.995  13.744  0.00  0.00    +0.000 NA
ATOM     14  C   UNL     1      46.367   3.201  13.408  0.00  0.00    +0.000 A 
ATOM     15  N   UNL     1      45.263   3.552  12.753  0.00  0.00    +0.000 NA
ATOM     16  C   UNL     1      45.232   4.858  12.437  0.00  0.00    +0.000 A 
ATOM     17  S   UNL     1      43.897   5.483  11.595  0.00  0.00    +0.000 S 
ATOM     18  C   UNL     1      44.571   7.043  11.582  0.00  0.00    +0.000 A 
ATOM     19  C   UNL     1      45.808   7.128  12.212  0.00  0.00    +0.000 A 
ATOM     20  C   UNL     1      46.202   5.815  12.720  0.00  0.00    +0.000 A 
BRANCH  12  22
ATOM     21  C   UNL     1      48.379   6.375  15.166  0.00  0.00    +0.000 C 
ATOM     22  O   UNL     1      48.369   6.111  13.764  0.00  0.00    +0.000 OA
ENDBRANCH  12  22
ENDBRANCH   8  19
ENDBRANCH   7  10
ENDBRANCH   1   7
BRANCH   4  23
ATOM     23  C   UNL     1      53.761   8.956   9.464  0.00  0.00    +0.000 C 
BRANCH  23  24
ATOM     24  N   UNL     1      53.571   8.296   8.172  0.00  0.00    +0.000 NA
ATOM     25  H   UNL     1      53.275   8.997   7.492  0.00  0.00    +0.000 HD
BRANCH  24  26
ATOM     26  C   UNL     1      54.814   7.689   7.672  0.00  0.00    +0.000 C 
BRANCH  26  27
ATOM     27  C   UNL     1      54.628   6.217   7.334  0.00  0.00    +0.000 A 
ATOM     28  C   UNL     1      53.346   5.690   7.181  0.00  0.00    +0.000 A 
ATOM     29  C   UNL     1      53.199   4.347   6.841  0.00  0.00    +0.000 A 
ATOM     30  C   UNL     1      54.327   3.548   6.672  0.00  0.00    +0.000 A 
ATOM     31  C   UNL     1      54.220   2.101   6.312  0.00  0.00    +0.000 C 
ATOM     32  C   UNL     1      55.566   4.151   6.855  0.00  0.00    +0.000 A 
ATOM     33  N   UNL     1      55.743   5.457   7.176  0.00  0.00    +0.000 NA
ENDBRANCH  26  27
ENDBRANCH  24  26
ENDBRANCH  23  24
ENDBRANCH   4  23
TORSDOF 8
ENDMDL
