MODEL 1
REMARK VINA RESULT:    -7.445      0.000      0.000
REMARK INTER + INTRA:         -11.286
REMARK INTER:                 -10.056
REMARK INTRA:                  -1.230
REMARK UNBOUND:                -1.230
REMARK  Name = 
REMARK  7 active torsions:
REMARK  status: ('A' for Active; 'I' for Inactive)
REMARK    1  A    between atoms: C_1  and  C_2
REMARK    2  A    between atoms: C_2  and  N_3
REMARK    3  A    between atoms: N_3  and  C_4
REMARK    4  A    between atoms: C_4  and  C_5
REMARK    5  A    between atoms: C_8  and  C_9
REMARK    6  A    between atoms: C_9  and  C_10
REMARK    7  A    between atoms: C_17  and  C_19
REMARK                            x       y       z     vdW  Elec       q    Type
REMARK                         _______ _______ _______ _____ _____    ______ ____
ROOT
ATOM      1  N   UNL     1      46.122   7.061  12.292  0.00  0.00    +0.000 N 
ATOM      2  C   UNL     1      44.886   6.670  11.739  0.00  0.00    +0.000 C 
ATOM      3  O   UNL     1      44.061   7.511  11.388  0.00  0.00    +0.000 OA
ENDROOT
BRANCH   2   4
ATOM      4  C   UNL     1      44.538   5.234  11.628  0.00  0.00    +0.000 A 
ATOM      5  C   UNL     1      43.792   4.511  12.547  0.00  0.00    +0.000 A 
ATOM      6  S   UNL     1      43.494   2.893  12.089  0.00  0.00    +0.000 S 
ATOM      7  C   UNL     1      44.191   3.152  10.563  0.00  0.00    +0.000 A 
ATOM      8  N   UNL     1      44.131   2.195   9.601  0.00  0.00    +0.000 NA
ATOM      9  C   UNL     1      44.631   2.558   8.468  0.00  0.00    +0.000 A 
ATOM     10  N   UNL     1      45.228   3.770   8.233  0.00  0.00    +0.000 N 
ATOM     11  C   UNL     1      45.443   4.706   9.213  0.00  0.00    +0.000 A 
ATOM     12  O   UNL     1      46.197   5.654   9.035  0.00  0.00    +0.000 OA
ATOM     13  C   UNL     1      44.762   4.407  10.463  0.00  0.00    +0.000 A 
ATOM     14  H   UNL     1      45.686   3.959   7.358  0.00  0.00    +0.000 HD
ENDBRANCH   2   4
BRANCH   1  16
ATOM     15  C   UNL     1      47.793   8.908  12.137  0.00  0.00    +0.000 C 
ATOM     16  C   UNL     1      46.367   8.494  12.473  0.00  0.00    +0.000 C 
ENDBRANCH   1  16
BRANCH   1  17
ATOM     17  C   UNL     1      47.138   6.089  12.692  0.00  0.00    +0.000 C 
BRANCH  17  18
ATOM     18  C   UNL     1      47.401   5.748  14.140  0.00  0.00    +0.000 A 
ATOM     19  C   UNL     1      46.858   4.576  14.670  0.00  0.00    +0.000 A 
ATOM     20  C   UNL     1      47.367   4.076  15.864  0.00  0.00    +0.000 A 
ATOM     21  C   UNL     1      48.398   4.758  16.511  0.00  0.00    +0.000 A 
ATOM     22  C   UNL     1      48.822   5.957  15.947  0.00  0.00    +0.000 A 
ATOM     23  N   UNL     1      48.348   6.466  14.788  0.00  0.00    +0.000 NA
BRANCH  21  24
ATOM     24  C   UNL     1      49.075   4.165  17.719  0.00  0.00    +0.000 C 
BRANCH  24  25
ATOM     25  C   UNL     1      50.454   3.561  17.443  0.00  0.00    +0.000 C 
ATOM     26  C   UNL     1      50.394   2.051  17.274  0.00  0.00    +0.000 C 
ATOM     27  C   UNL     1      51.837   1.636  17.484  0.00  0.00    +0.000 C 
ATOM     28  C   UNL     1      52.400   2.679  18.442  0.00  0.00    +0.000 C 
ATOM     29  N   UNL     1      51.373   3.711  18.577  0.00  0.00    +0.000 NA
ATOM     30  H   UNL     1      51.785   4.644  18.589  0.00  0.00    +0.000 HD
ENDBRANCH  24  25
ENDBRANCH  21  24
ENDBRANCH  17  18
ENDBRANCH   1  17
TORSDOF 6
ENDMDL
MODEL 2
REMARK VINA RESULT:    -6.976      1.302      2.123
REMARK INTER + INTRA:         -10.653
REMARK INTER:                  -9.577
REMARK INTRA:                  -1.076
REMARK UNBOUND:                -1.230
REMARK  Name = 
REMARK  7 active torsions:
REMARK  status: ('A' for Active; 'I' for Inactive)
REMARK    1  A    between atoms: C_1  and  C_2
REMARK    2  A    between atoms: C_2  and  N_3
REMARK    3  A    between atoms: N_3  and  C_4
REMARK    4  A    between atoms: C_4  and  C_5
REMARK    5  A    between atoms: C_8  and  C_9
REMARK    6  A    between atoms: C_9  and  C_10
REMARK    7  A    between atoms: C_17  and  C_19
REMARK                            x       y       z     vdW  Elec       q    Type
REMARK                         _______ _______ _______ _____ _____    ______ ____
ROOT
ATOM      1  N   UNL     1      46.233   7.030  12.311  0.00  0.00    +0.000 N 
ATOM      2  C   UNL     1      45.009   6.665  11.713  0.00  0.00    +0.000 C 
ATOM      3  O   UNL     1      44.217   7.525  11.330  0.00  0.00    +0.000 OA
ENDROOT
BRANCH   2   4
ATOM      4  C   UNL     1      44.632   5.238  11.595  0.00  0.00    +0.000 A 
ATOM      5  C   UNL     1      43.887   4.520  12.520  0.00  0.00    +0.000 A 
ATOM      6  S   UNL     1      43.550   2.913  12.051  0.00  0.00    +0.000 S 
ATOM      7  C   UNL     1      44.226   3.174  10.516  0.00  0.00    +0.000 A 
ATOM      8  N   UNL     1      44.132   2.228   9.546  0.00  0.00    +0.000 NA
ATOM      9  C   UNL     1      44.620   2.593   8.408  0.00  0.00    +0.000 A 
ATOM     10  N   UNL     1      45.236   3.795   8.175  0.00  0.00    +0.000 N 
ATOM     11  C   UNL     1      45.486   4.717   9.160  0.00  0.00    +0.000 A 
ATOM     12  O   UNL     1      46.255   5.652   8.979  0.00  0.00    +0.000 OA
ATOM     13  C   UNL     1      44.820   4.419  10.419  0.00  0.00    +0.000 A 
ATOM     14  H   UNL     1      45.684   3.983   7.294  0.00  0.00    +0.000 HD
ENDBRANCH   2   4
BRANCH   1  16
ATOM     15  C   UNL     1      47.905   8.865  12.058  0.00  0.00    +0.000 C 
ATOM     16  C   UNL     1      46.505   8.457  12.496  0.00  0.00    +0.000 C 
ENDBRANCH   1  16
BRANCH   1  17
ATOM     17  C   UNL     1      47.210   6.035  12.751  0.00  0.00    +0.000 C 
BRANCH  17  18
ATOM     18  C   UNL     1      47.419   5.703  14.210  0.00  0.00    +0.000 A 
ATOM     19  C   UNL     1      46.806   4.567  14.741  0.00  0.00    +0.000 A 
ATOM     20  C   UNL     1      47.260   4.059  15.954  0.00  0.00    +0.000 A 
ATOM     21  C   UNL     1      48.307   4.699  16.619  0.00  0.00    +0.000 A 
ATOM     22  C   UNL     1      48.803   5.867  16.050  0.00  0.00    +0.000 A 
ATOM     23  N   UNL     1      48.384   6.383  14.873  0.00  0.00    +0.000 NA
BRANCH  21  24
ATOM     24  C   UNL     1      48.923   4.091  17.851  0.00  0.00    +0.000 C 
BRANCH  24  25
ATOM     25  C   UNL     1      48.667   4.875  19.142  0.00  0.00    +0.000 C 
ATOM     26  C   UNL     1      47.347   5.628  19.101  0.00  0.00    +0.000 C 
ATOM     27  C   UNL     1      47.518   6.656  20.203  0.00  0.00    +0.000 C 
ATOM     28  C   UNL     1      49.016   6.933  20.239  0.00  0.00    +0.000 C 
ATOM     29  N   UNL     1      49.637   5.957  19.344  0.00  0.00    +0.000 NA
ATOM     30  H   UNL     1      50.506   5.596  19.738  0.00  0.00    +0.000 HD
ENDBRANCH  24  25
ENDBRANCH  21  24
ENDBRANCH  17  18
ENDBRANCH   1  17
TORSDOF 6
ENDMDL
MODEL 3
REMARK VINA RESULT:    -6.974      1.347      2.045
REMARK INTER + INTRA:         -10.650
REMARK INTER:                  -9.499
REMARK INTRA:                  -1.152
REMARK UNBOUND:                -1.230
REMARK  Name = 
REMARK  7 active torsions:
REMARK  status: ('A' for Active; 'I' for Inactive)
REMARK    1  A    between atoms: C_1  and  C_2
REMARK    2  A    between atoms: C_2  and  N_3
REMARK    3  A    between atoms: N_3  and  C_4
REMARK    4  A    between atoms: C_4  and  C_5
REMARK    5  A    between atoms: C_8  and  C_9
REMARK    6  A    between atoms: C_9  and  C_10
REMARK    7  A    between atoms: C_17  and  C_19
REMARK                            x       y       z     vdW  Elec       q    Type
REMARK                         _______ _______ _______ _____ _____    ______ ____
ROOT
ATOM      1  N   UNL     1      46.384   7.366  12.464  0.00  0.00    +0.000 N 
ATOM      2  C   UNL     1      45.369   7.263  11.490  0.00  0.00    +0.000 C 
ATOM      3  O   UNL     1      44.651   8.225  11.227  0.00  0.00    +0.000 OA
ENDROOT
BRANCH   2   4
ATOM      4  C   UNL     1      45.116   5.971  10.812  0.00  0.00    +0.000 A 
ATOM      5  C   UNL     1      45.661   5.573   9.601  0.00  0.00    +0.000 A 
ATOM      6  S   UNL     1      45.238   3.988   9.128  0.00  0.00    +0.000 S 
ATOM      7  C   UNL     1      44.461   3.708  10.610  0.00  0.00    +0.000 A 
ATOM      8  N   UNL     1      43.994   2.472  10.927  0.00  0.00    +0.000 NA
ATOM      9  C   UNL     1      43.499   2.387  12.116  0.00  0.00    +0.000 A 
ATOM     10  N   UNL     1      43.385   3.438  12.989  0.00  0.00    +0.000 N 
ATOM     11  C   UNL     1      43.706   4.730  12.658  0.00  0.00    +0.000 A 
ATOM     12  O   UNL     1      43.356   5.673  13.356  0.00  0.00    +0.000 OA
ATOM     13  C   UNL     1      44.408   4.849  11.389  0.00  0.00    +0.000 A 
ATOM     14  H   UNL     1      42.901   3.331  13.865  0.00  0.00    +0.000 HD
ENDBRANCH   2   4
BRANCH   1  16
ATOM     15  C   UNL     1      47.753   9.431  12.765  0.00  0.00    +0.000 C 
ATOM     16  C   UNL     1      46.519   8.640  13.176  0.00  0.00    +0.000 C 
ENDBRANCH   1  16
BRANCH   1  17
ATOM     17  C   UNL     1      47.276   6.252  12.780  0.00  0.00    +0.000 C 
BRANCH  17  18
ATOM     18  C   UNL     1      47.488   5.767  14.195  0.00  0.00    +0.000 A 
ATOM     19  C   UNL     1      46.915   4.557  14.590  0.00  0.00    +0.000 A 
ATOM     20  C   UNL     1      47.380   3.934  15.744  0.00  0.00    +0.000 A 
ATOM     21  C   UNL     1      48.396   4.534  16.487  0.00  0.00    +0.000 A 
ATOM     22  C   UNL     1      48.852   5.776  16.057  0.00  0.00    +0.000 A 
ATOM     23  N   UNL     1      48.421   6.404  14.941  0.00  0.00    +0.000 NA
BRANCH  21  24
ATOM     24  C   UNL     1      49.027   3.816  17.651  0.00  0.00    +0.000 C 
BRANCH  24  25
ATOM     25  C   UNL     1      50.463   3.346  17.405  0.00  0.00    +0.000 C 
ATOM     26  C   UNL     1      50.553   1.836  17.249  0.00  0.00    +0.000 C 
ATOM     27  C   UNL     1      52.025   1.564  17.491  0.00  0.00    +0.000 C 
ATOM     28  C   UNL     1      52.465   2.664  18.449  0.00  0.00    +0.000 C 
ATOM     29  N   UNL     1      51.341   3.593  18.556  0.00  0.00    +0.000 NA
ATOM     30  H   UNL     1      51.661   4.561  18.566  0.00  0.00    +0.000 HD
ENDBRANCH  24  25
ENDBRANCH  21  24
ENDBRANCH  17  18
ENDBRANCH   1  17
TORSDOF 6
ENDMDL
MODEL 4
REMARK VINA RESULT:    -6.663      2.995      8.054
REMARK INTER + INTRA:         -10.230
REMARK INTER:                  -9.777
REMARK INTRA:                  -0.453
REMARK UNBOUND:                -1.230
REMARK  Name = 
REMARK  7 active torsions:
REMARK  status: ('A' for Active; 'I' for Inactive)
REMARK    1  A    between atoms: C_1  and  C_2
REMARK    2  A    between atoms: C_2  and  N_3
REMARK    3  A    between atoms: N_3  and  C_4
REMARK    4  A    between atoms: C_4  and  C_5
REMARK    5  A    between atoms: C_8  and  C_9
REMARK    6  A    between atoms: C_9  and  C_10
REMARK    7  A    between atoms: C_17  and  C_19
REMARK                            x       y       z     vdW  Elec       q    Type
REMARK                         _______ _______ _______ _____ _____    ______ ____
ROOT
ATOM      1  N   UNL     1      47.362   6.451  13.502  0.00  0.00    +0.000 N 
ATOM      2  C   UNL     1      48.316   6.252  14.521  0.00  0.00    +0.000 C 
ATOM      3  O   UNL     1      49.460   6.686  14.404  0.00  0.00    +0.000 OA
ENDROOT
BRANCH   2   4
ATOM      4  C   UNL     1      47.968   5.461  15.724  0.00  0.00    +0.000 A 
ATOM      5  C   UNL     1      47.572   4.131  15.730  0.00  0.00    +0.000 A 
ATOM      6  S   UNL     1      47.323   3.481  17.289  0.00  0.00    +0.000 S 
ATOM      7  C   UNL     1      47.913   4.896  18.019  0.00  0.00    +0.000 A 
ATOM      8  N   UNL     1      48.111   4.953  19.362  0.00  0.00    +0.000 NA
ATOM      9  C   UNL     1      48.637   6.060  19.767  0.00  0.00    +0.000 A 
ATOM     10  N   UNL     1      48.932   7.125  18.956  0.00  0.00    +0.000 N 
ATOM     11  C   UNL     1      48.613   7.167  17.622  0.00  0.00    +0.000 A 
ATOM     12  O   UNL     1      48.651   8.215  16.989  0.00  0.00    +0.000 OA
ATOM     13  C   UNL     1      48.162   5.890  17.091  0.00  0.00    +0.000 A 
ATOM     14  H   UNL     1      49.250   7.997  19.344  0.00  0.00    +0.000 HD
ENDBRANCH   2   4
BRANCH   1  16
ATOM     15  C   UNL     1      47.335   8.602  12.236  0.00  0.00    +0.000 C 
ATOM     16  C   UNL     1      47.794   7.151  12.290  0.00  0.00    +0.000 C 
ENDBRANCH   1  16
BRANCH   1  17
ATOM     17  C   UNL     1      45.985   5.975  13.621  0.00  0.00    +0.000 C 
BRANCH  17  18
ATOM     18  C   UNL     1      45.350   5.081  12.582  0.00  0.00    +0.000 A 
ATOM     19  C   UNL     1      45.049   5.609  11.325  0.00  0.00    +0.000 A 
ATOM     20  C   UNL     1      44.800   4.739  10.269  0.00  0.00    +0.000 A 
ATOM     21  C   UNL     1      44.845   3.362  10.487  0.00  0.00    +0.000 A 
ATOM     22  C   UNL     1      45.078   2.930  11.789  0.00  0.00    +0.000 A 
ATOM     23  N   UNL     1      45.324   3.751  12.834  0.00  0.00    +0.000 NA
BRANCH  21  24
ATOM     24  C   UNL     1      44.734   2.395   9.338  0.00  0.00    +0.000 C 
BRANCH  24  25
ATOM     25  C   UNL     1      46.010   2.250   8.503  0.00  0.00    +0.000 C 
ATOM     26  C   UNL     1      45.905   2.971   7.168  0.00  0.00    +0.000 C 
ATOM     27  C   UNL     1      47.012   2.328   6.356  0.00  0.00    +0.000 C 
ATOM     28  C   UNL     1      47.120   0.912   6.910  0.00  0.00    +0.000 C 
ATOM     29  N   UNL     1      46.258   0.864   8.090  0.00  0.00    +0.000 NA
ATOM     30  H   UNL     1      46.693   0.333   8.844  0.00  0.00    +0.000 HD
ENDBRANCH  24  25
ENDBRANCH  21  24
ENDBRANCH  17  18
ENDBRANCH   1  17
TORSDOF 6
ENDMDL
MODEL 5
REMARK VINA RESULT:    -6.489      3.290      8.138
REMARK INTER + INTRA:          -9.996
REMARK INTER:                  -9.076
REMARK INTRA:                  -0.920
REMARK UNBOUND:                -1.230
REMARK  Name = 
REMARK  7 active torsions:
REMARK  status: ('A' for Active; 'I' for Inactive)
REMARK    1  A    between atoms: C_1  and  C_2
REMARK    2  A    between atoms: C_2  and  N_3
REMARK    3  A    between atoms: N_3  and  C_4
REMARK    4  A    between atoms: C_4  and  C_5
REMARK    5  A    between atoms: C_8  and  C_9
REMARK    6  A    between atoms: C_9  and  C_10
REMARK    7  A    between atoms: C_17  and  C_19
REMARK                            x       y       z     vdW  Elec       q    Type
REMARK                         _______ _______ _______ _____ _____    ______ ____
ROOT
ATOM      1  N   UNL     1      48.884   7.173  14.161  0.00  0.00    +0.000 N 
ATOM      2  C   UNL     1      49.494   6.681  15.333  0.00  0.00    +0.000 C 
ATOM      3  O   UNL     1      50.713   6.748  15.483  0.00  0.00    +0.000 OA
ENDROOT
BRANCH   2   4
ATOM      4  C   UNL     1      48.679   6.019  16.377  0.00  0.00    +0.000 A 
ATOM      5  C   UNL     1      48.300   4.684  16.381  0.00  0.00    +0.000 A 
ATOM      6  S   UNL     1      47.432   4.206  17.771  0.00  0.00    +0.000 S 
ATOM      7  C   UNL     1      47.688   5.716  18.502  0.00  0.00    +0.000 A 
ATOM      8  N   UNL     1      47.323   5.934  19.793  0.00  0.00    +0.000 NA
ATOM      9  C   UNL     1      47.650   7.099  20.241  0.00  0.00    +0.000 A 
ATOM     10  N   UNL     1      48.261   8.076  19.498  0.00  0.00    +0.000 N 
ATOM     11  C   UNL     1      48.513   7.953  18.155  0.00  0.00    +0.000 A 
ATOM     12  O   UNL     1      48.817   8.923  17.472  0.00  0.00    +0.000 OA
ATOM     13  C   UNL     1      48.304   6.608  17.643  0.00  0.00    +0.000 A 
ATOM     14  H   UNL     1      48.403   8.998  19.875  0.00  0.00    +0.000 HD
ENDBRANCH   2   4
BRANCH   1  16
ATOM     15  C   UNL     1      49.309   9.093  12.624  0.00  0.00    +0.000 C 
ATOM     16  C   UNL     1      49.754   7.724  13.118  0.00  0.00    +0.000 C 
ENDBRANCH   1  16
BRANCH   1  17
ATOM     17  C   UNL     1      47.437   7.138  13.964  0.00  0.00    +0.000 C 
BRANCH  17  18
ATOM     18  C   UNL     1      46.793   6.320  12.868  0.00  0.00    +0.000 A 
ATOM     19  C   UNL     1      46.390   5.013  13.145  0.00  0.00    +0.000 A 
ATOM     20  C   UNL     1      45.500   4.384  12.282  0.00  0.00    +0.000 A 
ATOM     21  C   UNL     1      45.037   5.063  11.156  0.00  0.00    +0.000 A 
ATOM     22  C   UNL     1      45.553   6.334  10.921  0.00  0.00    +0.000 A 
ATOM     23  N   UNL     1      46.417   6.971  11.742  0.00  0.00    +0.000 NA
BRANCH  21  24
ATOM     24  C   UNL     1      43.958   4.472  10.287  0.00  0.00    +0.000 C 
BRANCH  24  25
ATOM     25  C   UNL     1      44.467   3.817   8.999  0.00  0.00    +0.000 C 
ATOM     26  C   UNL     1      45.193   2.509   9.271  0.00  0.00    +0.000 C 
ATOM     27  C   UNL     1      45.985   2.298   7.996  0.00  0.00    +0.000 C 
ATOM     28  C   UNL     1      46.272   3.705   7.486  0.00  0.00    +0.000 C 
ATOM     29  N   UNL     1      45.502   4.615   8.333  0.00  0.00    +0.000 NA
ATOM     30  H   UNL     1      45.084   5.366   7.784  0.00  0.00    +0.000 HD
ENDBRANCH  24  25
ENDBRANCH  21  24
ENDBRANCH  17  18
ENDBRANCH   1  17
TORSDOF 6
ENDMDL
MODEL 6
REMARK VINA RESULT:    -6.454      3.610      7.990
REMARK INTER + INTRA:          -9.949
REMARK INTER:                  -8.770
REMARK INTRA:                  -1.179
REMARK UNBOUND:                -1.230
REMARK  Name = 
REMARK  7 active torsions:
REMARK  status: ('A' for Active; 'I' for Inactive)
REMARK    1  A    between atoms: C_1  and  C_2
REMARK    2  A    between atoms: C_2  and  N_3
REMARK    3  A    between atoms: N_3  and  C_4
REMARK    4  A    between atoms: C_4  and  C_5
REMARK    5  A    between atoms: C_8  and  C_9
REMARK    6  A    between atoms: C_9  and  C_10
REMARK    7  A    between atoms: C_17  and  C_19
REMARK                            x       y       z     vdW  Elec       q    Type
REMARK                         _______ _______ _______ _____ _____    ______ ____
ROOT
ATOM      1  N   UNL     1      48.950   7.707  13.747  0.00  0.00    +0.000 N 
ATOM      2  C   UNL     1      49.879   7.766  14.806  0.00  0.00    +0.000 C 
ATOM      3  O   UNL     1      51.071   7.536  14.608  0.00  0.00    +0.000 OA
ENDROOT
BRANCH   2   4
ATOM      4  C   UNL     1      49.422   8.048  16.186  0.00  0.00    +0.000 A 
ATOM      5  C   UNL     1      49.434   9.289  16.804  0.00  0.00    +0.000 A 
ATOM      6  S   UNL     1      48.759   9.298  18.372  0.00  0.00    +0.000 S 
ATOM      7  C   UNL     1      48.259   7.684  18.212  0.00  0.00    +0.000 A 
ATOM      8  N   UNL     1      47.477   7.102  19.159  0.00  0.00    +0.000 NA
ATOM      9  C   UNL     1      47.108   5.900  18.868  0.00  0.00    +0.000 A 
ATOM     10  N   UNL     1      47.495   5.217  17.743  0.00  0.00    +0.000 N 
ATOM     11  C   UNL     1      48.400   5.710  16.837  0.00  0.00    +0.000 A 
ATOM     12  O   UNL     1      48.916   4.988  15.993  0.00  0.00    +0.000 OA
ATOM     13  C   UNL     1      48.722   7.114  17.040  0.00  0.00    +0.000 A 
ATOM     14  H   UNL     1      47.254   4.248  17.619  0.00  0.00    +0.000 HD
ENDBRANCH   2   4
BRANCH   1  16
ATOM     15  C   UNL     1      49.614   8.502  11.476  0.00  0.00    +0.000 C 
ATOM     16  C   UNL     1      49.446   7.322  12.423  0.00  0.00    +0.000 C 
ENDBRANCH   1  16
BRANCH   1  17
ATOM     17  C   UNL     1      47.532   8.005  13.939  0.00  0.00    +0.000 C 
BRANCH  17  18
ATOM     18  C   UNL     1      46.443   7.225  13.240  0.00  0.00    +0.000 A 
ATOM     19  C   UNL     1      45.698   7.849  12.238  0.00  0.00    +0.000 A 
ATOM     20  C   UNL     1      44.955   7.066  11.362  0.00  0.00    +0.000 A 
ATOM     21  C   UNL     1      44.960   5.678  11.505  0.00  0.00    +0.000 A 
ATOM     22  C   UNL     1      45.671   5.152  12.578  0.00  0.00    +0.000 A 
ATOM     23  N   UNL     1      46.403   5.887  13.445  0.00  0.00    +0.000 NA
BRANCH  21  24
ATOM     24  C   UNL     1      44.294   4.795  10.484  0.00  0.00    +0.000 C 
BRANCH  24  25
ATOM     25  C   UNL     1      45.239   3.824   9.770  0.00  0.00    +0.000 C 
ATOM     26  C   UNL     1      45.271   4.059   8.268  0.00  0.00    +0.000 C 
ATOM     27  C   UNL     1      45.850   2.759   7.742  0.00  0.00    +0.000 C 
ATOM     28  C   UNL     1      45.401   1.706   8.747  0.00  0.00    +0.000 C 
ATOM     29  N   UNL     1      44.787   2.431   9.858  0.00  0.00    +0.000 NA
ATOM     30  H   UNL     1      45.047   2.022  10.755  0.00  0.00    +0.000 HD
ENDBRANCH  24  25
ENDBRANCH  21  24
ENDBRANCH  17  18
ENDBRANCH   1  17
TORSDOF 6
ENDMDL
MODEL 7
REMARK VINA RESULT:    -6.296      3.095      7.893
REMARK INTER + INTRA:          -9.735
REMARK INTER:                  -8.751
REMARK INTRA:                  -0.983
REMARK UNBOUND:                -1.230
REMARK  Name = 
REMARK  7 active torsions:
REMARK  status: ('A' for Active; 'I' for Inactive)
REMARK    1  A    between atoms: C_1  and  C_2
REMARK    2  A    between atoms: C_2  and  N_3
REMARK    3  A    between atoms: N_3  and  C_4
REMARK    4  A    between atoms: C_4  and  C_5
REMARK    5  A    between atoms: C_8  and  C_9
REMARK    6  A    between atoms: C_9  and  C_10
REMARK    7  A    between atoms: C_17  and  C_19
REMARK                            x       y       z     vdW  Elec       q    Type
REMARK                         _______ _______ _______ _____ _____    ______ ____
ROOT
ATOM      1  N   UNL     1      48.759   7.352  15.841  0.00  0.00    +0.000 N 
ATOM      2  C   UNL     1      48.629   6.831  17.144  0.00  0.00    +0.000 C 
ATOM      3  O   UNL     1      48.628   7.578  18.121  0.00  0.00    +0.000 OA
ENDROOT
BRANCH   2   4
ATOM      4  C   UNL     1      48.553   5.368  17.359  0.00  0.00    +0.000 A 
ATOM      5  C   UNL     1      47.400   4.599  17.288  0.00  0.00    +0.000 A 
ATOM      6  S   UNL     1      47.660   2.926  17.502  0.00  0.00    +0.000 S 
ATOM      7  C   UNL     1      49.343   3.145  17.512  0.00  0.00    +0.000 A 
ATOM      8  N   UNL     1      50.183   2.076  17.516  0.00  0.00    +0.000 NA
ATOM      9  C   UNL     1      51.432   2.391  17.443  0.00  0.00    +0.000 A 
ATOM     10  N   UNL     1      51.912   3.675  17.419  0.00  0.00    +0.000 N 
ATOM     11  C   UNL     1      51.111   4.781  17.562  0.00  0.00    +0.000 A 
ATOM     12  O   UNL     1      51.585   5.886  17.794  0.00  0.00    +0.000 OA
ATOM     13  C   UNL     1      49.689   4.483  17.493  0.00  0.00    +0.000 A 
ATOM     14  H   UNL     1      52.900   3.858  17.460  0.00  0.00    +0.000 HD
ENDBRANCH   2   4
BRANCH   1  16
ATOM     15  C   UNL     1      49.848   9.185  14.542  0.00  0.00    +0.000 C 
ATOM     16  C   UNL     1      48.934   8.800  15.698  0.00  0.00    +0.000 C 
ENDBRANCH   1  16
BRANCH   1  17
ATOM     17  C   UNL     1      48.733   6.498  14.655  0.00  0.00    +0.000 C 
BRANCH  17  18
ATOM     18  C   UNL     1      47.472   6.270  13.854  0.00  0.00    +0.000 A 
ATOM     19  C   UNL     1      47.248   7.037  12.709  0.00  0.00    +0.000 A 
ATOM     20  C   UNL     1      46.299   6.611  11.787  0.00  0.00    +0.000 A 
ATOM     21  C   UNL     1      45.583   5.438  12.027  0.00  0.00    +0.000 A 
ATOM     22  C   UNL     1      45.821   4.782  13.231  0.00  0.00    +0.000 A 
ATOM     23  N   UNL     1      46.737   5.171  14.145  0.00  0.00    +0.000 NA
BRANCH  21  24
ATOM     24  C   UNL     1      44.662   4.869  10.980  0.00  0.00    +0.000 C 
BRANCH  24  25
ATOM     25  C   UNL     1      45.298   3.800  10.087  0.00  0.00    +0.000 C 
ATOM     26  C   UNL     1      45.245   4.179   8.615  0.00  0.00    +0.000 C 
ATOM     27  C   UNL     1      45.470   2.850   7.922  0.00  0.00    +0.000 C 
ATOM     28  C   UNL     1      44.891   1.815   8.879  0.00  0.00    +0.000 C 
ATOM     29  N   UNL     1      44.557   2.533  10.109  0.00  0.00    +0.000 NA
ATOM     30  H   UNL     1      44.800   1.985  10.934  0.00  0.00    +0.000 HD
ENDBRANCH  24  25
ENDBRANCH  21  24
ENDBRANCH  17  18
ENDBRANCH   1  17
TORSDOF 6
ENDMDL
MODEL 8
REMARK VINA RESULT:    -6.156      3.568      7.812
REMARK INTER + INTRA:          -9.546
REMARK INTER:                  -8.126
REMARK INTRA:                  -1.420
REMARK UNBOUND:                -1.230
REMARK  Name = 
REMARK  7 active torsions:
REMARK  status: ('A' for Active; 'I' for Inactive)
REMARK    1  A    between atoms: C_1  and  C_2
REMARK    2  A    between atoms: C_2  and  N_3
REMARK    3  A    between atoms: N_3  and  C_4
REMARK    4  A    between atoms: C_4  and  C_5
REMARK    5  A    between atoms: C_8  and  C_9
REMARK    6  A    between atoms: C_9  and  C_10
REMARK    7  A    between atoms: C_17  and  C_19
REMARK                            x       y       z     vdW  Elec       q    Type
REMARK                         _______ _______ _______ _____ _____    ______ ____
ROOT
ATOM      1  N   UNL     1      48.644   8.182  17.208  0.00  0.00    +0.000 N 
ATOM      2  C   UNL     1      48.784   7.128  18.135  0.00  0.00    +0.000 C 
ATOM      3  O   UNL     1      48.133   7.119  19.178  0.00  0.00    +0.000 OA
ENDROOT
BRANCH   2   4
ATOM      4  C   UNL     1      49.767   6.048  17.892  0.00  0.00    +0.000 A 
ATOM      5  C   UNL     1      51.088   6.048  18.314  0.00  0.00    +0.000 A 
ATOM      6  S   UNL     1      51.940   4.614  17.949  0.00  0.00    +0.000 S 
ATOM      7  C   UNL     1      50.526   3.868  17.379  0.00  0.00    +0.000 A 
ATOM      8  N   UNL     1      50.522   2.552  17.042  0.00  0.00    +0.000 NA
ATOM      9  C   UNL     1      49.362   2.101  16.702  0.00  0.00    +0.000 A 
ATOM     10  N   UNL     1      48.224   2.862  16.621  0.00  0.00    +0.000 N 
ATOM     11  C   UNL     1      48.212   4.221  16.808  0.00  0.00    +0.000 A 
ATOM     12  O   UNL     1      47.248   4.901  16.480  0.00  0.00    +0.000 OA
ATOM     13  C   UNL     1      49.459   4.747  17.341  0.00  0.00    +0.000 A 
ATOM     14  H   UNL     1      47.370   2.475  16.256  0.00  0.00    +0.000 HD
ENDBRANCH   2   4
BRANCH   1  16
ATOM     15  C   UNL     1      48.442  10.606  17.765  0.00  0.00    +0.000 C 
ATOM     16  C   UNL     1      47.732   9.276  17.551  0.00  0.00    +0.000 C 
ENDBRANCH   1  16
BRANCH   1  17
ATOM     17  C   UNL     1      49.379   8.210  15.945  0.00  0.00    +0.000 C 
BRANCH  17  18
ATOM     18  C   UNL     1      48.705   7.965  14.616  0.00  0.00    +0.000 A 
ATOM     19  C   UNL     1      48.967   6.776  13.931  0.00  0.00    +0.000 A 
ATOM     20  C   UNL     1      48.109   6.382  12.910  0.00  0.00    +0.000 A 
ATOM     21  C   UNL     1      47.015   7.183  12.582  0.00  0.00    +0.000 A 
ATOM     22  C   UNL     1      46.879   8.386  13.268  0.00  0.00    +0.000 A 
ATOM     23  N   UNL     1      47.694   8.795  14.265  0.00  0.00    +0.000 NA
BRANCH  21  24
ATOM     24  C   UNL     1      45.984   6.712  11.591  0.00  0.00    +0.000 C 
BRANCH  24  25
ATOM     25  C   UNL     1      44.590   6.485  12.183  0.00  0.00    +0.000 C 
ATOM     26  C   UNL     1      44.500   5.172  12.945  0.00  0.00    +0.000 C 
ATOM     27  C   UNL     1      43.004   4.934  13.020  0.00  0.00    +0.000 C 
ATOM     28  C   UNL     1      42.448   5.591  11.763  0.00  0.00    +0.000 C 
ATOM     29  N   UNL     1      43.561   6.317  11.151  0.00  0.00    +0.000 NA
ATOM     30  H   UNL     1      43.258   7.222  10.790  0.00  0.00    +0.000 HD
ENDBRANCH  24  25
ENDBRANCH  21  24
ENDBRANCH  17  18
ENDBRANCH   1  17
TORSDOF 6
ENDMDL
MODEL 9
REMARK VINA RESULT:    -5.899      3.574      8.095
REMARK INTER + INTRA:          -9.199
REMARK INTER:                  -8.211
REMARK INTRA:                  -0.987
REMARK UNBOUND:                -1.230
REMARK  Name = 
REMARK  7 active torsions:
REMARK  status: ('A' for Active; 'I' for Inactive)
REMARK    1  A    between atoms: C_1  and  C_2
REMARK    2  A    between atoms: C_2  and  N_3
REMARK    3  A    between atoms: N_3  and  C_4
REMARK    4  A    between atoms: C_4  and  C_5
REMARK    5  A    between atoms: C_8  and  C_9
REMARK    6  A    between atoms: C_9  and  C_10
REMARK    7  A    between atoms: C_17  and  C_19
REMARK                            x       y       z     vdW  Elec       q    Type
REMARK                         _______ _______ _______ _____ _____    ______ ____
ROOT
ATOM      1  N   UNL     1      49.789   7.363  17.532  0.00  0.00    +0.000 N 
ATOM      2  C   UNL     1      49.219   6.524  18.512  0.00  0.00    +0.000 C 
ATOM      3  O   UNL     1      49.106   6.904  19.676  0.00  0.00    +0.000 OA
ENDROOT
BRANCH   2   4
ATOM      4  C   UNL     1      48.804   5.146  18.163  0.00  0.00    +0.000 A 
ATOM      5  C   UNL     1      47.515   4.747  17.842  0.00  0.00    +0.000 A 
ATOM      6  S   UNL     1      47.378   3.103  17.405  0.00  0.00    +0.000 S 
ATOM      7  C   UNL     1      49.063   2.907  17.450  0.00  0.00    +0.000 A 
ATOM      8  N   UNL     1      49.640   1.750  17.030  0.00  0.00    +0.000 NA
ATOM      9  C   UNL     1      50.930   1.771  17.046  0.00  0.00    +0.000 A 
ATOM     10  N   UNL     1      51.686   2.825  17.492  0.00  0.00    +0.000 N 
ATOM     11  C   UNL     1      51.147   3.950  18.061  0.00  0.00    +0.000 A 
ATOM     12  O   UNL     1      51.842   4.749  18.677  0.00  0.00    +0.000 OA
ATOM     13  C   UNL     1      49.702   4.038  17.925  0.00  0.00    +0.000 A 
ATOM     14  H   UNL     1      52.686   2.745  17.571  0.00  0.00    +0.000 HD
ENDBRANCH   2   4
BRANCH   1  16
ATOM     15  C   UNL     1      51.744   8.672  18.364  0.00  0.00    +0.000 C 
ATOM     16  C   UNL     1      50.277   8.677  17.958  0.00  0.00    +0.000 C 
ENDBRANCH   1  16
BRANCH   1  17
ATOM     17  C   UNL     1      49.911   6.955  16.134  0.00  0.00    +0.000 C 
BRANCH  17  18
ATOM     18  C   UNL     1      48.733   6.966  15.187  0.00  0.00    +0.000 A 
ATOM     19  C   UNL     1      48.335   8.175  14.613  0.00  0.00    +0.000 A 
ATOM     20  C   UNL     1      47.505   8.152  13.498  0.00  0.00    +0.000 A 
ATOM     21  C   UNL     1      47.080   6.928  12.981  0.00  0.00    +0.000 A 
ATOM     22  C   UNL     1      47.466   5.780  13.665  0.00  0.00    +0.000 A 
ATOM     23  N   UNL     1      48.272   5.770  14.750  0.00  0.00    +0.000 NA
BRANCH  21  24
ATOM     24  C   UNL     1      46.311   6.862  11.688  0.00  0.00    +0.000 C 
BRANCH  24  25
ATOM     25  C   UNL     1      45.245   5.764  11.639  0.00  0.00    +0.000 C 
ATOM     26  C   UNL     1      45.081   5.189  10.240  0.00  0.00    +0.000 C 
ATOM     27  C   UNL     1      43.726   4.512  10.317  0.00  0.00    +0.000 C 
ATOM     28  C   UNL     1      42.946   5.331  11.338  0.00  0.00    +0.000 C 
ATOM     29  N   UNL     1      43.898   6.272  11.926  0.00  0.00    +0.000 NA
ATOM     30  H   UNL     1      43.753   6.365  12.931  0.00  0.00    +0.000 HD
ENDBRANCH  24  25
ENDBRANCH  21  24
ENDBRANCH  17  18
ENDBRANCH   1  17
TORSDOF 6
ENDMDL
