MODEL 1
REMARK VINA RESULT:    -7.442      0.000      0.000
REMARK INTER + INTRA:         -10.384
REMARK INTER:                  -9.835
REMARK INTRA:                  -0.549
REMARK UNBOUND:                -0.549
REMARK  Name = 
REMARK  9 active torsions:
REMARK  status: ('A' for Active; 'I' for Inactive)
REMARK    1  A    between atoms: C_1  and  C_2
REMARK    2  A    between atoms: C_2  and  C_3
REMARK    3  A    between atoms: C_2  and  C_4
REMARK    4  A    between atoms: C_2  and  C_5
REMARK    5  A    between atoms: C_7  and  O_8
REMARK    6  A    between atoms: O_8  and  C_9
REMARK    7  A    between atoms: C_9  and  C_10
REMARK    8  A    between atoms: C_14  and  C_15
REMARK    9  A    between atoms: C_15  and  N_16
REMARK                            x       y       z     vdW  Elec       q    Type
REMARK                         _______ _______ _______ _____ _____    ______ ____
ROOT
ATOM      1  O   UNL     1      44.145   4.195  11.251  0.00  0.00    +0.000 OA
ENDROOT
BRANCH   1   4
ATOM      2  C   UNL     1      46.978   5.870  12.961  0.00  0.00    +0.000 A 
ATOM      3  C   UNL     1      45.886   5.717  12.100  0.00  0.00    +0.000 A 
ATOM      4  C   UNL     1      45.236   4.486  12.027  0.00  0.00    +0.000 A 
ATOM      5  C   UNL     1      45.698   3.432  12.802  0.00  0.00    +0.000 A 
ATOM      6  C   UNL     1      46.789   3.651  13.618  0.00  0.00    +0.000 A 
ATOM      7  N   UNL     1      47.429   4.836  13.712  0.00  0.00    +0.000 NA
BRANCH   2   9
ATOM      8  C   UNL     1      46.625   8.342  13.272  0.00  0.00    +0.000 C 
ATOM      9  C   UNL     1      47.678   7.227  13.113  0.00  0.00    +0.000 C 
ATOM     10  C   UNL     1      48.561   7.526  11.886  0.00  0.00    +0.000 C 
ATOM     11  C   UNL     1      48.584   7.253  14.364  0.00  0.00    +0.000 C 
ENDBRANCH   2   9
ENDBRANCH   1   4
BRANCH   1  12
ATOM     12  C   UNL     1      44.171   2.949  10.553  0.00  0.00    +0.000 C 
BRANCH  12  13
ATOM     13  C   UNL     1      45.024   3.039   9.308  0.00  0.00    +0.000 A 
ATOM     14  C   UNL     1      45.303   4.295   8.751  0.00  0.00    +0.000 A 
ATOM     15  C   UNL     1      46.157   4.410   7.655  0.00  0.00    +0.000 A 
ATOM     16  C   UNL     1      46.752   3.274   7.110  0.00  0.00    +0.000 A 
ATOM     17  C   UNL     1      46.488   2.002   7.640  0.00  0.00    +0.000 A 
ATOM     18  C   UNL     1      45.630   1.903   8.748  0.00  0.00    +0.000 A 
BRANCH  17  19
ATOM     19  C   UNL     1      47.179   0.761   7.128  0.00  0.00    +0.000 C 
BRANCH  19  20
ATOM     20  N   UNL     1      46.782  -0.460   7.823  0.00  0.00    +0.000 NA
ATOM     21  H   UNL     1      47.490  -1.174   7.653  0.00  0.00    +0.000 HD
ATOM     22  H   UNL     1      45.920  -0.808   7.408  0.00  0.00    +0.000 HD
ENDBRANCH  19  20
ENDBRANCH  17  19
ENDBRANCH  12  13
ENDBRANCH   1  12
TORSDOF 6
ENDMDL
MODEL 2
REMARK VINA RESULT:    -7.165      1.155      1.705
REMARK INTER + INTRA:         -10.018
REMARK INTER:                  -9.341
REMARK INTRA:                  -0.676
REMARK UNBOUND:                -0.549
REMARK  Name = 
REMARK  9 active torsions:
REMARK  status: ('A' for Active; 'I' for Inactive)
REMARK    1  A    between atoms: C_1  and  C_2
REMARK    2  A    between atoms: C_2  and  C_3
REMARK    3  A    between atoms: C_2  and  C_4
REMARK    4  A    between atoms: C_2  and  C_5
REMARK    5  A    between atoms: C_7  and  O_8
REMARK    6  A    between atoms: O_8  and  C_9
REMARK    7  A    between atoms: C_9  and  C_10
REMARK    8  A    between atoms: C_14  and  C_15
REMARK    9  A    between atoms: C_15  and  N_16
REMARK                            x       y       z     vdW  Elec       q    Type
REMARK                         _______ _______ _______ _____ _____    ______ ____
ROOT
ATOM      1  O   UNL     1      44.240   3.925  10.964  0.00  0.00    +0.000 OA
ENDROOT
BRANCH   1   4
ATOM      2  C   UNL     1      46.825   5.886  12.759  0.00  0.00    +0.000 A 
ATOM      3  C   UNL     1      45.801   5.614  11.846  0.00  0.00    +0.000 A 
ATOM      4  C   UNL     1      45.256   4.332  11.787  0.00  0.00    +0.000 A 
ATOM      5  C   UNL     1      45.755   3.348  12.628  0.00  0.00    +0.000 A 
ATOM      6  C   UNL     1      46.776   3.685  13.494  0.00  0.00    +0.000 A 
ATOM      7  N   UNL     1      47.313   4.921  13.575  0.00  0.00    +0.000 NA
BRANCH   2   9
ATOM      8  C   UNL     1      46.258   8.331  12.952  0.00  0.00    +0.000 C 
ATOM      9  C   UNL     1      47.404   7.301  12.895  0.00  0.00    +0.000 C 
ATOM     10  C   UNL     1      48.330   7.628  11.708  0.00  0.00    +0.000 C 
ATOM     11  C   UNL     1      48.232   7.446  14.192  0.00  0.00    +0.000 C 
ENDBRANCH   2   9
ENDBRANCH   1   4
BRANCH   1  12
ATOM     12  C   UNL     1      44.321   4.330   9.597  0.00  0.00    +0.000 C 
BRANCH  12  13
ATOM     13  C   UNL     1      45.164   3.368   8.792  0.00  0.00    +0.000 A 
ATOM     14  C   UNL     1      45.206   2.015   9.157  0.00  0.00    +0.000 A 
ATOM     15  C   UNL     1      45.907   1.094   8.380  0.00  0.00    +0.000 A 
ATOM     16  C   UNL     1      46.565   1.511   7.224  0.00  0.00    +0.000 A 
ATOM     17  C   UNL     1      46.549   2.858   6.836  0.00  0.00    +0.000 A 
ATOM     18  C   UNL     1      45.833   3.774   7.626  0.00  0.00    +0.000 A 
BRANCH  17  19
ATOM     19  C   UNL     1      47.180   3.330   5.548  0.00  0.00    +0.000 C 
BRANCH  19  20
ATOM     20  N   UNL     1      48.281   2.488   5.092  0.00  0.00    +0.000 NA
ATOM     21  H   UNL     1      47.980   1.986   4.256  0.00  0.00    +0.000 HD
ATOM     22  H   UNL     1      48.468   1.780   5.799  0.00  0.00    +0.000 HD
ENDBRANCH  19  20
ENDBRANCH  17  19
ENDBRANCH  12  13
ENDBRANCH   1  12
TORSDOF 6
ENDMDL
MODEL 3
REMARK VINA RESULT:    -6.284      3.879      7.547
REMARK INTER + INTRA:          -8.854
REMARK INTER:                  -8.332
REMARK INTRA:                  -0.522
REMARK UNBOUND:                -0.549
REMARK  Name = 
REMARK  9 active torsions:
REMARK  status: ('A' for Active; 'I' for Inactive)
REMARK    1  A    between atoms: C_1  and  C_2
REMARK    2  A    between atoms: C_2  and  C_3
REMARK    3  A    between atoms: C_2  and  C_4
REMARK    4  A    between atoms: C_2  and  C_5
REMARK    5  A    between atoms: C_7  and  O_8
REMARK    6  A    between atoms: O_8  and  C_9
REMARK    7  A    between atoms: C_9  and  C_10
REMARK    8  A    between atoms: C_14  and  C_15
REMARK    9  A    between atoms: C_15  and  N_16
REMARK                            x       y       z     vdW  Elec       q    Type
REMARK                         _______ _______ _______ _____ _____    ______ ____
ROOT
ATOM      1  O   UNL     1      47.561   3.146  14.764  0.00  0.00    +0.000 OA
ENDROOT
BRANCH   1   4
ATOM      2  C   UNL     1      45.135   4.638  12.389  0.00  0.00    +0.000 A 
ATOM      3  C   UNL     1      45.768   3.651  13.153  0.00  0.00    +0.000 A 
ATOM      4  C   UNL     1      46.859   3.994  13.950  0.00  0.00    +0.000 A 
ATOM      5  C   UNL     1      47.304   5.308  13.956  0.00  0.00    +0.000 A 
ATOM      6  C   UNL     1      46.640   6.226  13.166  0.00  0.00    +0.000 A 
ATOM      7  N   UNL     1      45.576   5.919  12.393  0.00  0.00    +0.000 NA
BRANCH   2   9
ATOM      8  C   UNL     1      42.766   5.311  11.872  0.00  0.00    +0.000 C 
ATOM      9  C   UNL     1      43.893   4.309  11.550  0.00  0.00    +0.000 C 
ATOM     10  C   UNL     1      43.403   2.877  11.838  0.00  0.00    +0.000 C 
ATOM     11  C   UNL     1      44.195   4.409  10.038  0.00  0.00    +0.000 C 
ENDBRANCH   2   9
ENDBRANCH   1   4
BRANCH   1  12
ATOM     12  C   UNL     1      47.472   3.387  16.169  0.00  0.00    +0.000 C 
BRANCH  12  13
ATOM     13  C   UNL     1      48.846   3.500  16.790  0.00  0.00    +0.000 A 
ATOM     14  C   UNL     1      49.186   4.652  17.513  0.00  0.00    +0.000 A 
ATOM     15  C   UNL     1      50.414   4.742  18.166  0.00  0.00    +0.000 A 
ATOM     16  C   UNL     1      51.313   3.678  18.115  0.00  0.00    +0.000 A 
ATOM     17  C   UNL     1      51.007   2.515  17.394  0.00  0.00    +0.000 A 
ATOM     18  C   UNL     1      49.763   2.436  16.746  0.00  0.00    +0.000 A 
BRANCH  17  19
ATOM     19  C   UNL     1      51.920   1.312  17.386  0.00  0.00    +0.000 C 
BRANCH  19  20
ATOM     20  N   UNL     1      51.420   0.190  18.175  0.00  0.00    +0.000 NA
ATOM     21  H   UNL     1      52.183  -0.166  18.750  0.00  0.00    +0.000 HD
ATOM     22  H   UNL     1      51.159  -0.565  17.544  0.00  0.00    +0.000 HD
ENDBRANCH  19  20
ENDBRANCH  17  19
ENDBRANCH  12  13
ENDBRANCH   1  12
TORSDOF 6
ENDMDL
MODEL 4
REMARK VINA RESULT:    -5.980      3.569      7.808
REMARK INTER + INTRA:          -8.452
REMARK INTER:                  -7.920
REMARK INTRA:                  -0.532
REMARK UNBOUND:                -0.549
REMARK  Name = 
REMARK  9 active torsions:
REMARK  status: ('A' for Active; 'I' for Inactive)
REMARK    1  A    between atoms: C_1  and  C_2
REMARK    2  A    between atoms: C_2  and  C_3
REMARK    3  A    between atoms: C_2  and  C_4
REMARK    4  A    between atoms: C_2  and  C_5
REMARK    5  A    between atoms: C_7  and  O_8
REMARK    6  A    between atoms: O_8  and  C_9
REMARK    7  A    between atoms: C_9  and  C_10
REMARK    8  A    between atoms: C_14  and  C_15
REMARK    9  A    between atoms: C_15  and  N_16
REMARK                            x       y       z     vdW  Elec       q    Type
REMARK                         _______ _______ _______ _____ _____    ______ ____
ROOT
ATOM      1  O   UNL     1      47.429   3.261  14.653  0.00  0.00    +0.000 OA
ENDROOT
BRANCH   1   4
ATOM      2  C   UNL     1      45.093   4.615  12.110  0.00  0.00    +0.000 A 
ATOM      3  C   UNL     1      45.680   3.679  12.970  0.00  0.00    +0.000 A 
ATOM      4  C   UNL     1      46.769   4.056  13.754  0.00  0.00    +0.000 A 
ATOM      5  C   UNL     1      47.257   5.351  13.653  0.00  0.00    +0.000 A 
ATOM      6  C   UNL     1      46.637   6.216  12.773  0.00  0.00    +0.000 A 
ATOM      7  N   UNL     1      45.576   5.876  12.011  0.00  0.00    +0.000 NA
BRANCH   2   9
ATOM      8  C   UNL     1      43.379   2.832  11.642  0.00  0.00    +0.000 C 
ATOM      9  C   UNL     1      43.854   4.253  11.280  0.00  0.00    +0.000 C 
ATOM     10  C   UNL     1      44.170   4.320   9.773  0.00  0.00    +0.000 C 
ATOM     11  C   UNL     1      42.687   5.226  11.560  0.00  0.00    +0.000 C 
ENDBRANCH   2   9
ENDBRANCH   1   4
BRANCH   1  12
ATOM     12  C   UNL     1      47.383   3.666  16.021  0.00  0.00    +0.000 C 
BRANCH  12  13
ATOM     13  C   UNL     1      48.713   3.437  16.702  0.00  0.00    +0.000 A 
ATOM     14  C   UNL     1      49.302   2.165  16.658  0.00  0.00    +0.000 A 
ATOM     15  C   UNL     1      50.566   1.951  17.204  0.00  0.00    +0.000 A 
ATOM     16  C   UNL     1      51.263   3.006  17.790  0.00  0.00    +0.000 A 
ATOM     17  C   UNL     1      50.699   4.288  17.857  0.00  0.00    +0.000 A 
ATOM     18  C   UNL     1      49.427   4.490  17.297  0.00  0.00    +0.000 A 
BRANCH  17  19
ATOM     19  C   UNL     1      51.459   5.471  18.409  0.00  0.00    +0.000 C 
BRANCH  19  20
ATOM     20  N   UNL     1      50.846   6.759  18.097  0.00  0.00    +0.000 NA
ATOM     21  H   UNL     1      50.988   6.952  17.106  0.00  0.00    +0.000 HD
ATOM     22  H   UNL     1      51.341   7.490  18.604  0.00  0.00    +0.000 HD
ENDBRANCH  19  20
ENDBRANCH  17  19
ENDBRANCH  12  13
ENDBRANCH   1  12
TORSDOF 6
ENDMDL
MODEL 5
REMARK VINA RESULT:    -5.647      4.019      5.690
REMARK INTER + INTRA:          -8.012
REMARK INTER:                  -7.507
REMARK INTRA:                  -0.505
REMARK UNBOUND:                -0.549
REMARK  Name = 
REMARK  9 active torsions:
REMARK  status: ('A' for Active; 'I' for Inactive)
REMARK    1  A    between atoms: C_1  and  C_2
REMARK    2  A    between atoms: C_2  and  C_3
REMARK    3  A    between atoms: C_2  and  C_4
REMARK    4  A    between atoms: C_2  and  C_5
REMARK    5  A    between atoms: C_7  and  O_8
REMARK    6  A    between atoms: O_8  and  C_9
REMARK    7  A    between atoms: C_9  and  C_10
REMARK    8  A    between atoms: C_14  and  C_15
REMARK    9  A    between atoms: C_15  and  N_16
REMARK                            x       y       z     vdW  Elec       q    Type
REMARK                         _______ _______ _______ _____ _____    ______ ____
ROOT
ATOM      1  O   UNL     1      47.797   4.985  15.220  0.00  0.00    +0.000 OA
ENDROOT
BRANCH   1   4
ATOM      2  C   UNL     1      48.586   5.428  18.816  0.00  0.00    +0.000 A 
ATOM      3  C   UNL     1      48.333   5.784  17.487  0.00  0.00    +0.000 A 
ATOM      4  C   UNL     1      48.081   4.788  16.545  0.00  0.00    +0.000 A 
ATOM      5  C   UNL     1      48.102   3.460  16.945  0.00  0.00    +0.000 A 
ATOM      6  C   UNL     1      48.373   3.181  18.270  0.00  0.00    +0.000 A 
ATOM      7  N   UNL     1      48.611   4.129  19.202  0.00  0.00    +0.000 NA
BRANCH   2   9
ATOM      8  C   UNL     1      49.959   6.078  20.822  0.00  0.00    +0.000 C 
ATOM      9  C   UNL     1      48.804   6.500  19.892  0.00  0.00    +0.000 C 
ATOM     10  C   UNL     1      47.524   6.704  20.725  0.00  0.00    +0.000 C 
ATOM     11  C   UNL     1      49.179   7.859  19.262  0.00  0.00    +0.000 C 
ENDBRANCH   2   9
ENDBRANCH   1   4
BRANCH   1  12
ATOM     12  C   UNL     1      47.141   3.914  14.539  0.00  0.00    +0.000 C 
BRANCH  12  13
ATOM     13  C   UNL     1      46.373   4.421  13.340  0.00  0.00    +0.000 A 
ATOM     14  C   UNL     1      46.635   5.705  12.843  0.00  0.00    +0.000 A 
ATOM     15  C   UNL     1      46.002   6.161  11.688  0.00  0.00    +0.000 A 
ATOM     16  C   UNL     1      45.109   5.335  11.008  0.00  0.00    +0.000 A 
ATOM     17  C   UNL     1      44.820   4.047  11.482  0.00  0.00    +0.000 A 
ATOM     18  C   UNL     1      45.470   3.600  12.645  0.00  0.00    +0.000 A 
BRANCH  17  19
ATOM     19  C   UNL     1      43.922   3.096  10.726  0.00  0.00    +0.000 C 
BRANCH  19  20
ATOM     20  N   UNL     1      43.047   2.307  11.587  0.00  0.00    +0.000 NA
ATOM     21  H   UNL     1      43.428   1.364  11.657  0.00  0.00    +0.000 HD
ATOM     22  H   UNL     1      42.138   2.216  11.136  0.00  0.00    +0.000 HD
ENDBRANCH  19  20
ENDBRANCH  17  19
ENDBRANCH  12  13
ENDBRANCH   1  12
TORSDOF 6
ENDMDL
MODEL 6
REMARK VINA RESULT:    -5.642      3.350      7.501
REMARK INTER + INTRA:          -8.004
REMARK INTER:                  -7.298
REMARK INTRA:                  -0.706
REMARK UNBOUND:                -0.549
REMARK  Name = 
REMARK  9 active torsions:
REMARK  status: ('A' for Active; 'I' for Inactive)
REMARK    1  A    between atoms: C_1  and  C_2
REMARK    2  A    between atoms: C_2  and  C_3
REMARK    3  A    between atoms: C_2  and  C_4
REMARK    4  A    between atoms: C_2  and  C_5
REMARK    5  A    between atoms: C_7  and  O_8
REMARK    6  A    between atoms: O_8  and  C_9
REMARK    7  A    between atoms: C_9  and  C_10
REMARK    8  A    between atoms: C_14  and  C_15
REMARK    9  A    between atoms: C_15  and  N_16
REMARK                            x       y       z     vdW  Elec       q    Type
REMARK                         _______ _______ _______ _____ _____    ______ ____
ROOT
ATOM      1  O   UNL     1      48.494   6.224  13.661  0.00  0.00    +0.000 OA
ENDROOT
BRANCH   1   4
ATOM      2  C   UNL     1      45.199   5.777  12.020  0.00  0.00    +0.000 A 
ATOM      3  C   UNL     1      46.421   5.421  12.601  0.00  0.00    +0.000 A 
ATOM      4  C   UNL     1      47.282   6.419  13.055  0.00  0.00    +0.000 A 
ATOM      5  C   UNL     1      46.913   7.748  12.906  0.00  0.00    +0.000 A 
ATOM      6  C   UNL     1      45.698   8.026  12.311  0.00  0.00    +0.000 A 
ATOM      7  N   UNL     1      44.844   7.077  11.872  0.00  0.00    +0.000 NA
BRANCH   2   9
ATOM      8  C   UNL     1      42.760   5.178  11.856  0.00  0.00    +0.000 C 
ATOM      9  C   UNL     1      44.199   4.705  11.567  0.00  0.00    +0.000 C 
ATOM     10  C   UNL     1      44.459   3.374  12.299  0.00  0.00    +0.000 C 
ATOM     11  C   UNL     1      44.312   4.438  10.050  0.00  0.00    +0.000 C 
ENDBRANCH   2   9
ENDBRANCH   1   4
BRANCH   1  12
ATOM     12  C   UNL     1      48.868   7.169  14.665  0.00  0.00    +0.000 C 
BRANCH  12  13
ATOM     13  C   UNL     1      48.717   6.581  16.050  0.00  0.00    +0.000 A 
ATOM     14  C   UNL     1      48.690   7.432  17.163  0.00  0.00    +0.000 A 
ATOM     15  C   UNL     1      48.466   6.921  18.440  0.00  0.00    +0.000 A 
ATOM     16  C   UNL     1      48.255   5.555  18.620  0.00  0.00    +0.000 A 
ATOM     17  C   UNL     1      48.283   4.675  17.528  0.00  0.00    +0.000 A 
ATOM     18  C   UNL     1      48.504   5.206  16.246  0.00  0.00    +0.000 A 
BRANCH  17  19
ATOM     19  C   UNL     1      47.977   3.204  17.674  0.00  0.00    +0.000 C 
BRANCH  19  20
ATOM     20  N   UNL     1      46.548   2.903  17.705  0.00  0.00    +0.000 NA
ATOM     21  H   UNL     1      46.119   3.289  16.864  0.00  0.00    +0.000 HD
ATOM     22  H   UNL     1      46.126   3.391  18.492  0.00  0.00    +0.000 HD
ENDBRANCH  19  20
ENDBRANCH  17  19
ENDBRANCH  12  13
ENDBRANCH   1  12
TORSDOF 6
ENDMDL
MODEL 7
REMARK VINA RESULT:    -5.607      3.712      7.022
REMARK INTER + INTRA:          -7.958
REMARK INTER:                  -7.313
REMARK INTRA:                  -0.645
REMARK UNBOUND:                -0.549
REMARK  Name = 
REMARK  9 active torsions:
REMARK  status: ('A' for Active; 'I' for Inactive)
REMARK    1  A    between atoms: C_1  and  C_2
REMARK    2  A    between atoms: C_2  and  C_3
REMARK    3  A    between atoms: C_2  and  C_4
REMARK    4  A    between atoms: C_2  and  C_5
REMARK    5  A    between atoms: C_7  and  O_8
REMARK    6  A    between atoms: O_8  and  C_9
REMARK    7  A    between atoms: C_9  and  C_10
REMARK    8  A    between atoms: C_14  and  C_15
REMARK    9  A    between atoms: C_15  and  N_16
REMARK                            x       y       z     vdW  Elec       q    Type
REMARK                         _______ _______ _______ _____ _____    ______ ____
ROOT
ATOM      1  O   UNL     1      47.526   3.124  14.868  0.00  0.00    +0.000 OA
ENDROOT
BRANCH   1   4
ATOM      2  C   UNL     1      46.745   6.157  12.882  0.00  0.00    +0.000 A 
ATOM      3  C   UNL     1      47.339   5.370  13.875  0.00  0.00    +0.000 A 
ATOM      4  C   UNL     1      47.012   4.019  13.967  0.00  0.00    +0.000 A 
ATOM      5  C   UNL     1      46.091   3.485  13.078  0.00  0.00    +0.000 A 
ATOM      6  C   UNL     1      45.534   4.324  12.133  0.00  0.00    +0.000 A 
ATOM      7  N   UNL     1      45.842   5.633  12.019  0.00  0.00    +0.000 NA
BRANCH   2   9
ATOM      8  C   UNL     1      45.929   8.422  12.150  0.00  0.00    +0.000 C 
ATOM      9  C   UNL     1      47.129   7.633  12.711  0.00  0.00    +0.000 C 
ATOM     10  C   UNL     1      48.330   7.777  11.756  0.00  0.00    +0.000 C 
ATOM     11  C   UNL     1      47.522   8.271  14.062  0.00  0.00    +0.000 C 
ENDBRANCH   2   9
ENDBRANCH   1   4
BRANCH   1  12
ATOM     12  C   UNL     1      47.466   3.496  16.246  0.00  0.00    +0.000 C 
BRANCH  12  13
ATOM     13  C   UNL     1      48.846   3.771  16.797  0.00  0.00    +0.000 A 
ATOM     14  C   UNL     1      49.165   5.058  17.252  0.00  0.00    +0.000 A 
ATOM     15  C   UNL     1      50.401   5.315  17.842  0.00  0.00    +0.000 A 
ATOM     16  C   UNL     1      51.330   4.287  17.996  0.00  0.00    +0.000 A 
ATOM     17  C   UNL     1      51.045   2.990  17.545  0.00  0.00    +0.000 A 
ATOM     18  C   UNL     1      49.792   2.745  16.957  0.00  0.00    +0.000 A 
BRANCH  17  19
ATOM     19  C   UNL     1      51.992   1.836  17.770  0.00  0.00    +0.000 C 
BRANCH  19  20
ATOM     20  N   UNL     1      51.320   0.552  17.948  0.00  0.00    +0.000 NA
ATOM     21  H   UNL     1      51.302   0.332  18.944  0.00  0.00    +0.000 HD
ATOM     22  H   UNL     1      51.878  -0.175  17.505  0.00  0.00    +0.000 HD
ENDBRANCH  19  20
ENDBRANCH  17  19
ENDBRANCH  12  13
ENDBRANCH   1  12
TORSDOF 6
ENDMDL
MODEL 8
REMARK VINA RESULT:    -5.439      2.739      4.753
REMARK INTER + INTRA:          -7.736
REMARK INTER:                  -7.126
REMARK INTRA:                  -0.610
REMARK UNBOUND:                -0.549
REMARK  Name = 
REMARK  9 active torsions:
REMARK  status: ('A' for Active; 'I' for Inactive)
REMARK    1  A    between atoms: C_1  and  C_2
REMARK    2  A    between atoms: C_2  and  C_3
REMARK    3  A    between atoms: C_2  and  C_4
REMARK    4  A    between atoms: C_2  and  C_5
REMARK    5  A    between atoms: C_7  and  O_8
REMARK    6  A    between atoms: O_8  and  C_9
REMARK    7  A    between atoms: C_9  and  C_10
REMARK    8  A    between atoms: C_14  and  C_15
REMARK    9  A    between atoms: C_15  and  N_16
REMARK                            x       y       z     vdW  Elec       q    Type
REMARK                         _______ _______ _______ _____ _____    ______ ____
ROOT
ATOM      1  O   UNL     1      47.555   6.257  12.684  0.00  0.00    +0.000 OA
ENDROOT
BRANCH   1   4
ATOM      2  C   UNL     1      48.399   5.644  16.242  0.00  0.00    +0.000 A 
ATOM      3  C   UNL     1      47.786   5.451  14.999  0.00  0.00    +0.000 A 
ATOM      4  C   UNL     1      48.060   6.332  13.954  0.00  0.00    +0.000 A 
ATOM      5  C   UNL     1      48.925   7.393  14.176  0.00  0.00    +0.000 A 
ATOM      6  C   UNL     1      49.483   7.530  15.431  0.00  0.00    +0.000 A 
ATOM      7  N   UNL     1      49.240   6.685  16.455  0.00  0.00    +0.000 NA
BRANCH   2   9
ATOM      8  C   UNL     1      47.615   5.409  18.622  0.00  0.00    +0.000 C 
ATOM      9  C   UNL     1      48.171   4.658  17.396  0.00  0.00    +0.000 C 
ATOM     10  C   UNL     1      49.487   3.954  17.779  0.00  0.00    +0.000 C 
ATOM     11  C   UNL     1      47.148   3.567  17.007  0.00  0.00    +0.000 C 
ENDBRANCH   2   9
ENDBRANCH   1   4
BRANCH   1  12
ATOM     12  C   UNL     1      46.278   6.859  12.465  0.00  0.00    +0.000 C 
BRANCH  12  13
ATOM     13  C   UNL     1      45.235   5.817  12.129  0.00  0.00    +0.000 A 
ATOM     14  C   UNL     1      44.096   5.693  12.938  0.00  0.00    +0.000 A 
ATOM     15  C   UNL     1      43.081   4.800  12.600  0.00  0.00    +0.000 A 
ATOM     16  C   UNL     1      43.186   4.027  11.444  0.00  0.00    +0.000 A 
ATOM     17  C   UNL     1      44.316   4.122  10.618  0.00  0.00    +0.000 A 
ATOM     18  C   UNL     1      45.327   5.031  10.969  0.00  0.00    +0.000 A 
BRANCH  17  19
ATOM     19  C   UNL     1      44.424   3.363   9.317  0.00  0.00    +0.000 C 
BRANCH  19  20
ATOM     20  N   UNL     1      44.538   1.918   9.489  0.00  0.00    +0.000 NA
ATOM     21  H   UNL     1      43.762   1.472   9.000  0.00  0.00    +0.000 HD
ATOM     22  H   UNL     1      44.421   1.694  10.475  0.00  0.00    +0.000 HD
ENDBRANCH  19  20
ENDBRANCH  17  19
ENDBRANCH  12  13
ENDBRANCH   1  12
TORSDOF 6
ENDMDL
MODEL 9
REMARK VINA RESULT:    -5.190      3.769      8.419
REMARK INTER + INTRA:          -7.408
REMARK INTER:                  -6.913
REMARK INTRA:                  -0.495
REMARK UNBOUND:                -0.549
REMARK  Name = 
REMARK  9 active torsions:
REMARK  status: ('A' for Active; 'I' for Inactive)
REMARK    1  A    between atoms: C_1  and  C_2
REMARK    2  A    between atoms: C_2  and  C_3
REMARK    3  A    between atoms: C_2  and  C_4
REMARK    4  A    between atoms: C_2  and  C_5
REMARK    5  A    between atoms: C_7  and  O_8
REMARK    6  A    between atoms: O_8  and  C_9
REMARK    7  A    between atoms: C_9  and  C_10
REMARK    8  A    between atoms: C_14  and  C_15
REMARK    9  A    between atoms: C_15  and  N_16
REMARK                            x       y       z     vdW  Elec       q    Type
REMARK                         _______ _______ _______ _____ _____    ______ ____
ROOT
ATOM      1  O   UNL     1      47.650   4.710  14.680  0.00  0.00    +0.000 OA
ENDROOT
BRANCH   1   4
ATOM      2  C   UNL     1      45.053   5.099  12.062  0.00  0.00    +0.000 A 
ATOM      3  C   UNL     1      45.762   4.505  13.112  0.00  0.00    +0.000 A 
ATOM      4  C   UNL     1      46.875   5.155  13.643  0.00  0.00    +0.000 A 
ATOM      5  C   UNL     1      47.265   6.373  13.105  0.00  0.00    +0.000 A 
ATOM      6  C   UNL     1      46.527   6.892  12.060  0.00  0.00    +0.000 A 
ATOM      7  N   UNL     1      45.440   6.286  11.536  0.00  0.00    +0.000 NA
BRANCH   2   9
ATOM      8  C   UNL     1      42.569   5.355  11.748  0.00  0.00    +0.000 C 
ATOM      9  C   UNL     1      43.786   4.443  11.496  0.00  0.00    +0.000 C 
ATOM     10  C   UNL     1      43.543   3.070  12.153  0.00  0.00    +0.000 C 
ATOM     11  C   UNL     1      43.902   4.222   9.971  0.00  0.00    +0.000 C 
ENDBRANCH   2   9
ENDBRANCH   1   4
BRANCH   1  12
ATOM     12  C   UNL     1      48.197   5.707  15.545  0.00  0.00    +0.000 C 
BRANCH  12  13
ATOM     13  C   UNL     1      48.293   5.202  16.967  0.00  0.00    +0.000 A 
ATOM     14  C   UNL     1      48.481   3.833  17.203  0.00  0.00    +0.000 A 
ATOM     15  C   UNL     1      48.658   3.355  18.500  0.00  0.00    +0.000 A 
ATOM     16  C   UNL     1      48.660   4.241  19.577  0.00  0.00    +0.000 A 
ATOM     17  C   UNL     1      48.467   5.615  19.375  0.00  0.00    +0.000 A 
ATOM     18  C   UNL     1      48.296   6.082  18.061  0.00  0.00    +0.000 A 
BRANCH  17  19
ATOM     19  C   UNL     1      48.546   6.611  20.508  0.00  0.00    +0.000 C 
BRANCH  19  20
ATOM     20  N   UNL     1      47.514   7.642  20.455  0.00  0.00    +0.000 NA
ATOM     21  H   UNL     1      46.611   7.205  20.637  0.00  0.00    +0.000 HD
ATOM     22  H   UNL     1      47.468   8.013  19.509  0.00  0.00    +0.000 HD
ENDBRANCH  19  20
ENDBRANCH  17  19
ENDBRANCH  12  13
ENDBRANCH   1  12
TORSDOF 6
ENDMDL
