MODEL 1
REMARK VINA RESULT:    -8.913      0.000      0.000
REMARK INTER + INTRA:         -12.716
REMARK INTER:                 -12.040
REMARK INTRA:                  -0.677
REMARK UNBOUND:                -0.677
REMARK  Name = 
REMARK  7 active torsions:
REMARK  status: ('A' for Active; 'I' for Inactive)
REMARK    1  A    between atoms: C_1  and  N_2
REMARK    2  A    between atoms: N_2  and  C_3
REMARK    3  A    between atoms: C_3  and  C_4
REMARK    4  A    between atoms: C_7  and  C_8
REMARK    5  A    between atoms: C_8  and  N_9
REMARK    6  A    between atoms: C_10  and  C_12
REMARK    7  A    between atoms: C_20  and  C_22
REMARK                            x       y       z     vdW  Elec       q    Type
REMARK                         _______ _______ _______ _____ _____    ______ ____
ROOT
ATOM      1  C   UNL     1      47.241   5.565  13.394  0.00  0.00    +0.000 A 
ATOM      2  C   UNL     1      47.907   6.252  14.415  0.00  0.00    +0.000 A 
ATOM      3  C   UNL     1      48.062   5.658  15.662  0.00  0.00    +0.000 A 
ATOM      4  C   UNL     1      47.528   4.390  15.866  0.00  0.00    +0.000 A 
ATOM      5  N   UNL     1      46.938   3.676  14.872  0.00  0.00    +0.000 NA
ATOM      6  C   UNL     1      46.809   4.276  13.667  0.00  0.00    +0.000 A 
ENDROOT
BRANCH   1   7
ATOM      7  C   UNL     1      46.956   6.218  12.074  0.00  0.00    +0.000 C 
BRANCH   7   9
ATOM      8  C   UNL     1      45.829   8.494  12.103  0.00  0.00    +0.000 C 
ATOM      9  N   UNL     1      45.757   7.046  11.944  0.00  0.00    +0.000 N 
ATOM     10  C   UNL     1      44.508   6.541  11.532  0.00  0.00    +0.000 C 
ATOM     11  O   UNL     1      43.558   7.296  11.330  0.00  0.00    +0.000 OA
BRANCH  10  12
ATOM     12  C   UNL     1      44.321   5.090  11.380  0.00  0.00    +0.000 A 
ATOM     13  C   UNL     1      43.567   4.300  12.233  0.00  0.00    +0.000 A 
ATOM     14  S   UNL     1      43.476   2.665  11.751  0.00  0.00    +0.000 S 
ATOM     15  C   UNL     1      44.310   2.991  10.306  0.00  0.00    +0.000 A 
ATOM     16  N   UNL     1      44.480   2.026   9.364  0.00  0.00    +0.000 NA
ATOM     17  C   UNL     1      45.062   2.438   8.286  0.00  0.00    +0.000 A 
ATOM     18  N   UNL     1      45.522   3.714   8.084  0.00  0.00    +0.000 N 
ATOM     19  C   UNL     1      45.498   4.685   9.064  0.00  0.00    +0.000 A 
ATOM     20  O   UNL     1      46.129   5.726   8.937  0.00  0.00    +0.000 OA
ATOM     21  C   UNL     1      44.739   4.304  10.242  0.00  0.00    +0.000 A 
ATOM     22  H   UNL     1      46.031   3.951   7.245  0.00  0.00    +0.000 HD
ENDBRANCH  10  12
ENDBRANCH   7   9
ENDBRANCH   1   7
BRANCH   4  23
ATOM     23  C   UNL     1      47.564   3.766  17.240  0.00  0.00    +0.000 C 
BRANCH  23  24
ATOM     24  N   UNL     1      48.885   3.331  17.630  0.00  0.00    +0.000 N 
ATOM     25  C   UNL     1      49.559   2.329  16.981  0.00  0.00    +0.000 C 
ATOM     26  O   UNL     1      49.057   1.681  16.065  0.00  0.00    +0.000 OA
ATOM     27  H   UNL     1      49.279   3.755  18.460  0.00  0.00    +0.000 HD
BRANCH  25  28
ATOM     28  C   UNL     1      50.910   2.102  17.420  0.00  0.00    +0.000 A 
ATOM     29  N   UNL     1      51.429   0.833  17.556  0.00  0.00    +0.000 N 
ATOM     30  C   UNL     1      52.734   0.941  17.931  0.00  0.00    +0.000 A 
ATOM     31  N   UNL     1      53.087   2.195  18.067  0.00  0.00    +0.000 NA
ATOM     32  C   UNL     1      51.967   2.930  17.754  0.00  0.00    +0.000 A 
ATOM     33 CL   UNL     1      52.003   4.634  17.784  0.00  0.00    +0.000 Cl
ATOM     34  H   UNL     1      50.917  -0.023  17.381  0.00  0.00    +0.000 HD
ENDBRANCH  25  28
ENDBRANCH  23  24
ENDBRANCH   4  23
TORSDOF 6
ENDMDL
MODEL 2
REMARK VINA RESULT:    -8.719      1.350      1.997
REMARK INTER + INTRA:         -12.454
REMARK INTER:                 -11.387
REMARK INTRA:                  -1.068
REMARK UNBOUND:                -0.677
REMARK  Name = 
REMARK  7 active torsions:
REMARK  status: ('A' for Active; 'I' for Inactive)
REMARK    1  A    between atoms: C_1  and  N_2
REMARK    2  A    between atoms: N_2  and  C_3
REMARK    3  A    between atoms: C_3  and  C_4
REMARK    4  A    between atoms: C_7  and  C_8
REMARK    5  A    between atoms: C_8  and  N_9
REMARK    6  A    between atoms: C_10  and  C_12
REMARK    7  A    between atoms: C_20  and  C_22
REMARK                            x       y       z     vdW  Elec       q    Type
REMARK                         _______ _______ _______ _____ _____    ______ ____
ROOT
ATOM      1  C   UNL     1      47.525   5.808  13.614  0.00  0.00    +0.000 A 
ATOM      2  C   UNL     1      48.268   6.286  14.698  0.00  0.00    +0.000 A 
ATOM      3  C   UNL     1      48.346   5.538  15.867  0.00  0.00    +0.000 A 
ATOM      4  C   UNL     1      47.660   4.330  15.932  0.00  0.00    +0.000 A 
ATOM      5  N   UNL     1      46.987   3.813  14.870  0.00  0.00    +0.000 NA
ATOM      6  C   UNL     1      46.936   4.559  13.743  0.00  0.00    +0.000 A 
ENDROOT
BRANCH   1   7
ATOM      7  C   UNL     1      47.325   6.638  12.381  0.00  0.00    +0.000 C 
BRANCH   7   9
ATOM      8  C   UNL     1      46.200   8.823  13.020  0.00  0.00    +0.000 C 
ATOM      9  N   UNL     1      46.177   7.544  12.321  0.00  0.00    +0.000 N 
ATOM     10  C   UNL     1      45.055   7.320  11.500  0.00  0.00    +0.000 C 
ATOM     11  O   UNL     1      44.167   8.165  11.400  0.00  0.00    +0.000 OA
BRANCH  10  12
ATOM     12  C   UNL     1      44.918   6.043  10.782  0.00  0.00    +0.000 A 
ATOM     13  C   UNL     1      45.554   5.738   9.589  0.00  0.00    +0.000 A 
ATOM     14  S   UNL     1      45.258   4.147   9.042  0.00  0.00    +0.000 S 
ATOM     15  C   UNL     1      44.398   3.766  10.458  0.00  0.00    +0.000 A 
ATOM     16  N   UNL     1      43.951   2.502  10.685  0.00  0.00    +0.000 NA
ATOM     17  C   UNL     1      43.384   2.342  11.835  0.00  0.00    +0.000 A 
ATOM     18  N   UNL     1      43.190   3.338  12.757  0.00  0.00    +0.000 N 
ATOM     19  C   UNL     1      43.498   4.660  12.510  0.00  0.00    +0.000 A 
ATOM     20  O   UNL     1      43.094   5.551  13.246  0.00  0.00    +0.000 OA
ATOM     21  C   UNL     1      44.252   4.863  11.286  0.00  0.00    +0.000 A 
ATOM     22  H   UNL     1      42.676   3.160  13.607  0.00  0.00    +0.000 HD
ENDBRANCH  10  12
ENDBRANCH   7   9
ENDBRANCH   1   7
BRANCH   4  23
ATOM     23  C   UNL     1      47.616   3.553  17.224  0.00  0.00    +0.000 C 
BRANCH  23  24
ATOM     24  N   UNL     1      48.916   3.093  17.653  0.00  0.00    +0.000 N 
ATOM     25  C   UNL     1      49.667   2.205  16.928  0.00  0.00    +0.000 C 
ATOM     26  O   UNL     1      49.255   1.683  15.894  0.00  0.00    +0.000 OA
ATOM     27  H   UNL     1      49.234   3.404  18.562  0.00  0.00    +0.000 HD
BRANCH  25  28
ATOM     28  C   UNL     1      50.987   1.945  17.436  0.00  0.00    +0.000 A 
ATOM     29  N   UNL     1      51.450   0.664  17.644  0.00  0.00    +0.000 N 
ATOM     30  C   UNL     1      52.739   0.738  18.074  0.00  0.00    +0.000 A 
ATOM     31  N   UNL     1      53.135   1.983  18.177  0.00  0.00    +0.000 NA
ATOM     32  C   UNL     1      52.060   2.746  17.785  0.00  0.00    +0.000 A 
ATOM     33 CL   UNL     1      52.163   4.447  17.751  0.00  0.00    +0.000 Cl
ATOM     34  H   UNL     1      50.913  -0.179  17.479  0.00  0.00    +0.000 HD
ENDBRANCH  25  28
ENDBRANCH  23  24
ENDBRANCH   4  23
TORSDOF 6
ENDMDL
MODEL 3
REMARK VINA RESULT:    -8.067      4.057      8.587
REMARK INTER + INTRA:         -11.573
REMARK INTER:                 -10.478
REMARK INTRA:                  -1.095
REMARK UNBOUND:                -0.677
REMARK  Name = 
REMARK  7 active torsions:
REMARK  status: ('A' for Active; 'I' for Inactive)
REMARK    1  A    between atoms: C_1  and  N_2
REMARK    2  A    between atoms: N_2  and  C_3
REMARK    3  A    between atoms: C_3  and  C_4
REMARK    4  A    between atoms: C_7  and  C_8
REMARK    5  A    between atoms: C_8  and  N_9
REMARK    6  A    between atoms: C_10  and  C_12
REMARK    7  A    between atoms: C_20  and  C_22
REMARK                            x       y       z     vdW  Elec       q    Type
REMARK                         _______ _______ _______ _____ _____    ______ ____
ROOT
ATOM      1  C   UNL     1      46.448   6.427  12.945  0.00  0.00    +0.000 A 
ATOM      2  C   UNL     1      45.822   6.755  11.738  0.00  0.00    +0.000 A 
ATOM      3  C   UNL     1      45.160   5.771  11.012  0.00  0.00    +0.000 A 
ATOM      4  C   UNL     1      45.154   4.470  11.506  0.00  0.00    +0.000 A 
ATOM      5  N   UNL     1      45.697   4.141  12.707  0.00  0.00    +0.000 NA
ATOM      6  C   UNL     1      46.326   5.121  13.395  0.00  0.00    +0.000 A 
ENDROOT
BRANCH   1   7
ATOM      7  C   UNL     1      47.268   7.435  13.696  0.00  0.00    +0.000 C 
BRANCH   7   9
ATOM      8  C   UNL     1      49.373   6.991  12.346  0.00  0.00    +0.000 C 
ATOM      9  N   UNL     1      48.726   7.370  13.596  0.00  0.00    +0.000 N 
ATOM     10  C   UNL     1      49.592   7.788  14.626  0.00  0.00    +0.000 C 
ATOM     11  O   UNL     1      50.809   7.819  14.453  0.00  0.00    +0.000 OA
BRANCH  10  12
ATOM     12  C   UNL     1      49.041   8.154  15.940  0.00  0.00    +0.000 A 
ATOM     13  C   UNL     1      48.696   9.442  16.318  0.00  0.00    +0.000 A 
ATOM     14  S   UNL     1      48.010   9.537  17.879  0.00  0.00    +0.000 S 
ATOM     15  C   UNL     1      48.011   7.845  18.038  0.00  0.00    +0.000 A 
ATOM     16  N   UNL     1      47.447   7.245  19.120  0.00  0.00    +0.000 NA
ATOM     17  C   UNL     1      47.451   5.954  19.068  0.00  0.00    +0.000 A 
ATOM     18  N   UNL     1      48.002   5.213  18.054  0.00  0.00    +0.000 N 
ATOM     19  C   UNL     1      48.708   5.776  17.010  0.00  0.00    +0.000 A 
ATOM     20  O   UNL     1      49.388   5.086  16.263  0.00  0.00    +0.000 OA
ATOM     21  C   UNL     1      48.617   7.224  16.962  0.00  0.00    +0.000 A 
ATOM     22  H   UNL     1      48.033   4.205  18.110  0.00  0.00    +0.000 HD
ENDBRANCH  10  12
ENDBRANCH   7   9
ENDBRANCH   1   7
BRANCH   4  23
ATOM     23  C   UNL     1      44.556   3.353  10.686  0.00  0.00    +0.000 C 
BRANCH  23  24
ATOM     24  N   UNL     1      45.467   2.830   9.695  0.00  0.00    +0.000 N 
ATOM     25  C   UNL     1      45.464   3.247   8.389  0.00  0.00    +0.000 C 
ATOM     26  O   UNL     1      44.639   4.048   7.954  0.00  0.00    +0.000 OA
ATOM     27  H   UNL     1      46.077   2.077   9.986  0.00  0.00    +0.000 HD
BRANCH  25  28
ATOM     28  C   UNL     1      46.513   2.714   7.562  0.00  0.00    +0.000 A 
ATOM     29  N   UNL     1      47.348   3.528   6.828  0.00  0.00    +0.000 N 
ATOM     30  C   UNL     1      48.264   2.745   6.195  0.00  0.00    +0.000 A 
ATOM     31  N   UNL     1      48.064   1.476   6.455  0.00  0.00    +0.000 NA
ATOM     32  C   UNL     1      46.980   1.439   7.301  0.00  0.00    +0.000 A 
ATOM     33 CL   UNL     1      46.395  -0.044   7.906  0.00  0.00    +0.000 Cl
ATOM     34  H   UNL     1      47.289   4.539   6.795  0.00  0.00    +0.000 HD
ENDBRANCH  25  28
ENDBRANCH  23  24
ENDBRANCH   4  23
TORSDOF 6
ENDMDL
MODEL 4
REMARK VINA RESULT:    -7.672      4.469      8.506
REMARK INTER + INTRA:         -11.040
REMARK INTER:                  -9.765
REMARK INTRA:                  -1.274
REMARK UNBOUND:                -0.677
REMARK  Name = 
REMARK  7 active torsions:
REMARK  status: ('A' for Active; 'I' for Inactive)
REMARK    1  A    between atoms: C_1  and  N_2
REMARK    2  A    between atoms: N_2  and  C_3
REMARK    3  A    between atoms: C_3  and  C_4
REMARK    4  A    between atoms: C_7  and  C_8
REMARK    5  A    between atoms: C_8  and  N_9
REMARK    6  A    between atoms: C_10  and  C_12
REMARK    7  A    between atoms: C_20  and  C_22
REMARK                            x       y       z     vdW  Elec       q    Type
REMARK                         _______ _______ _______ _____ _____    ______ ____
ROOT
ATOM      1  C   UNL     1      45.930   6.550  12.853  0.00  0.00    +0.000 A 
ATOM      2  C   UNL     1      44.795   6.792  12.073  0.00  0.00    +0.000 A 
ATOM      3  C   UNL     1      44.058   5.725  11.573  0.00  0.00    +0.000 A 
ATOM      4  C   UNL     1      44.486   4.431  11.853  0.00  0.00    +0.000 A 
ATOM      5  N   UNL     1      45.545   4.170  12.662  0.00  0.00    +0.000 NA
ATOM      6  C   UNL     1      46.238   5.228  13.142  0.00  0.00    +0.000 A 
ENDROOT
BRANCH   1   7
ATOM      7  C   UNL     1      46.813   7.672  13.313  0.00  0.00    +0.000 C 
BRANCH   7   9
ATOM      8  C   UNL     1      48.665   7.794  11.580  0.00  0.00    +0.000 C 
ATOM      9  N   UNL     1      48.234   7.638  12.963  0.00  0.00    +0.000 N 
ATOM     10  C   UNL     1      49.266   7.592  13.921  0.00  0.00    +0.000 C 
ATOM     11  O   UNL     1      50.445   7.677  13.581  0.00  0.00    +0.000 OA
BRANCH  10  12
ATOM     12  C   UNL     1      48.937   7.397  15.341  0.00  0.00    +0.000 A 
ATOM     13  C   UNL     1      48.860   6.164  15.970  0.00  0.00    +0.000 A 
ATOM     14  S   UNL     1      48.534   6.266  17.642  0.00  0.00    +0.000 S 
ATOM     15  C   UNL     1      48.638   7.963  17.610  0.00  0.00    +0.000 A 
ATOM     16  N   UNL     1      48.561   8.689  18.757  0.00  0.00    +0.000 NA
ATOM     17  C   UNL     1      48.734   9.959  18.589  0.00  0.00    +0.000 A 
ATOM     18  N   UNL     1      48.937  10.568  17.377  0.00  0.00    +0.000 N 
ATOM     19  C   UNL     1      48.881   9.889  16.177  0.00  0.00    +0.000 A 
ATOM     20  O   UNL     1      48.822  10.491  15.113  0.00  0.00    +0.000 OA
ATOM     21  C   UNL     1      48.816   8.446  16.327  0.00  0.00    +0.000 A 
ATOM     22  H   UNL     1      48.996  11.573  17.309  0.00  0.00    +0.000 HD
ENDBRANCH  10  12
ENDBRANCH   7   9
ENDBRANCH   1   7
BRANCH   4  23
ATOM     23  C   UNL     1      43.788   3.250  11.224  0.00  0.00    +0.000 C 
BRANCH  23  24
ATOM     24  N   UNL     1      44.629   2.519  10.306  0.00  0.00    +0.000 N 
ATOM     25  C   UNL     1      44.862   2.932   9.020  0.00  0.00    +0.000 C 
ATOM     26  O   UNL     1      44.313   3.920   8.535  0.00  0.00    +0.000 OA
ATOM     27  H   UNL     1      44.997   1.633  10.629  0.00  0.00    +0.000 HD
BRANCH  25  28
ATOM     28  C   UNL     1      45.818   2.155   8.278  0.00  0.00    +0.000 A 
ATOM     29  N   UNL     1      45.887   0.783   8.391  0.00  0.00    +0.000 N 
ATOM     30  C   UNL     1      46.844   0.330   7.535  0.00  0.00    +0.000 A 
ATOM     31  N   UNL     1      47.413   1.320   6.892  0.00  0.00    +0.000 NA
ATOM     32  C   UNL     1      46.789   2.460   7.341  0.00  0.00    +0.000 A 
ATOM     33 CL   UNL     1      47.221   3.992   6.730  0.00  0.00    +0.000 Cl
ATOM     34  H   UNL     1      45.301   0.223   8.998  0.00  0.00    +0.000 HD
ENDBRANCH  25  28
ENDBRANCH  23  24
ENDBRANCH   4  23
TORSDOF 6
ENDMDL
MODEL 5
REMARK VINA RESULT:    -7.509      3.738      8.323
REMARK INTER + INTRA:         -10.820
REMARK INTER:                  -9.097
REMARK INTRA:                  -1.724
REMARK UNBOUND:                -0.677
REMARK  Name = 
REMARK  7 active torsions:
REMARK  status: ('A' for Active; 'I' for Inactive)
REMARK    1  A    between atoms: C_1  and  N_2
REMARK    2  A    between atoms: N_2  and  C_3
REMARK    3  A    between atoms: C_3  and  C_4
REMARK    4  A    between atoms: C_7  and  C_8
REMARK    5  A    between atoms: C_8  and  N_9
REMARK    6  A    between atoms: C_10  and  C_12
REMARK    7  A    between atoms: C_20  and  C_22
REMARK                            x       y       z     vdW  Elec       q    Type
REMARK                         _______ _______ _______ _____ _____    ______ ____
ROOT
ATOM      1  C   UNL     1      50.044   7.966  16.770  0.00  0.00    +0.000 A 
ATOM      2  C   UNL     1      50.086   7.093  15.679  0.00  0.00    +0.000 A 
ATOM      3  C   UNL     1      49.244   7.302  14.592  0.00  0.00    +0.000 A 
ATOM      4  C   UNL     1      48.362   8.378  14.630  0.00  0.00    +0.000 A 
ATOM      5  N   UNL     1      48.351   9.278  15.648  0.00  0.00    +0.000 NA
ATOM      6  C   UNL     1      49.187   9.053  16.687  0.00  0.00    +0.000 A 
ENDROOT
BRANCH   1   7
ATOM      7  C   UNL     1      50.854   7.706  18.006  0.00  0.00    +0.000 C 
BRANCH   7   9
ATOM      8  C   UNL     1      49.603   8.385  20.109  0.00  0.00    +0.000 C 
ATOM      9  N   UNL     1      50.156   7.352  19.242  0.00  0.00    +0.000 N 
ATOM     10  C   UNL     1      49.856   6.025  19.608  0.00  0.00    +0.000 C 
ATOM     11  O   UNL     1      49.171   5.785  20.601  0.00  0.00    +0.000 OA
BRANCH  10  12
ATOM     12  C   UNL     1      50.400   4.908  18.820  0.00  0.00    +0.000 A 
ATOM     13  C   UNL     1      51.674   4.384  18.973  0.00  0.00    +0.000 A 
ATOM     14  S   UNL     1      51.987   3.041  17.967  0.00  0.00    +0.000 S 
ATOM     15  C   UNL     1      50.382   3.021  17.407  0.00  0.00    +0.000 A 
ATOM     16  N   UNL     1      49.942   2.034  16.583  0.00  0.00    +0.000 NA
ATOM     17  C   UNL     1      48.682   2.104  16.303  0.00  0.00    +0.000 A 
ATOM     18  N   UNL     1      47.837   3.091  16.740  0.00  0.00    +0.000 N 
ATOM     19  C   UNL     1      48.270   4.187  17.458  0.00  0.00    +0.000 A 
ATOM     20  O   UNL     1      47.547   5.161  17.621  0.00  0.00    +0.000 OA
ATOM     21  C   UNL     1      49.649   4.083  17.902  0.00  0.00    +0.000 A 
ATOM     22  H   UNL     1      46.878   3.124  16.426  0.00  0.00    +0.000 HD
ENDBRANCH  10  12
ENDBRANCH   7   9
ENDBRANCH   1   7
BRANCH   4  23
ATOM     23  C   UNL     1      47.347   8.564  13.530  0.00  0.00    +0.000 C 
BRANCH  23  24
ATOM     24  N   UNL     1      46.286   7.585  13.567  0.00  0.00    +0.000 N 
ATOM     25  C   UNL     1      46.125   6.626  12.600  0.00  0.00    +0.000 C 
ATOM     26  O   UNL     1      46.832   6.577  11.596  0.00  0.00    +0.000 OA
ATOM     27  H   UNL     1      45.609   7.672  14.313  0.00  0.00    +0.000 HD
BRANCH  25  28
ATOM     28  C   UNL     1      45.094   5.656  12.851  0.00  0.00    +0.000 A 
ATOM     29  N   UNL     1      43.758   5.994  12.850  0.00  0.00    +0.000 N 
ATOM     30  C   UNL     1      43.029   4.863  13.063  0.00  0.00    +0.000 A 
ATOM     31  N   UNL     1      43.806   3.820  13.221  0.00  0.00    +0.000 NA
ATOM     32  C   UNL     1      45.091   4.293  13.093  0.00  0.00    +0.000 A 
ATOM     33 CL   UNL     1      46.426   3.240  13.211  0.00  0.00    +0.000 Cl
ATOM     34  H   UNL     1      43.398   6.927  12.695  0.00  0.00    +0.000 HD
ENDBRANCH  25  28
ENDBRANCH  23  24
ENDBRANCH   4  23
TORSDOF 6
ENDMDL
MODEL 6
REMARK VINA RESULT:    -7.420      3.223      8.556
REMARK INTER + INTRA:         -10.699
REMARK INTER:                  -9.550
REMARK INTRA:                  -1.149
REMARK UNBOUND:                -0.677
REMARK  Name = 
REMARK  7 active torsions:
REMARK  status: ('A' for Active; 'I' for Inactive)
REMARK    1  A    between atoms: C_1  and  N_2
REMARK    2  A    between atoms: N_2  and  C_3
REMARK    3  A    between atoms: C_3  and  C_4
REMARK    4  A    between atoms: C_7  and  C_8
REMARK    5  A    between atoms: C_8  and  N_9
REMARK    6  A    between atoms: C_10  and  C_12
REMARK    7  A    between atoms: C_20  and  C_22
REMARK                            x       y       z     vdW  Elec       q    Type
REMARK                         _______ _______ _______ _____ _____    ______ ____
ROOT
ATOM      1  C   UNL     1      48.784   7.286  15.262  0.00  0.00    +0.000 A 
ATOM      2  C   UNL     1      48.317   8.572  14.971  0.00  0.00    +0.000 A 
ATOM      3  C   UNL     1      47.390   8.757  13.951  0.00  0.00    +0.000 A 
ATOM      4  C   UNL     1      46.963   7.647  13.230  0.00  0.00    +0.000 A 
ATOM      5  N   UNL     1      47.352   6.381  13.537  0.00  0.00    +0.000 NA
ATOM      6  C   UNL     1      48.246   6.231  14.540  0.00  0.00    +0.000 A 
ENDROOT
BRANCH   1   7
ATOM      7  C   UNL     1      49.866   7.062  16.277  0.00  0.00    +0.000 C 
BRANCH   7   9
ATOM      8  C   UNL     1      49.804   8.655  18.253  0.00  0.00    +0.000 C 
ATOM      9  N   UNL     1      49.577   7.332  17.685  0.00  0.00    +0.000 N 
ATOM     10  C   UNL     1      48.950   6.403  18.538  0.00  0.00    +0.000 C 
ATOM     11  O   UNL     1      48.628   6.716  19.683  0.00  0.00    +0.000 OA
BRANCH  10  12
ATOM     12  C   UNL     1      48.712   5.028  18.073  0.00  0.00    +0.000 A 
ATOM     13  C   UNL     1      47.525   4.579  17.514  0.00  0.00    +0.000 A 
ATOM     14  S   UNL     1      47.582   2.952  17.001  0.00  0.00    +0.000 S 
ATOM     15  C   UNL     1      49.238   2.840  17.368  0.00  0.00    +0.000 A 
ATOM     16  N   UNL     1      49.947   1.721  17.063  0.00  0.00    +0.000 NA
ATOM     17  C   UNL     1      51.209   1.809  17.327  0.00  0.00    +0.000 A 
ATOM     18  N   UNL     1      51.815   2.896  17.903  0.00  0.00    +0.000 N 
ATOM     19  C   UNL     1      51.112   3.993  18.357  0.00  0.00    +0.000 A 
ATOM     20  O   UNL     1      51.643   4.828  19.078  0.00  0.00    +0.000 OA
ATOM     21  C   UNL     1      49.714   3.992  17.966  0.00  0.00    +0.000 A 
ATOM     22  H   UNL     1      52.794   2.871  18.147  0.00  0.00    +0.000 HD
ENDBRANCH  10  12
ENDBRANCH   7   9
ENDBRANCH   1   7
BRANCH   4  23
ATOM     23  C   UNL     1      46.058   7.823  12.035  0.00  0.00    +0.000 C 
BRANCH  23  24
ATOM     24  N   UNL     1      45.868   6.603  11.285  0.00  0.00    +0.000 N 
ATOM     25  C   UNL     1      44.669   5.939  11.238  0.00  0.00    +0.000 C 
ATOM     26  O   UNL     1      43.690   6.299  11.888  0.00  0.00    +0.000 OA
ATOM     27  H   UNL     1      46.686   6.208  10.839  0.00  0.00    +0.000 HD
BRANCH  25  28
ATOM     28  C   UNL     1      44.617   4.810  10.350  0.00  0.00    +0.000 A 
ATOM     29  N   UNL     1      45.173   4.846   9.089  0.00  0.00    +0.000 N 
ATOM     30  C   UNL     1      45.014   3.623   8.514  0.00  0.00    +0.000 A 
ATOM     31  N   UNL     1      44.372   2.803   9.311  0.00  0.00    +0.000 NA
ATOM     32  C   UNL     1      44.118   3.523  10.454  0.00  0.00    +0.000 A 
ATOM     33 CL   UNL     1      43.308   2.810  11.774  0.00  0.00    +0.000 Cl
ATOM     34  H   UNL     1      45.637   5.650   8.685  0.00  0.00    +0.000 HD
ENDBRANCH  25  28
ENDBRANCH  23  24
ENDBRANCH   4  23
TORSDOF 6
ENDMDL
MODEL 7
REMARK VINA RESULT:    -7.383      3.695      8.430
REMARK INTER + INTRA:         -10.649
REMARK INTER:                  -9.180
REMARK INTRA:                  -1.469
REMARK UNBOUND:                -0.677
REMARK  Name = 
REMARK  7 active torsions:
REMARK  status: ('A' for Active; 'I' for Inactive)
REMARK    1  A    between atoms: C_1  and  N_2
REMARK    2  A    between atoms: N_2  and  C_3
REMARK    3  A    between atoms: C_3  and  C_4
REMARK    4  A    between atoms: C_7  and  C_8
REMARK    5  A    between atoms: C_8  and  N_9
REMARK    6  A    between atoms: C_10  and  C_12
REMARK    7  A    between atoms: C_20  and  C_22
REMARK                            x       y       z     vdW  Elec       q    Type
REMARK                         _______ _______ _______ _____ _____    ______ ____
ROOT
ATOM      1  C   UNL     1      48.832   7.982  15.832  0.00  0.00    +0.000 A 
ATOM      2  C   UNL     1      47.984   8.919  15.231  0.00  0.00    +0.000 A 
ATOM      3  C   UNL     1      47.592   8.749  13.908  0.00  0.00    +0.000 A 
ATOM      4  C   UNL     1      48.074   7.649  13.207  0.00  0.00    +0.000 A 
ATOM      5  N   UNL     1      48.844   6.691  13.787  0.00  0.00    +0.000 NA
ATOM      6  C   UNL     1      49.202   6.878  15.078  0.00  0.00    +0.000 A 
ENDROOT
BRANCH   1   7
ATOM      7  C   UNL     1      49.366   8.192  17.218  0.00  0.00    +0.000 C 
BRANCH   7   9
ATOM      8  C   UNL     1      47.497   8.739  18.847  0.00  0.00    +0.000 C 
ATOM      9  N   UNL     1      48.526   7.829  18.359  0.00  0.00    +0.000 N 
ATOM     10  C   UNL     1      48.551   6.559  18.966  0.00  0.00    +0.000 C 
ATOM     11  O   UNL     1      47.748   6.266  19.850  0.00  0.00    +0.000 OA
BRANCH  10  12
ATOM     12  C   UNL     1      49.577   5.581  18.572  0.00  0.00    +0.000 A 
ATOM     13  C   UNL     1      50.875   5.562  19.057  0.00  0.00    +0.000 A 
ATOM     14  S   UNL     1      51.808   4.258  18.469  0.00  0.00    +0.000 S 
ATOM     15  C   UNL     1      50.464   3.591  17.669  0.00  0.00    +0.000 A 
ATOM     16  N   UNL     1      50.550   2.387  17.044  0.00  0.00    +0.000 NA
ATOM     17  C   UNL     1      49.432   1.970  16.548  0.00  0.00    +0.000 A 
ATOM     18  N   UNL     1      48.251   2.665  16.586  0.00  0.00    +0.000 N 
ATOM     19  C   UNL     1      48.151   3.948  17.084  0.00  0.00    +0.000 A 
ATOM     20  O   UNL     1      47.151   4.627  16.885  0.00  0.00    +0.000 OA
ATOM     21  C   UNL     1      49.350   4.403  17.765  0.00  0.00    +0.000 A 
ATOM     22  H   UNL     1      47.430   2.312  16.118  0.00  0.00    +0.000 HD
ENDBRANCH  10  12
ENDBRANCH   7   9
ENDBRANCH   1   7
BRANCH   4  23
ATOM     23  C   UNL     1      47.775   7.498  11.735  0.00  0.00    +0.000 C 
BRANCH  23  24
ATOM     24  N   UNL     1      46.876   6.405  11.450  0.00  0.00    +0.000 N 
ATOM     25  C   UNL     1      45.523   6.573  11.305  0.00  0.00    +0.000 C 
ATOM     26  O   UNL     1      44.971   7.657  11.478  0.00  0.00    +0.000 OA
ATOM     27  H   UNL     1      47.278   5.477  11.425  0.00  0.00    +0.000 HD
BRANCH  25  28
ATOM     28  C   UNL     1      44.789   5.403  10.903  0.00  0.00    +0.000 A 
ATOM     29  N   UNL     1      45.044   4.754   9.715  0.00  0.00    +0.000 N 
ATOM     30  C   UNL     1      44.234   3.663   9.639  0.00  0.00    +0.000 A 
ATOM     31  N   UNL     1      43.457   3.574  10.691  0.00  0.00    +0.000 NA
ATOM     32  C   UNL     1      43.788   4.647  11.486  0.00  0.00    +0.000 A 
ATOM     33 CL   UNL     1      43.015   4.894  12.985  0.00  0.00    +0.000 Cl
ATOM     34  H   UNL     1      45.737   5.044   9.035  0.00  0.00    +0.000 HD
ENDBRANCH  25  28
ENDBRANCH  23  24
ENDBRANCH   4  23
TORSDOF 6
ENDMDL
MODEL 8
REMARK VINA RESULT:    -6.717      4.201      8.601
REMARK INTER + INTRA:          -9.750
REMARK INTER:                  -8.661
REMARK INTRA:                  -1.089
REMARK UNBOUND:                -0.677
REMARK  Name = 
REMARK  7 active torsions:
REMARK  status: ('A' for Active; 'I' for Inactive)
REMARK    1  A    between atoms: C_1  and  N_2
REMARK    2  A    between atoms: N_2  and  C_3
REMARK    3  A    between atoms: C_3  and  C_4
REMARK    4  A    between atoms: C_7  and  C_8
REMARK    5  A    between atoms: C_8  and  N_9
REMARK    6  A    between atoms: C_10  and  C_12
REMARK    7  A    between atoms: C_20  and  C_22
REMARK                            x       y       z     vdW  Elec       q    Type
REMARK                         _______ _______ _______ _____ _____    ______ ____
ROOT
ATOM      1  C   UNL     1      47.514   8.617  13.452  0.00  0.00    +0.000 A 
ATOM      2  C   UNL     1      46.550   9.309  12.711  0.00  0.00    +0.000 A 
ATOM      3  C   UNL     1      45.491   8.616  12.136  0.00  0.00    +0.000 A 
ATOM      4  C   UNL     1      45.429   7.236  12.302  0.00  0.00    +0.000 A 
ATOM      5  N   UNL     1      46.315   6.552  13.072  0.00  0.00    +0.000 NA
ATOM      6  C   UNL     1      47.329   7.253  13.626  0.00  0.00    +0.000 A 
ENDROOT
BRANCH   1   7
ATOM      7  C   UNL     1      48.730   9.313  13.989  0.00  0.00    +0.000 C 
BRANCH   7   9
ATOM      8  C   UNL     1      50.712   8.275  12.788  0.00  0.00    +0.000 C 
ATOM      9  N   UNL     1      49.999   8.586  14.021  0.00  0.00    +0.000 N 
ATOM     10  C   UNL     1      50.676   8.262  15.213  0.00  0.00    +0.000 C 
ATOM     11  O   UNL     1      51.794   7.750  15.184  0.00  0.00    +0.000 OA
BRANCH  10  12
ATOM     12  C   UNL     1      50.026   8.500  16.511  0.00  0.00    +0.000 A 
ATOM     13  C   UNL     1      50.031   9.712  17.184  0.00  0.00    +0.000 A 
ATOM     14  S   UNL     1      49.123   9.696  18.631  0.00  0.00    +0.000 S 
ATOM     15  C   UNL     1      48.570   8.118  18.326  0.00  0.00    +0.000 A 
ATOM     16  N   UNL     1      47.652   7.530  19.139  0.00  0.00    +0.000 NA
ATOM     17  C   UNL     1      47.266   6.363  18.740  0.00  0.00    +0.000 A 
ATOM     18  N   UNL     1      47.743   5.718  17.629  0.00  0.00    +0.000 N 
ATOM     19  C   UNL     1      48.774   6.214  16.858  0.00  0.00    +0.000 A 
ATOM     20  O   UNL     1      49.337   5.511  16.028  0.00  0.00    +0.000 OA
ATOM     21  C   UNL     1      49.148   7.577  17.193  0.00  0.00    +0.000 A 
ATOM     22  H   UNL     1      47.450   4.776  17.414  0.00  0.00    +0.000 HD
ENDBRANCH  10  12
ENDBRANCH   7   9
ENDBRANCH   1   7
BRANCH   4  23
ATOM     23  C   UNL     1      44.368   6.435  11.588  0.00  0.00    +0.000 C 
BRANCH  23  24
ATOM     24  N   UNL     1      44.909   5.347  10.809  0.00  0.00    +0.000 N 
ATOM     25  C   UNL     1      44.186   4.225  10.496  0.00  0.00    +0.000 C 
ATOM     26  O   UNL     1      43.047   4.036  10.916  0.00  0.00    +0.000 OA
ATOM     27  H   UNL     1      45.886   5.410  10.552  0.00  0.00    +0.000 HD
BRANCH  25  28
ATOM     28  C   UNL     1      44.834   3.292   9.613  0.00  0.00    +0.000 A 
ATOM     29  N   UNL     1      44.585   1.938   9.672  0.00  0.00    +0.000 N 
ATOM     30  C   UNL     1      45.298   1.328   8.686  0.00  0.00    +0.000 A 
ATOM     31  N   UNL     1      46.007   2.195   8.006  0.00  0.00    +0.000 NA
ATOM     32  C   UNL     1      45.732   3.419   8.568  0.00  0.00    +0.000 A 
ATOM     33 CL   UNL     1      46.444   4.842   7.955  0.00  0.00    +0.000 Cl
ATOM     34  H   UNL     1      43.958   1.494  10.331  0.00  0.00    +0.000 HD
ENDBRANCH  25  28
ENDBRANCH  23  24
ENDBRANCH   4  23
TORSDOF 6
ENDMDL
MODEL 9
REMARK VINA RESULT:    -6.713      3.624      8.566
REMARK INTER + INTRA:          -9.745
REMARK INTER:                  -8.714
REMARK INTRA:                  -1.031
REMARK UNBOUND:                -0.677
REMARK  Name = 
REMARK  7 active torsions:
REMARK  status: ('A' for Active; 'I' for Inactive)
REMARK    1  A    between atoms: C_1  and  N_2
REMARK    2  A    between atoms: N_2  and  C_3
REMARK    3  A    between atoms: C_3  and  C_4
REMARK    4  A    between atoms: C_7  and  C_8
REMARK    5  A    between atoms: C_8  and  N_9
REMARK    6  A    between atoms: C_10  and  C_12
REMARK    7  A    between atoms: C_20  and  C_22
REMARK                            x       y       z     vdW  Elec       q    Type
REMARK                         _______ _______ _______ _____ _____    ______ ____
ROOT
ATOM      1  C   UNL     1      50.241   7.384  15.061  0.00  0.00    +0.000 A 
ATOM      2  C   UNL     1      48.977   6.802  15.203  0.00  0.00    +0.000 A 
ATOM      3  C   UNL     1      48.117   6.741  14.113  0.00  0.00    +0.000 A 
ATOM      4  C   UNL     1      48.536   7.283  12.902  0.00  0.00    +0.000 A 
ATOM      5  N   UNL     1      49.783   7.793  12.722  0.00  0.00    +0.000 NA
ATOM      6  C   UNL     1      50.601   7.831  13.798  0.00  0.00    +0.000 A 
ENDROOT
BRANCH   1   7
ATOM      7  C   UNL     1      51.150   7.570  16.240  0.00  0.00    +0.000 C 
BRANCH   7   9
ATOM      8  C   UNL     1      53.388   6.375  16.135  0.00  0.00    +0.000 C 
ATOM      9  N   UNL     1      52.022   6.465  16.637  0.00  0.00    +0.000 N 
ATOM     10  C   UNL     1      51.668   5.510  17.610  0.00  0.00    +0.000 C 
ATOM     11  O   UNL     1      52.478   4.667  17.990  0.00  0.00    +0.000 OA
BRANCH  10  12
ATOM     12  C   UNL     1      50.300   5.492  18.152  0.00  0.00    +0.000 A 
ATOM     13  C   UNL     1      49.743   6.503  18.918  0.00  0.00    +0.000 A 
ATOM     14  S   UNL     1      48.110   6.227  19.334  0.00  0.00    +0.000 S 
ATOM     15  C   UNL     1      48.050   4.823  18.377  0.00  0.00    +0.000 A 
ATOM     16  N   UNL     1      46.885   4.145  18.203  0.00  0.00    +0.000 NA
ATOM     17  C   UNL     1      46.973   3.146  17.388  0.00  0.00    +0.000 A 
ATOM     18  N   UNL     1      48.127   2.742  16.767  0.00  0.00    +0.000 N 
ATOM     19  C   UNL     1      49.357   3.312  17.024  0.00  0.00    +0.000 A 
ATOM     20  O   UNL     1      50.392   2.778  16.646  0.00  0.00    +0.000 OA
ATOM     21  C   UNL     1      49.283   4.516  17.832  0.00  0.00    +0.000 A 
ATOM     22  H   UNL     1      48.141   1.910  16.197  0.00  0.00    +0.000 HD
ENDBRANCH  10  12
ENDBRANCH   7   9
ENDBRANCH   1   7
BRANCH   4  23
ATOM     23  C   UNL     1      47.585   7.351  11.733  0.00  0.00    +0.000 C 
BRANCH  23  24
ATOM     24  N   UNL     1      46.722   6.196  11.638  0.00  0.00    +0.000 N 
ATOM     25  C   UNL     1      45.373   6.292  11.415  0.00  0.00    +0.000 C 
ATOM     26  O   UNL     1      44.791   7.373  11.350  0.00  0.00    +0.000 OA
ATOM     27  H   UNL     1      47.145   5.293  11.812  0.00  0.00    +0.000 HD
BRANCH  25  28
ATOM     28  C   UNL     1      44.682   5.045  11.228  0.00  0.00    +0.000 A 
ATOM     29  N   UNL     1      43.923   4.474  12.226  0.00  0.00    +0.000 N 
ATOM     30  C   UNL     1      43.356   3.337  11.737  0.00  0.00    +0.000 A 
ATOM     31  N   UNL     1      43.714   3.124  10.495  0.00  0.00    +0.000 NA
ATOM     32  C   UNL     1      44.538   4.174  10.163  0.00  0.00    +0.000 A 
ATOM     33 CL   UNL     1      45.213   4.294   8.602  0.00  0.00    +0.000 Cl
ATOM     34  H   UNL     1      43.803   4.862  13.154  0.00  0.00    +0.000 HD
ENDBRANCH  25  28
ENDBRANCH  23  24
ENDBRANCH   4  23
TORSDOF 6
ENDMDL
