MODEL 1
REMARK VINA RESULT:    -7.177      0.000      0.000
REMARK INTER + INTRA:          -9.625
REMARK INTER:                  -9.065
REMARK INTRA:                  -0.560
REMARK UNBOUND:                -0.560
REMARK  Name = 
REMARK  5 active torsions:
REMARK  status: ('A' for Active; 'I' for Inactive)
REMARK    1  A    between atoms: N_1  and  C_2
REMARK    2  A    between atoms: C_2  and  C_3
REMARK    3  A    between atoms: C_3  and  C_4
REMARK    4  A    between atoms: C_8  and  C_9
REMARK    5  A    between atoms: C_9  and  N_10
REMARK                            x       y       z     vdW  Elec       q    Type
REMARK                         _______ _______ _______ _____ _____    ______ ____
ROOT
ATOM      1  C   UNL     1      46.490   6.476  12.894  0.00  0.00    +0.000 A 
ATOM      2  C   UNL     1      46.629   7.849  12.736  0.00  0.00    +0.000 A 
ATOM      3  C   UNL     1      45.676   8.536  12.011  0.00  0.00    +0.000 A 
ATOM      4  C   UNL     1      44.606   7.835  11.443  0.00  0.00    +0.000 A 
ATOM      5  C   UNL     1      44.567   6.444  11.561  0.00  0.00    +0.000 A 
ATOM      6  N   UNL     1      45.490   5.771  12.295  0.00  0.00    +0.000 NA
ENDROOT
BRANCH   1   7
ATOM      7  C   UNL     1      47.462   5.720  13.759  0.00  0.00    +0.000 C 
BRANCH   7   8
ATOM      8  C   UNL     1      46.778   4.568  14.492  0.00  0.00    +0.000 C 
BRANCH   8   9
ATOM      9  N   UNL     1      47.165   3.278  13.920  0.00  0.00    +0.000 NA
ATOM     10  H   UNL     1      46.608   3.102  13.083  0.00  0.00    +0.000 HD
ATOM     11  H   UNL     1      46.930   2.532  14.574  0.00  0.00    +0.000 HD
ENDBRANCH   8   9
ENDBRANCH   7   8
ENDBRANCH   1   7
BRANCH   5  12
ATOM     12  C   UNL     1      43.498   5.604  10.898  0.00  0.00    +0.000 C 
BRANCH  12  13
ATOM     13  N   UNL     1      43.955   4.259  10.549  0.00  0.00    +0.000 N 
ATOM     14  N   UNL     1      43.426   3.196  11.208  0.00  0.00    +0.000 NA
ATOM     15  C   UNL     1      43.938   2.142  10.568  0.00  0.00    +0.000 A 
ATOM     16  C   UNL     1      44.816   2.505   9.525  0.00  0.00    +0.000 A 
ATOM     17  C   UNL     1      45.553   1.824   8.544  0.00  0.00    +0.000 A 
ATOM     18  C   UNL     1      46.289   2.576   7.629  0.00  0.00    +0.000 A 
ATOM     19  F   UNL     1      46.958   1.944   6.656  0.00  0.00    +0.000 F 
ATOM     20  C   UNL     1      46.333   3.964   7.688  0.00  0.00    +0.000 A 
ATOM     21  C   UNL     1      45.628   4.659   8.674  0.00  0.00    +0.000 A 
ATOM     22  C   UNL     1      44.851   3.902   9.566  0.00  0.00    +0.000 A 
ENDBRANCH  12  13
ENDBRANCH   5  12
TORSDOF 5
ENDMDL
MODEL 2
REMARK VINA RESULT:    -7.155      2.904      6.027
REMARK INTER + INTRA:          -9.597
REMARK INTER:                  -9.199
REMARK INTRA:                  -0.399
REMARK UNBOUND:                -0.560
REMARK  Name = 
REMARK  5 active torsions:
REMARK  status: ('A' for Active; 'I' for Inactive)
REMARK    1  A    between atoms: N_1  and  C_2
REMARK    2  A    between atoms: C_2  and  C_3
REMARK    3  A    between atoms: C_3  and  C_4
REMARK    4  A    between atoms: C_8  and  C_9
REMARK    5  A    between atoms: C_9  and  N_10
REMARK                            x       y       z     vdW  Elec       q    Type
REMARK                         _______ _______ _______ _____ _____    ______ ____
ROOT
ATOM      1  C   UNL     1      46.016   3.373   7.789  0.00  0.00    +0.000 A 
ATOM      2  C   UNL     1      45.657   2.064   8.083  0.00  0.00    +0.000 A 
ATOM      3  C   UNL     1      44.837   1.825   9.169  0.00  0.00    +0.000 A 
ATOM      4  C   UNL     1      44.403   2.900   9.952  0.00  0.00    +0.000 A 
ATOM      5  C   UNL     1      44.869   4.185   9.661  0.00  0.00    +0.000 A 
ATOM      6  N   UNL     1      45.654   4.422   8.579  0.00  0.00    +0.000 NA
ENDROOT
BRANCH   1   7
ATOM      7  C   UNL     1      46.827   3.668   6.557  0.00  0.00    +0.000 C 
BRANCH   7   8
ATOM      8  C   UNL     1      47.059   2.407   5.726  0.00  0.00    +0.000 C 
BRANCH   8   9
ATOM      9  N   UNL     1      48.472   2.023   5.738  0.00  0.00    +0.000 NA
ATOM     10  H   UNL     1      49.033   2.822   6.036  0.00  0.00    +0.000 HD
ATOM     11  H   UNL     1      48.774   1.808   4.789  0.00  0.00    +0.000 HD
ENDBRANCH   8   9
ENDBRANCH   7   8
ENDBRANCH   1   7
BRANCH   5  12
ATOM     12  C   UNL     1      44.524   5.385  10.514  0.00  0.00    +0.000 C 
BRANCH  12  13
ATOM     13  N   UNL     1      45.222   5.397  11.801  0.00  0.00    +0.000 N 
ATOM     14  N   UNL     1      44.743   4.627  12.812  0.00  0.00    +0.000 NA
ATOM     15  C   UNL     1      45.665   4.756  13.769  0.00  0.00    +0.000 A 
ATOM     16  C   UNL     1      46.718   5.622  13.405  0.00  0.00    +0.000 A 
ATOM     17  C   UNL     1      47.919   6.050  13.991  0.00  0.00    +0.000 A 
ATOM     18  C   UNL     1      48.742   6.906  13.260  0.00  0.00    +0.000 A 
ATOM     19  F   UNL     1      49.916   7.285  13.783  0.00  0.00    +0.000 F 
ATOM     20  C   UNL     1      48.386   7.364  11.996  0.00  0.00    +0.000 A 
ATOM     21  C   UNL     1      47.182   6.970  11.408  0.00  0.00    +0.000 A 
ATOM     22  C   UNL     1      46.376   6.072  12.127  0.00  0.00    +0.000 A 
ENDBRANCH  12  13
ENDBRANCH   5  12
TORSDOF 5
ENDMDL
MODEL 3
REMARK VINA RESULT:    -6.928      2.884      6.147
REMARK INTER + INTRA:          -9.310
REMARK INTER:                  -8.882
REMARK INTRA:                  -0.428
REMARK UNBOUND:                -0.560
REMARK  Name = 
REMARK  5 active torsions:
REMARK  status: ('A' for Active; 'I' for Inactive)
REMARK    1  A    between atoms: N_1  and  C_2
REMARK    2  A    between atoms: C_2  and  C_3
REMARK    3  A    between atoms: C_3  and  C_4
REMARK    4  A    between atoms: C_8  and  C_9
REMARK    5  A    between atoms: C_9  and  N_10
REMARK                            x       y       z     vdW  Elec       q    Type
REMARK                         _______ _______ _______ _____ _____    ______ ____
ROOT
ATOM      1  C   UNL     1      45.954   3.313   7.775  0.00  0.00    +0.000 A 
ATOM      2  C   UNL     1      45.790   1.963   8.058  0.00  0.00    +0.000 A 
ATOM      3  C   UNL     1      44.943   1.596   9.085  0.00  0.00    +0.000 A 
ATOM      4  C   UNL     1      44.286   2.587   9.822  0.00  0.00    +0.000 A 
ATOM      5  C   UNL     1      44.558   3.930   9.549  0.00  0.00    +0.000 A 
ATOM      6  N   UNL     1      45.371   4.291   8.524  0.00  0.00    +0.000 NA
ENDROOT
BRANCH   1   7
ATOM      7  C   UNL     1      46.795   3.735   6.601  0.00  0.00    +0.000 C 
BRANCH   7   8
ATOM      8  C   UNL     1      47.101   2.555   5.680  0.00  0.00    +0.000 C 
BRANCH   8   9
ATOM      9  N   UNL     1      48.525   2.218   5.715  0.00  0.00    +0.000 NA
ATOM     10  H   UNL     1      48.884   2.382   6.656  0.00  0.00    +0.000 HD
ATOM     11  H   UNL     1      49.039   2.853   5.105  0.00  0.00    +0.000 HD
ENDBRANCH   8   9
ENDBRANCH   7   8
ENDBRANCH   1   7
BRANCH   5  12
ATOM     12  C   UNL     1      43.963   5.059  10.362  0.00  0.00    +0.000 C 
BRANCH  12  13
ATOM     13  N   UNL     1      44.946   5.746  11.200  0.00  0.00    +0.000 N 
ATOM     14  N   UNL     1      45.131   7.081  11.030  0.00  0.00    +0.000 NA
ATOM     15  C   UNL     1      45.966   7.411  12.019  0.00  0.00    +0.000 A 
ATOM     16  C   UNL     1      46.348   6.305  12.808  0.00  0.00    +0.000 A 
ATOM     17  C   UNL     1      47.131   6.108  13.956  0.00  0.00    +0.000 A 
ATOM     18  C   UNL     1      47.226   4.818  14.477  0.00  0.00    +0.000 A 
ATOM     19  F   UNL     1      47.929   4.621  15.601  0.00  0.00    +0.000 F 
ATOM     20  C   UNL     1      46.599   3.735  13.873  0.00  0.00    +0.000 A 
ATOM     21  C   UNL     1      45.838   3.907  12.714  0.00  0.00    +0.000 A 
ATOM     22  C   UNL     1      45.705   5.214  12.217  0.00  0.00    +0.000 A 
ENDBRANCH  12  13
ENDBRANCH   5  12
TORSDOF 5
ENDMDL
MODEL 4
REMARK VINA RESULT:    -6.878      1.733      2.301
REMARK INTER + INTRA:          -9.247
REMARK INTER:                  -8.733
REMARK INTRA:                  -0.514
REMARK UNBOUND:                -0.560
REMARK  Name = 
REMARK  5 active torsions:
REMARK  status: ('A' for Active; 'I' for Inactive)
REMARK    1  A    between atoms: N_1  and  C_2
REMARK    2  A    between atoms: C_2  and  C_3
REMARK    3  A    between atoms: C_3  and  C_4
REMARK    4  A    between atoms: C_8  and  C_9
REMARK    5  A    between atoms: C_9  and  N_10
REMARK                            x       y       z     vdW  Elec       q    Type
REMARK                         _______ _______ _______ _____ _____    ______ ____
ROOT
ATOM      1  C   UNL     1      45.430   5.318  12.485  0.00  0.00    +0.000 A 
ATOM      2  C   UNL     1      44.329   5.422  13.325  0.00  0.00    +0.000 A 
ATOM      3  C   UNL     1      43.080   5.105  12.829  0.00  0.00    +0.000 A 
ATOM      4  C   UNL     1      42.952   4.703  11.495  0.00  0.00    +0.000 A 
ATOM      5  C   UNL     1      44.082   4.703  10.673  0.00  0.00    +0.000 A 
ATOM      6  N   UNL     1      45.313   4.990  11.167  0.00  0.00    +0.000 NA
ENDROOT
BRANCH   1   7
ATOM      7  C   UNL     1      46.812   5.565  13.028  0.00  0.00    +0.000 C 
BRANCH   7   8
ATOM      8  C   UNL     1      47.066   4.755  14.298  0.00  0.00    +0.000 C 
BRANCH   8   9
ATOM      9  N   UNL     1      47.198   3.329  13.994  0.00  0.00    +0.000 NA
ATOM     10  H   UNL     1      47.538   2.841  14.823  0.00  0.00    +0.000 HD
ATOM     11  H   UNL     1      47.912   3.200  13.279  0.00  0.00    +0.000 HD
ENDBRANCH   8   9
ENDBRANCH   7   8
ENDBRANCH   1   7
BRANCH   5  12
ATOM     12  C   UNL     1      44.012   4.374   9.199  0.00  0.00    +0.000 C 
BRANCH  12  13
ATOM     13  N   UNL     1      44.810   3.204   8.830  0.00  0.00    +0.000 N 
ATOM     14  N   UNL     1      44.525   2.009   9.411  0.00  0.00    +0.000 NA
ATOM     15  C   UNL     1      45.319   1.150   8.767  0.00  0.00    +0.000 A 
ATOM     16  C   UNL     1      46.137   1.774   7.802  0.00  0.00    +0.000 A 
ATOM     17  C   UNL     1      47.075   1.349   6.848  0.00  0.00    +0.000 A 
ATOM     18  C   UNL     1      47.652   2.308   6.016  0.00  0.00    +0.000 A 
ATOM     19  F   UNL     1      48.512   1.913   5.068  0.00  0.00    +0.000 F 
ATOM     20  C   UNL     1      47.345   3.659   6.132  0.00  0.00    +0.000 A 
ATOM     21  C   UNL     1      46.434   4.104   7.092  0.00  0.00    +0.000 A 
ATOM     22  C   UNL     1      45.821   3.132   7.899  0.00  0.00    +0.000 A 
ENDBRANCH  12  13
ENDBRANCH   5  12
TORSDOF 5
ENDMDL
MODEL 5
REMARK VINA RESULT:    -6.480      1.611      2.925
REMARK INTER + INTRA:          -8.745
REMARK INTER:                  -8.090
REMARK INTRA:                  -0.655
REMARK UNBOUND:                -0.560
REMARK  Name = 
REMARK  5 active torsions:
REMARK  status: ('A' for Active; 'I' for Inactive)
REMARK    1  A    between atoms: N_1  and  C_2
REMARK    2  A    between atoms: C_2  and  C_3
REMARK    3  A    between atoms: C_3  and  C_4
REMARK    4  A    between atoms: C_8  and  C_9
REMARK    5  A    between atoms: C_9  and  N_10
REMARK                            x       y       z     vdW  Elec       q    Type
REMARK                         _______ _______ _______ _____ _____    ______ ____
ROOT
ATOM      1  C   UNL     1      47.031   8.079  13.150  0.00  0.00    +0.000 A 
ATOM      2  C   UNL     1      47.961   7.270  13.791  0.00  0.00    +0.000 A 
ATOM      3  C   UNL     1      47.666   5.934  13.980  0.00  0.00    +0.000 A 
ATOM      4  C   UNL     1      46.437   5.433  13.537  0.00  0.00    +0.000 A 
ATOM      5  C   UNL     1      45.505   6.313  12.979  0.00  0.00    +0.000 A 
ATOM      6  N   UNL     1      45.806   7.620  12.771  0.00  0.00    +0.000 NA
ENDROOT
BRANCH   1   7
ATOM      7  C   UNL     1      47.369   9.513  12.847  0.00  0.00    +0.000 C 
BRANCH   7   8
ATOM      8  C   UNL     1      46.425  10.099  11.799  0.00  0.00    +0.000 C 
BRANCH   8   9
ATOM      9  N   UNL     1      45.149  10.490  12.401  0.00  0.00    +0.000 NA
ATOM     10  H   UNL     1      44.563   9.662  12.507  0.00  0.00    +0.000 HD
ATOM     11  H   UNL     1      44.648  11.108  11.763  0.00  0.00    +0.000 HD
ENDBRANCH   8   9
ENDBRANCH   7   8
ENDBRANCH   1   7
BRANCH   5  12
ATOM     12  C   UNL     1      44.120   5.869  12.563  0.00  0.00    +0.000 C 
BRANCH  12  13
ATOM     13  N   UNL     1      44.119   4.621  11.800  0.00  0.00    +0.000 N 
ATOM     14  N   UNL     1      43.437   3.554  12.291  0.00  0.00    +0.000 NA
ATOM     15  C   UNL     1      43.519   2.650  11.311  0.00  0.00    +0.000 A 
ATOM     16  C   UNL     1      44.270   3.104  10.207  0.00  0.00    +0.000 A 
ATOM     17  C   UNL     1      44.609   2.598   8.942  0.00  0.00    +0.000 A 
ATOM     18  C   UNL     1      45.357   3.406   8.086  0.00  0.00    +0.000 A 
ATOM     19  F   UNL     1      45.647   2.958   6.857  0.00  0.00    +0.000 F 
ATOM     20  C   UNL     1      45.794   4.670   8.466  0.00  0.00    +0.000 A 
ATOM     21  C   UNL     1      45.489   5.179   9.731  0.00  0.00    +0.000 A 
ATOM     22  C   UNL     1      44.698   4.382  10.574  0.00  0.00    +0.000 A 
ENDBRANCH  12  13
ENDBRANCH   5  12
TORSDOF 5
ENDMDL
MODEL 6
REMARK VINA RESULT:    -6.349      1.685      2.940
REMARK INTER + INTRA:          -8.579
REMARK INTER:                  -8.201
REMARK INTRA:                  -0.378
REMARK UNBOUND:                -0.560
REMARK  Name = 
REMARK  5 active torsions:
REMARK  status: ('A' for Active; 'I' for Inactive)
REMARK    1  A    between atoms: N_1  and  C_2
REMARK    2  A    between atoms: C_2  and  C_3
REMARK    3  A    between atoms: C_3  and  C_4
REMARK    4  A    between atoms: C_8  and  C_9
REMARK    5  A    between atoms: C_9  and  N_10
REMARK                            x       y       z     vdW  Elec       q    Type
REMARK                         _______ _______ _______ _____ _____    ______ ____
ROOT
ATOM      1  C   UNL     1      45.802   6.776  12.307  0.00  0.00    +0.000 A 
ATOM      2  C   UNL     1      46.097   5.976  13.403  0.00  0.00    +0.000 A 
ATOM      3  C   UNL     1      45.828   4.623  13.332  0.00  0.00    +0.000 A 
ATOM      4  C   UNL     1      45.254   4.096  12.169  0.00  0.00    +0.000 A 
ATOM      5  C   UNL     1      44.898   4.964  11.134  0.00  0.00    +0.000 A 
ATOM      6  N   UNL     1      45.185   6.289  11.194  0.00  0.00    +0.000 NA
ENDROOT
BRANCH   1   7
ATOM      7  C   UNL     1      46.174   8.234  12.323  0.00  0.00    +0.000 C 
BRANCH   7   8
ATOM      8  C   UNL     1      45.095   9.093  11.665  0.00  0.00    +0.000 C 
BRANCH   8   9
ATOM      9  N   UNL     1      44.410   9.926  12.655  0.00  0.00    +0.000 NA
ATOM     10  H   UNL     1      43.441   9.619  12.736  0.00  0.00    +0.000 HD
ATOM     11  H   UNL     1      44.373  10.888  12.320  0.00  0.00    +0.000 HD
ENDBRANCH   8   9
ENDBRANCH   7   8
ENDBRANCH   1   7
BRANCH   5  12
ATOM     12  C   UNL     1      44.187   4.488   9.886  0.00  0.00    +0.000 C 
BRANCH  12  13
ATOM     13  N   UNL     1      44.796   3.296   9.295  0.00  0.00    +0.000 N 
ATOM     14  N   UNL     1      44.346   2.073   9.679  0.00  0.00    +0.000 NA
ATOM     15  C   UNL     1      44.994   1.232   8.869  0.00  0.00    +0.000 A 
ATOM     16  C   UNL     1      45.880   1.888   7.989  0.00  0.00    +0.000 A 
ATOM     17  C   UNL     1      46.729   1.502   6.940  0.00  0.00    +0.000 A 
ATOM     18  C   UNL     1      47.428   2.497   6.256  0.00  0.00    +0.000 A 
ATOM     19  F   UNL     1      48.205   2.152   5.221  0.00  0.00    +0.000 F 
ATOM     20  C   UNL     1      47.328   3.838   6.609  0.00  0.00    +0.000 A 
ATOM     21  C   UNL     1      46.508   4.238   7.667  0.00  0.00    +0.000 A 
ATOM     22  C   UNL     1      45.770   3.240   8.324  0.00  0.00    +0.000 A 
ENDBRANCH  12  13
ENDBRANCH   5  12
TORSDOF 5
ENDMDL
MODEL 7
REMARK VINA RESULT:    -6.071      2.880      6.107
REMARK INTER + INTRA:          -8.228
REMARK INTER:                  -7.772
REMARK INTRA:                  -0.456
REMARK UNBOUND:                -0.560
REMARK  Name = 
REMARK  5 active torsions:
REMARK  status: ('A' for Active; 'I' for Inactive)
REMARK    1  A    between atoms: N_1  and  C_2
REMARK    2  A    between atoms: C_2  and  C_3
REMARK    3  A    between atoms: C_3  and  C_4
REMARK    4  A    between atoms: C_8  and  C_9
REMARK    5  A    between atoms: C_9  and  N_10
REMARK                            x       y       z     vdW  Elec       q    Type
REMARK                         _______ _______ _______ _____ _____    ______ ____
ROOT
ATOM      1  C   UNL     1      44.364   3.905   9.908  0.00  0.00    +0.000 A 
ATOM      2  C   UNL     1      43.938   2.691  10.430  0.00  0.00    +0.000 A 
ATOM      3  C   UNL     1      43.632   2.615  11.775  0.00  0.00    +0.000 A 
ATOM      4  C   UNL     1      43.774   3.752  12.578  0.00  0.00    +0.000 A 
ATOM      5  C   UNL     1      44.291   4.921  12.015  0.00  0.00    +0.000 A 
ATOM      6  N   UNL     1      44.568   5.004  10.689  0.00  0.00    +0.000 NA
ENDROOT
BRANCH   1   7
ATOM      7  C   UNL     1      44.610   4.039   8.430  0.00  0.00    +0.000 C 
BRANCH   7   8
ATOM      8  C   UNL     1      45.918   3.365   8.018  0.00  0.00    +0.000 C 
BRANCH   8   9
ATOM      9  N   UNL     1      46.770   4.287   7.265  0.00  0.00    +0.000 NA
ATOM     10  H   UNL     1      47.680   4.350   7.721  0.00  0.00    +0.000 HD
ATOM     11  H   UNL     1      46.372   5.225   7.304  0.00  0.00    +0.000 HD
ENDBRANCH   8   9
ENDBRANCH   7   8
ENDBRANCH   1   7
BRANCH   5  12
ATOM     12  C   UNL     1      44.564   6.164  12.834  0.00  0.00    +0.000 C 
BRANCH  12  13
ATOM     13  N   UNL     1      45.973   6.560  12.830  0.00  0.00    +0.000 N 
ATOM     14  N   UNL     1      46.919   5.613  13.056  0.00  0.00    +0.000 NA
ATOM     15  C   UNL     1      48.068   6.261  12.847  0.00  0.00    +0.000 A 
ATOM     16  C   UNL     1      47.881   7.620  12.520  0.00  0.00    +0.000 A 
ATOM     17  C   UNL     1      48.711   8.695  12.166  0.00  0.00    +0.000 A 
ATOM     18  C   UNL     1      48.114   9.917  11.856  0.00  0.00    +0.000 A 
ATOM     19  F   UNL     1      48.888  10.939  11.469  0.00  0.00    +0.000 F 
ATOM     20  C   UNL     1      46.737  10.097  11.923  0.00  0.00    +0.000 A 
ATOM     21  C   UNL     1      45.897   9.046  12.299  0.00  0.00    +0.000 A 
ATOM     22  C   UNL     1      46.497   7.805  12.566  0.00  0.00    +0.000 A 
ENDBRANCH  12  13
ENDBRANCH   5  12
TORSDOF 5
ENDMDL
MODEL 8
REMARK VINA RESULT:    -5.850      1.716      2.473
REMARK INTER + INTRA:          -7.948
REMARK INTER:                  -7.437
REMARK INTRA:                  -0.511
REMARK UNBOUND:                -0.560
REMARK  Name = 
REMARK  5 active torsions:
REMARK  status: ('A' for Active; 'I' for Inactive)
REMARK    1  A    between atoms: N_1  and  C_2
REMARK    2  A    between atoms: C_2  and  C_3
REMARK    3  A    between atoms: C_3  and  C_4
REMARK    4  A    between atoms: C_8  and  C_9
REMARK    5  A    between atoms: C_9  and  N_10
REMARK                            x       y       z     vdW  Elec       q    Type
REMARK                         _______ _______ _______ _____ _____    ______ ____
ROOT
ATOM      1  C   UNL     1      47.147   6.595  12.500  0.00  0.00    +0.000 A 
ATOM      2  C   UNL     1      47.367   5.937  13.703  0.00  0.00    +0.000 A 
ATOM      3  C   UNL     1      46.584   4.843  14.017  0.00  0.00    +0.000 A 
ATOM      4  C   UNL     1      45.584   4.435  13.127  0.00  0.00    +0.000 A 
ATOM      5  C   UNL     1      45.351   5.189  11.975  0.00  0.00    +0.000 A 
ATOM      6  N   UNL     1      46.136   6.249  11.654  0.00  0.00    +0.000 NA
ENDROOT
BRANCH   1   7
ATOM      7  C   UNL     1      48.048   7.729  12.091  0.00  0.00    +0.000 C 
BRANCH   7   8
ATOM      8  C   UNL     1      49.515   7.405  12.370  0.00  0.00    +0.000 C 
BRANCH   8   9
ATOM      9  N   UNL     1      50.379   7.932  11.312  0.00  0.00    +0.000 NA
ATOM     10  H   UNL     1      51.016   8.620  11.713  0.00  0.00    +0.000 HD
ATOM     11  H   UNL     1      49.812   8.437  10.632  0.00  0.00    +0.000 HD
ENDBRANCH   8   9
ENDBRANCH   7   8
ENDBRANCH   1   7
BRANCH   5  12
ATOM     12  C   UNL     1      44.228   4.872  11.012  0.00  0.00    +0.000 C 
BRANCH  12  13
ATOM     13  N   UNL     1      44.523   3.736  10.137  0.00  0.00    +0.000 N 
ATOM     14  N   UNL     1      43.912   2.547  10.380  0.00  0.00    +0.000 NA
ATOM     15  C   UNL     1      44.280   1.788   9.345  0.00  0.00    +0.000 A 
ATOM     16  C   UNL     1      45.144   2.456   8.452  0.00  0.00    +0.000 A 
ATOM     17  C   UNL     1      45.760   2.152   7.228  0.00  0.00    +0.000 A 
ATOM     18  C   UNL     1      46.530   3.139   6.613  0.00  0.00    +0.000 A 
ATOM     19  F   UNL     1      47.084   2.883   5.421  0.00  0.00    +0.000 F 
ATOM     20  C   UNL     1      46.726   4.386   7.197  0.00  0.00    +0.000 A 
ATOM     21  C   UNL     1      46.144   4.696   8.428  0.00  0.00    +0.000 A 
ATOM     22  C   UNL     1      45.330   3.718   9.023  0.00  0.00    +0.000 A 
ENDBRANCH  12  13
ENDBRANCH   5  12
TORSDOF 5
ENDMDL
MODEL 9
REMARK VINA RESULT:    -5.666      4.862      8.114
REMARK INTER + INTRA:          -7.716
REMARK INTER:                  -7.063
REMARK INTRA:                  -0.654
REMARK UNBOUND:                -0.560
REMARK  Name = 
REMARK  5 active torsions:
REMARK  status: ('A' for Active; 'I' for Inactive)
REMARK    1  A    between atoms: N_1  and  C_2
REMARK    2  A    between atoms: C_2  and  C_3
REMARK    3  A    between atoms: C_3  and  C_4
REMARK    4  A    between atoms: C_8  and  C_9
REMARK    5  A    between atoms: C_9  and  N_10
REMARK                            x       y       z     vdW  Elec       q    Type
REMARK                         _______ _______ _______ _____ _____    ______ ____
ROOT
ATOM      1  C   UNL     1      46.106   5.107  13.320  0.00  0.00    +0.000 A 
ATOM      2  C   UNL     1      46.963   6.175  13.085  0.00  0.00    +0.000 A 
ATOM      3  C   UNL     1      47.988   6.416  13.979  0.00  0.00    +0.000 A 
ATOM      4  C   UNL     1      48.130   5.592  15.101  0.00  0.00    +0.000 A 
ATOM      5  C   UNL     1      47.185   4.589  15.331  0.00  0.00    +0.000 A 
ATOM      6  N   UNL     1      46.193   4.336  14.440  0.00  0.00    +0.000 NA
ENDROOT
BRANCH   1   7
ATOM      7  C   UNL     1      45.042   4.766  12.312  0.00  0.00    +0.000 C 
BRANCH   7   8
ATOM      8  C   UNL     1      45.067   3.281  11.955  0.00  0.00    +0.000 C 
BRANCH   8   9
ATOM      9  N   UNL     1      43.956   2.570  12.591  0.00  0.00    +0.000 NA
ATOM     10  H   UNL     1      43.086   2.820  12.121  0.00  0.00    +0.000 HD
ATOM     11  H   UNL     1      43.856   2.889  13.554  0.00  0.00    +0.000 HD
ENDBRANCH   8   9
ENDBRANCH   7   8
ENDBRANCH   1   7
BRANCH   5  12
ATOM     12  C   UNL     1      47.212   3.718  16.568  0.00  0.00    +0.000 C 
BRANCH  12  13
ATOM     13  N   UNL     1      48.539   3.175  16.862  0.00  0.00    +0.000 N 
ATOM     14  N   UNL     1      48.948   2.057  16.207  0.00  0.00    +0.000 NA
ATOM     15  C   UNL     1      50.219   1.916  16.591  0.00  0.00    +0.000 A 
ATOM     16  C   UNL     1      50.630   2.906  17.508  0.00  0.00    +0.000 A 
ATOM     17  C   UNL     1      51.827   3.241  18.159  0.00  0.00    +0.000 A 
ATOM     18  C   UNL     1      51.838   4.367  18.982  0.00  0.00    +0.000 A 
ATOM     19  F   UNL     1      52.984   4.731  19.573  0.00  0.00    +0.000 F 
ATOM     20  C   UNL     1      50.696   5.133  19.192  0.00  0.00    +0.000 A 
ATOM     21  C   UNL     1      49.489   4.798  18.574  0.00  0.00    +0.000 A 
ATOM     22  C   UNL     1      49.492   3.691  17.710  0.00  0.00    +0.000 A 
ENDBRANCH  12  13
ENDBRANCH   5  12
TORSDOF 5
ENDMDL
