MODEL 1
REMARK VINA RESULT:    -9.363      0.000      0.000
REMARK INTER + INTRA:         -13.948
REMARK INTER:                 -13.468
REMARK INTRA:                  -0.480
REMARK UNBOUND:                -0.480
REMARK  Name = 
REMARK  8 active torsions:
REMARK  status: ('A' for Active; 'I' for Inactive)
REMARK    1  A    between atoms: C_2  and  C_4
REMARK    2  A    between atoms: N_8  and  C_9
REMARK    3  A    between atoms: C_9  and  C_10
REMARK    4  A    between atoms: C_10  and  C_13
REMARK    5  A    between atoms: C_17  and  O_18
REMARK    6  A    between atoms: O_18  and  C_19
REMARK    7  A    between atoms: N_21  and  S_22
REMARK    8  A    between atoms: S_22  and  N_23
REMARK                            x       y       z     vdW  Elec       q    Type
REMARK                         _______ _______ _______ _____ _____    ______ ____
ROOT
ATOM      1  C   UNL     1      43.558   5.430  12.198  0.00  0.00    +0.000 C 
ATOM      2  F   UNL     1      43.118   6.678  11.823  0.00  0.00    +0.000 F 
ATOM      3  F   UNL     1      42.759   5.084  13.253  0.00  0.00    +0.000 F 
ENDROOT
BRANCH   1   4
ATOM      4  C   UNL     1      45.018   5.485  12.623  0.00  0.00    +0.000 A 
ATOM      5  C   UNL     1      45.926   6.449  12.166  0.00  0.00    +0.000 A 
ATOM      6  C   UNL     1      47.236   6.412  12.622  0.00  0.00    +0.000 A 
ATOM      7  N   UNL     1      47.708   5.503  13.499  0.00  0.00    +0.000 NA
ATOM      8  C   UNL     1      46.828   4.580  13.932  0.00  0.00    +0.000 A 
ATOM      9  C   UNL     1      45.500   4.524  13.529  0.00  0.00    +0.000 A 
BRANCH   8  10
ATOM     10  O   UNL     1      47.252   3.670  14.878  0.00  0.00    +0.000 OA
BRANCH  10  11
ATOM     11  C   UNL     1      47.427   4.194  16.219  0.00  0.00    +0.000 C 
ATOM     12  C   UNL     1      48.896   4.332  16.683  0.00  0.00    +0.000 C 
ATOM     13  N   UNL     1      48.547   3.790  18.041  0.00  0.00    +0.000 NA
ATOM     14  C   UNL     1      47.280   3.247  17.435  0.00  0.00    +0.000 C 
BRANCH  13  15
ATOM     15  S   UNL     1      48.599   4.773  19.408  0.00  0.00    +0.000 S 
ATOM     16  O   UNL     1      49.929   5.300  19.542  0.00  0.00    +0.000 OA
ATOM     17  O   UNL     1      47.413   5.594  19.420  0.00  0.00    +0.000 OA
BRANCH  15  18
ATOM     18  N   UNL     1      48.411   3.586  20.553  0.00  0.00    +0.000 NA
ATOM     19  H   UNL     1      49.306   3.267  20.912  0.00  0.00    +0.000 HD
ATOM     20  H   UNL     1      47.743   2.873  20.280  0.00  0.00    +0.000 HD
ENDBRANCH  15  18
ENDBRANCH  13  15
ENDBRANCH  10  11
ENDBRANCH   8  10
ENDBRANCH   1   4
BRANCH   1  21
ATOM     21  C   UNL     1      43.253   4.472  11.014  0.00  0.00    +0.000 C 
BRANCH  21  26
ATOM     22  C   UNL     1      46.253   2.026   7.890  0.00  0.00    +0.000 A 
ATOM     23  C   UNL     1      46.160   3.302   7.342  0.00  0.00    +0.000 A 
ATOM     24  C   UNL     1      45.365   4.258   7.977  0.00  0.00    +0.000 A 
ATOM     25  C   UNL     1      44.686   3.929   9.150  0.00  0.00    +0.000 A 
ATOM     26  N   UNL     1      43.853   4.896   9.732  0.00  0.00    +0.000 N 
ATOM     27  N   UNL     1      44.755   2.688   9.675  0.00  0.00    +0.000 NA
ATOM     28  C   UNL     1      45.523   1.764   9.038  0.00  0.00    +0.000 A 
ATOM     29  H   UNL     1      44.321   5.797   9.800  0.00  0.00    +0.000 HD
BRANCH  22  31
ATOM     30  N   UNL     1      46.730  -0.337   7.620  0.00  0.00    +0.000 N 
ATOM     31  C   UNL     1      47.069   0.948   7.297  0.00  0.00    +0.000 C 
ATOM     32  O   UNL     1      47.981   1.191   6.518  0.00  0.00    +0.000 OA
ATOM     33  H   UNL     1      47.216  -1.070   7.117  0.00  0.00    +0.000 HD
ATOM     34  H   UNL     1      45.842  -0.570   8.038  0.00  0.00    +0.000 HD
ENDBRANCH  22  31
ENDBRANCH  21  26
ENDBRANCH   1  21
TORSDOF 8
ENDMDL
MODEL 2
REMARK VINA RESULT:    -8.847      1.037      1.322
REMARK INTER + INTRA:         -13.207
REMARK INTER:                 -12.707
REMARK INTRA:                  -0.500
REMARK UNBOUND:                -0.480
REMARK  Name = 
REMARK  8 active torsions:
REMARK  status: ('A' for Active; 'I' for Inactive)
REMARK    1  A    between atoms: C_2  and  C_4
REMARK    2  A    between atoms: N_8  and  C_9
REMARK    3  A    between atoms: C_9  and  C_10
REMARK    4  A    between atoms: C_10  and  C_13
REMARK    5  A    between atoms: C_17  and  O_18
REMARK    6  A    between atoms: O_18  and  C_19
REMARK    7  A    between atoms: N_21  and  S_22
REMARK    8  A    between atoms: S_22  and  N_23
REMARK                            x       y       z     vdW  Elec       q    Type
REMARK                         _______ _______ _______ _____ _____    ______ ____
ROOT
ATOM      1  C   UNL     1      43.641   5.093  12.233  0.00  0.00    +0.000 C 
ATOM      2  F   UNL     1      42.997   6.303  12.339  0.00  0.00    +0.000 F 
ATOM      3  F   UNL     1      42.953   4.260  13.072  0.00  0.00    +0.000 F 
ENDROOT
BRANCH   1   4
ATOM      4  C   UNL     1      45.093   5.221  12.672  0.00  0.00    +0.000 A 
ATOM      5  C   UNL     1      45.959   6.222  12.214  0.00  0.00    +0.000 A 
ATOM      6  C   UNL     1      47.265   6.251  12.682  0.00  0.00    +0.000 A 
ATOM      7  N   UNL     1      47.769   5.374  13.574  0.00  0.00    +0.000 NA
ATOM      8  C   UNL     1      46.930   4.416  14.008  0.00  0.00    +0.000 A 
ATOM      9  C   UNL     1      45.610   4.293  13.593  0.00  0.00    +0.000 A 
BRANCH   8  10
ATOM     10  O   UNL     1      47.387   3.536  14.968  0.00  0.00    +0.000 OA
BRANCH  10  11
ATOM     11  C   UNL     1      47.687   4.119  16.262  0.00  0.00    +0.000 C 
ATOM     12  C   UNL     1      49.105   3.823  16.802  0.00  0.00    +0.000 C 
ATOM     13  N   UNL     1      48.558   3.576  18.181  0.00  0.00    +0.000 NA
ATOM     14  C   UNL     1      47.201   3.412  17.550  0.00  0.00    +0.000 C 
BRANCH  13  15
ATOM     15  S   UNL     1      48.892   4.634  19.449  0.00  0.00    +0.000 S 
ATOM     16  O   UNL     1      50.319   4.731  19.599  0.00  0.00    +0.000 OA
ATOM     17  O   UNL     1      48.026   5.780  19.323  0.00  0.00    +0.000 OA
BRANCH  15  18
ATOM     18  N   UNL     1      48.318   3.694  20.691  0.00  0.00    +0.000 NA
ATOM     19  H   UNL     1      49.006   3.009  20.990  0.00  0.00    +0.000 HD
ATOM     20  H   UNL     1      47.374   3.360  20.532  0.00  0.00    +0.000 HD
ENDBRANCH  15  18
ENDBRANCH  13  15
ENDBRANCH  10  11
ENDBRANCH   8  10
ENDBRANCH   1   4
BRANCH   1  21
ATOM     21  C   UNL     1      43.436   4.601  10.774  0.00  0.00    +0.000 C 
BRANCH  21  26
ATOM     22  C   UNL     1      46.478   2.709   7.323  0.00  0.00    +0.000 A 
ATOM     23  C   UNL     1      46.015   1.593   8.015  0.00  0.00    +0.000 A 
ATOM     24  C   UNL     1      45.134   1.774   9.082  0.00  0.00    +0.000 A 
ATOM     25  C   UNL     1      44.722   3.059   9.434  0.00  0.00    +0.000 A 
ATOM     26  N   UNL     1      43.878   3.209  10.545  0.00  0.00    +0.000 N 
ATOM     27  N   UNL     1      45.183   4.146   8.781  0.00  0.00    +0.000 NA
ATOM     28  C   UNL     1      46.052   3.955   7.752  0.00  0.00    +0.000 A 
ATOM     29  H   UNL     1      43.101   2.554  10.513  0.00  0.00    +0.000 HD
BRANCH  22  31
ATOM     30  N   UNL     1      48.664   2.147   6.435  0.00  0.00    +0.000 N 
ATOM     31  C   UNL     1      47.408   2.623   6.180  0.00  0.00    +0.000 C 
ATOM     32  O   UNL     1      47.058   2.923   5.047  0.00  0.00    +0.000 OA
ATOM     33  H   UNL     1      49.255   1.979   5.628  0.00  0.00    +0.000 HD
ATOM     34  H   UNL     1      48.891   1.656   7.287  0.00  0.00    +0.000 HD
ENDBRANCH  22  31
ENDBRANCH  21  26
ENDBRANCH   1  21
TORSDOF 8
ENDMDL
MODEL 3
REMARK VINA RESULT:    -7.735      3.185      9.021
REMARK INTER + INTRA:         -11.607
REMARK INTER:                 -11.225
REMARK INTRA:                  -0.382
REMARK UNBOUND:                -0.480
REMARK  Name = 
REMARK  8 active torsions:
REMARK  status: ('A' for Active; 'I' for Inactive)
REMARK    1  A    between atoms: C_2  and  C_4
REMARK    2  A    between atoms: N_8  and  C_9
REMARK    3  A    between atoms: C_9  and  C_10
REMARK    4  A    between atoms: C_10  and  C_13
REMARK    5  A    between atoms: C_17  and  O_18
REMARK    6  A    between atoms: O_18  and  C_19
REMARK    7  A    between atoms: N_21  and  S_22
REMARK    8  A    between atoms: S_22  and  N_23
REMARK                            x       y       z     vdW  Elec       q    Type
REMARK                         _______ _______ _______ _____ _____    ______ ____
ROOT
ATOM      1  C   UNL     1      46.359   6.421  12.578  0.00  0.00    +0.000 C 
ATOM      2  F   UNL     1      46.086   7.558  13.300  0.00  0.00    +0.000 F 
ATOM      3  F   UNL     1      46.928   6.874  11.419  0.00  0.00    +0.000 F 
ENDROOT
BRANCH   1   4
ATOM      4  C   UNL     1      45.077   5.654  12.285  0.00  0.00    +0.000 A 
ATOM      5  C   UNL     1      43.863   5.889  12.942  0.00  0.00    +0.000 A 
ATOM      6  C   UNL     1      42.750   5.136  12.594  0.00  0.00    +0.000 A 
ATOM      7  N   UNL     1      42.750   4.181  11.641  0.00  0.00    +0.000 NA
ATOM      8  C   UNL     1      43.921   3.962  11.016  0.00  0.00    +0.000 A 
ATOM      9  C   UNL     1      45.093   4.653  11.298  0.00  0.00    +0.000 A 
BRANCH   8  10
ATOM     10  O   UNL     1      43.950   3.038   9.992  0.00  0.00    +0.000 OA
BRANCH  10  11
ATOM     11  C   UNL     1      45.174   3.000   9.215  0.00  0.00    +0.000 C 
ATOM     12  C   UNL     1      45.034   3.466   7.747  0.00  0.00    +0.000 C 
ATOM     13  N   UNL     1      45.906   2.335   7.276  0.00  0.00    +0.000 NA
ATOM     14  C   UNL     1      45.647   1.662   8.598  0.00  0.00    +0.000 C 
BRANCH  13  15
ATOM     15  S   UNL     1      47.441   2.627   6.647  0.00  0.00    +0.000 S 
ATOM     16  O   UNL     1      47.916   3.882   7.163  0.00  0.00    +0.000 OA
ATOM     17  O   UNL     1      48.198   1.401   6.714  0.00  0.00    +0.000 OA
BRANCH  15  18
ATOM     18  N   UNL     1      47.000   2.870   5.065  0.00  0.00    +0.000 NA
ATOM     19  H   UNL     1      47.089   2.019   4.517  0.00  0.00    +0.000 HD
ATOM     20  H   UNL     1      47.392   3.717   4.669  0.00  0.00    +0.000 HD
ENDBRANCH  15  18
ENDBRANCH  13  15
ENDBRANCH  10  11
ENDBRANCH   8  10
ENDBRANCH   1   4
BRANCH   1  21
ATOM     21  C   UNL     1      47.431   5.629  13.376  0.00  0.00    +0.000 C 
BRANCH  21  26
ATOM     22  C   UNL     1      48.610   4.453  18.063  0.00  0.00    +0.000 A 
ATOM     23  C   UNL     1      47.655   3.505  17.706  0.00  0.00    +0.000 A 
ATOM     24  C   UNL     1      47.090   3.558  16.431  0.00  0.00    +0.000 A 
ATOM     25  C   UNL     1      47.494   4.545  15.532  0.00  0.00    +0.000 A 
ATOM     26  N   UNL     1      46.867   4.603  14.277  0.00  0.00    +0.000 N 
ATOM     27  N   UNL     1      48.404   5.479  15.879  0.00  0.00    +0.000 NA
ATOM     28  C   UNL     1      48.935   5.423  17.129  0.00  0.00    +0.000 A 
ATOM     29  H   UNL     1      46.822   3.684  13.843  0.00  0.00    +0.000 HD
BRANCH  22  31
ATOM     30  N   UNL     1      48.558   3.982  20.442  0.00  0.00    +0.000 N 
ATOM     31  C   UNL     1      49.268   4.480  19.385  0.00  0.00    +0.000 C 
ATOM     32  O   UNL     1      50.412   4.890  19.521  0.00  0.00    +0.000 OA
ATOM     33  H   UNL     1      49.060   3.894  21.319  0.00  0.00    +0.000 HD
ATOM     34  H   UNL     1      47.737   3.409  20.317  0.00  0.00    +0.000 HD
ENDBRANCH  22  31
ENDBRANCH  21  26
ENDBRANCH   1  21
TORSDOF 8
ENDMDL
MODEL 4
REMARK VINA RESULT:    -7.557      3.445      4.576
REMARK INTER + INTRA:         -11.350
REMARK INTER:                 -10.838
REMARK INTRA:                  -0.512
REMARK UNBOUND:                -0.480
REMARK  Name = 
REMARK  8 active torsions:
REMARK  status: ('A' for Active; 'I' for Inactive)
REMARK    1  A    between atoms: C_2  and  C_4
REMARK    2  A    between atoms: N_8  and  C_9
REMARK    3  A    between atoms: C_9  and  C_10
REMARK    4  A    between atoms: C_10  and  C_13
REMARK    5  A    between atoms: C_17  and  O_18
REMARK    6  A    between atoms: O_18  and  C_19
REMARK    7  A    between atoms: N_21  and  S_22
REMARK    8  A    between atoms: S_22  and  N_23
REMARK                            x       y       z     vdW  Elec       q    Type
REMARK                         _______ _______ _______ _____ _____    ______ ____
ROOT
ATOM      1  C   UNL     1      43.499   4.224  12.506  0.00  0.00    +0.000 C 
ATOM      2  F   UNL     1      42.607   5.212  12.846  0.00  0.00    +0.000 F 
ATOM      3  F   UNL     1      43.129   3.147  13.265  0.00  0.00    +0.000 F 
ENDROOT
BRANCH   1   4
ATOM      4  C   UNL     1      44.922   4.652  12.837  0.00  0.00    +0.000 A 
ATOM      5  C   UNL     1      45.965   3.754  13.095  0.00  0.00    +0.000 A 
ATOM      6  C   UNL     1      47.229   4.251  13.382  0.00  0.00    +0.000 A 
ATOM      7  N   UNL     1      47.535   5.564  13.420  0.00  0.00    +0.000 NA
ATOM      8  C   UNL     1      46.526   6.419  13.172  0.00  0.00    +0.000 A 
ATOM      9  C   UNL     1      45.226   6.024  12.886  0.00  0.00    +0.000 A 
BRANCH   8  10
ATOM     10  O   UNL     1      46.810   7.769  13.140  0.00  0.00    +0.000 OA
BRANCH  10  11
ATOM     11  C   UNL     1      48.217   8.113  13.066  0.00  0.00    +0.000 C 
ATOM     12  C   UNL     1      48.638   9.337  13.913  0.00  0.00    +0.000 C 
ATOM     13  N   UNL     1      49.504   9.847  12.794  0.00  0.00    +0.000 NA
ATOM     14  C   UNL     1      48.740   8.940  11.866  0.00  0.00    +0.000 C 
BRANCH  13  15
ATOM     15  S   UNL     1      51.183   9.863  12.933  0.00  0.00    +0.000 S 
ATOM     16  O   UNL     1      51.539  10.656  14.079  0.00  0.00    +0.000 OA
ATOM     17  O   UNL     1      51.668   8.523  12.712  0.00  0.00    +0.000 OA
BRANCH  15  18
ATOM     18  N   UNL     1      51.519  10.759  11.578  0.00  0.00    +0.000 NA
ATOM     19  H   UNL     1      51.271  10.260  10.728  0.00  0.00    +0.000 HD
ATOM     20  H   UNL     1      52.434  11.195  11.606  0.00  0.00    +0.000 HD
ENDBRANCH  15  18
ENDBRANCH  13  15
ENDBRANCH  10  11
ENDBRANCH   8  10
ENDBRANCH   1   4
BRANCH   1  21
ATOM     21  C   UNL     1      43.245   3.884  11.012  0.00  0.00    +0.000 C 
BRANCH  21  26
ATOM     22  C   UNL     1      46.699   2.660   7.648  0.00  0.00    +0.000 A 
ATOM     23  C   UNL     1      46.656   4.051   7.599  0.00  0.00    +0.000 A 
ATOM     24  C   UNL     1      45.760   4.732   8.425  0.00  0.00    +0.000 A 
ATOM     25  C   UNL     1      44.933   4.018   9.292  0.00  0.00    +0.000 A 
ATOM     26  N   UNL     1      44.007   4.729  10.069  0.00  0.00    +0.000 N 
ATOM     27  N   UNL     1      44.956   2.669   9.330  0.00  0.00    +0.000 NA
ATOM     28  C   UNL     1      45.824   2.019   8.509  0.00  0.00    +0.000 A 
ATOM     29  H   UNL     1      44.442   5.528  10.526  0.00  0.00    +0.000 HD
BRANCH  22  31
ATOM     30  N   UNL     1      48.376   2.517   5.902  0.00  0.00    +0.000 N 
ATOM     31  C   UNL     1      47.613   1.849   6.818  0.00  0.00    +0.000 C 
ATOM     32  O   UNL     1      47.713   0.640   6.973  0.00  0.00    +0.000 OA
ATOM     33  H   UNL     1      49.084   1.971   5.422  0.00  0.00    +0.000 HD
ATOM     34  H   UNL     1      48.504   3.518   5.934  0.00  0.00    +0.000 HD
ENDBRANCH  22  31
ENDBRANCH  21  26
ENDBRANCH   1  21
TORSDOF 8
ENDMDL
MODEL 5
REMARK VINA RESULT:    -7.431      2.646      3.254
REMARK INTER + INTRA:         -11.169
REMARK INTER:                 -10.744
REMARK INTRA:                  -0.425
REMARK UNBOUND:                -0.480
REMARK  Name = 
REMARK  8 active torsions:
REMARK  status: ('A' for Active; 'I' for Inactive)
REMARK    1  A    between atoms: C_2  and  C_4
REMARK    2  A    between atoms: N_8  and  C_9
REMARK    3  A    between atoms: C_9  and  C_10
REMARK    4  A    between atoms: C_10  and  C_13
REMARK    5  A    between atoms: C_17  and  O_18
REMARK    6  A    between atoms: O_18  and  C_19
REMARK    7  A    between atoms: N_21  and  S_22
REMARK    8  A    between atoms: S_22  and  N_23
REMARK                            x       y       z     vdW  Elec       q    Type
REMARK                         _______ _______ _______ _____ _____    ______ ____
ROOT
ATOM      1  C   UNL     1      44.148   5.535  12.129  0.00  0.00    +0.000 C 
ATOM      2  F   UNL     1      43.139   5.492  13.061  0.00  0.00    +0.000 F 
ATOM      3  F   UNL     1      45.095   4.670  12.603  0.00  0.00    +0.000 F 
ENDROOT
BRANCH   1   4
ATOM      4  C   UNL     1      44.713   6.945  12.018  0.00  0.00    +0.000 A 
ATOM      5  C   UNL     1      44.042   8.005  11.398  0.00  0.00    +0.000 A 
ATOM      6  C   UNL     1      44.646   9.254  11.356  0.00  0.00    +0.000 A 
ATOM      7  N   UNL     1      45.853   9.530  11.890  0.00  0.00    +0.000 NA
ATOM      8  C   UNL     1      46.491   8.504  12.483  0.00  0.00    +0.000 A 
ATOM      9  C   UNL     1      45.978   7.216  12.568  0.00  0.00    +0.000 A 
BRANCH   8  10
ATOM     10  O   UNL     1      47.701   8.757  13.097  0.00  0.00    +0.000 OA
BRANCH  10  11
ATOM     11  C   UNL     1      48.020   7.908  14.229  0.00  0.00    +0.000 C 
ATOM     12  C   UNL     1      48.631   8.640  15.446  0.00  0.00    +0.000 C 
ATOM     13  N   UNL     1      49.634   7.536  15.640  0.00  0.00    +0.000 NA
ATOM     14  C   UNL     1      49.339   7.099  14.229  0.00  0.00    +0.000 C 
BRANCH  13  15
ATOM     15  S   UNL     1      49.560   6.521  16.982  0.00  0.00    +0.000 S 
ATOM     16  O   UNL     1      48.292   6.716  17.633  0.00  0.00    +0.000 OA
ATOM     17  O   UNL     1      50.065   5.226  16.599  0.00  0.00    +0.000 OA
BRANCH  15  18
ATOM     18  N   UNL     1      50.719   7.271  17.903  0.00  0.00    +0.000 NA
ATOM     19  H   UNL     1      51.021   8.145  17.485  0.00  0.00    +0.000 HD
ATOM     20  H   UNL     1      51.444   6.637  18.222  0.00  0.00    +0.000 HD
ENDBRANCH  15  18
ENDBRANCH  13  15
ENDBRANCH  10  11
ENDBRANCH   8  10
ENDBRANCH   1   4
BRANCH   1  21
ATOM     21  C   UNL     1      43.567   4.954  10.811  0.00  0.00    +0.000 C 
BRANCH  21  26
ATOM     22  C   UNL     1      46.453   2.626   7.496  0.00  0.00    +0.000 A 
ATOM     23  C   UNL     1      45.833   1.591   8.192  0.00  0.00    +0.000 A 
ATOM     24  C   UNL     1      44.949   1.903   9.226  0.00  0.00    +0.000 A 
ATOM     25  C   UNL     1      44.690   3.237   9.541  0.00  0.00    +0.000 A 
ATOM     26  N   UNL     1      43.838   3.515  10.621  0.00  0.00    +0.000 N 
ATOM     27  N   UNL     1      45.304   4.244   8.884  0.00  0.00    +0.000 NA
ATOM     28  C   UNL     1      46.172   3.924   7.889  0.00  0.00    +0.000 A 
ATOM     29  H   UNL     1      42.987   2.960  10.574  0.00  0.00    +0.000 HD
BRANCH  22  31
ATOM     30  N   UNL     1      47.342   3.271   5.334  0.00  0.00    +0.000 N 
ATOM     31  C   UNL     1      47.400   2.400   6.386  0.00  0.00    +0.000 C 
ATOM     32  O   UNL     1      48.228   1.500   6.425  0.00  0.00    +0.000 OA
ATOM     33  H   UNL     1      48.071   3.182   4.635  0.00  0.00    +0.000 HD
ATOM     34  H   UNL     1      46.862   4.156   5.394  0.00  0.00    +0.000 HD
ENDBRANCH  22  31
ENDBRANCH  21  26
ENDBRANCH   1  21
TORSDOF 8
ENDMDL
MODEL 6
REMARK VINA RESULT:    -7.170      4.629      5.394
REMARK INTER + INTRA:         -10.794
REMARK INTER:                 -10.398
REMARK INTRA:                  -0.396
REMARK UNBOUND:                -0.480
REMARK  Name = 
REMARK  8 active torsions:
REMARK  status: ('A' for Active; 'I' for Inactive)
REMARK    1  A    between atoms: C_2  and  C_4
REMARK    2  A    between atoms: N_8  and  C_9
REMARK    3  A    between atoms: C_9  and  C_10
REMARK    4  A    between atoms: C_10  and  C_13
REMARK    5  A    between atoms: C_17  and  O_18
REMARK    6  A    between atoms: O_18  and  C_19
REMARK    7  A    between atoms: N_21  and  S_22
REMARK    8  A    between atoms: S_22  and  N_23
REMARK                            x       y       z     vdW  Elec       q    Type
REMARK                         _______ _______ _______ _____ _____    ______ ____
ROOT
ATOM      1  C   UNL     1      44.551   5.884  12.085  0.00  0.00    +0.000 C 
ATOM      2  F   UNL     1      43.800   5.699  13.221  0.00  0.00    +0.000 F 
ATOM      3  F   UNL     1      45.666   5.117  12.279  0.00  0.00    +0.000 F 
ENDROOT
BRANCH   1   4
ATOM      4  C   UNL     1      44.927   7.351  11.927  0.00  0.00    +0.000 A 
ATOM      5  C   UNL     1      44.082   8.313  11.360  0.00  0.00    +0.000 A 
ATOM      6  C   UNL     1      44.521   9.626  11.268  0.00  0.00    +0.000 A 
ATOM      7  N   UNL     1      45.724  10.055  11.703  0.00  0.00    +0.000 NA
ATOM      8  C   UNL     1      46.529   9.122  12.245  0.00  0.00    +0.000 A 
ATOM      9  C   UNL     1      46.188   7.782  12.373  0.00  0.00    +0.000 A 
BRANCH   8  10
ATOM     10  O   UNL     1      47.743   9.529  12.759  0.00  0.00    +0.000 OA
BRANCH  10  11
ATOM     11  C   UNL     1      48.912   9.132  11.997  0.00  0.00    +0.000 C 
ATOM     12  C   UNL     1      49.936   8.269  12.770  0.00  0.00    +0.000 C 
ATOM     13  N   UNL     1      51.079   9.048  12.180  0.00  0.00    +0.000 NA
ATOM     14  C   UNL     1      50.087  10.125  11.828  0.00  0.00    +0.000 C 
BRANCH  13  15
ATOM     15  S   UNL     1      52.137   8.337  11.078  0.00  0.00    +0.000 S 
ATOM     16  O   UNL     1      51.458   7.246  10.432  0.00  0.00    +0.000 OA
ATOM     17  O   UNL     1      52.816   9.387  10.360  0.00  0.00    +0.000 OA
BRANCH  15  18
ATOM     18  N   UNL     1      53.206   7.689  12.169  0.00  0.00    +0.000 NA
ATOM     19  H   UNL     1      53.573   8.396  12.799  0.00  0.00    +0.000 HD
ATOM     20  H   UNL     1      53.877   7.060  11.742  0.00  0.00    +0.000 HD
ENDBRANCH  15  18
ENDBRANCH  13  15
ENDBRANCH  10  11
ENDBRANCH   8  10
ENDBRANCH   1   4
BRANCH   1  21
ATOM     21  C   UNL     1      43.738   5.282  10.906  0.00  0.00    +0.000 C 
BRANCH  21  26
ATOM     22  C   UNL     1      46.358   2.640   7.606  0.00  0.00    +0.000 A 
ATOM     23  C   UNL     1      45.679   1.678   8.347  0.00  0.00    +0.000 A 
ATOM     24  C   UNL     1      44.846   2.087   9.389  0.00  0.00    +0.000 A 
ATOM     25  C   UNL     1      44.697   3.446   9.668  0.00  0.00    +0.000 A 
ATOM     26  N   UNL     1      43.895   3.821  10.756  0.00  0.00    +0.000 N 
ATOM     27  N   UNL     1      45.369   4.382   8.966  0.00  0.00    +0.000 NA
ATOM     28  C   UNL     1      46.187   3.967   7.962  0.00  0.00    +0.000 A 
ATOM     29  H   UNL     1      43.003   3.332  10.746  0.00  0.00    +0.000 HD
BRANCH  22  31
ATOM     30  N   UNL     1      47.201   3.118   5.382  0.00  0.00    +0.000 N 
ATOM     31  C   UNL     1      47.259   2.309   6.482  0.00  0.00    +0.000 C 
ATOM     32  O   UNL     1      48.050   1.379   6.551  0.00  0.00    +0.000 OA
ATOM     33  H   UNL     1      47.903   2.957   4.668  0.00  0.00    +0.000 HD
ATOM     34  H   UNL     1      46.759   4.024   5.402  0.00  0.00    +0.000 HD
ENDBRANCH  22  31
ENDBRANCH  21  26
ENDBRANCH   1  21
TORSDOF 8
ENDMDL
MODEL 7
REMARK VINA RESULT:    -6.828      4.357      6.436
REMARK INTER + INTRA:         -10.302
REMARK INTER:                 -10.254
REMARK INTRA:                  -0.048
REMARK UNBOUND:                -0.480
REMARK  Name = 
REMARK  8 active torsions:
REMARK  status: ('A' for Active; 'I' for Inactive)
REMARK    1  A    between atoms: C_2  and  C_4
REMARK    2  A    between atoms: N_8  and  C_9
REMARK    3  A    between atoms: C_9  and  C_10
REMARK    4  A    between atoms: C_10  and  C_13
REMARK    5  A    between atoms: C_17  and  O_18
REMARK    6  A    between atoms: O_18  and  C_19
REMARK    7  A    between atoms: N_21  and  S_22
REMARK    8  A    between atoms: S_22  and  N_23
REMARK                            x       y       z     vdW  Elec       q    Type
REMARK                         _______ _______ _______ _____ _____    ______ ____
ROOT
ATOM      1  C   UNL     1      47.435   3.745  17.414  0.00  0.00    +0.000 C 
ATOM      2  F   UNL     1      46.463   4.668  17.717  0.00  0.00    +0.000 F 
ATOM      3  F   UNL     1      46.933   2.554  17.859  0.00  0.00    +0.000 F 
ENDROOT
BRANCH   1   4
ATOM      4  C   UNL     1      48.735   4.084  18.131  0.00  0.00    +0.000 A 
ATOM      5  C   UNL     1      48.794   4.747  19.363  0.00  0.00    +0.000 A 
ATOM      6  C   UNL     1      50.033   5.002  19.934  0.00  0.00    +0.000 A 
ATOM      7  N   UNL     1      51.209   4.641  19.383  0.00  0.00    +0.000 NA
ATOM      8  C   UNL     1      51.142   4.006  18.198  0.00  0.00    +0.000 A 
ATOM      9  C   UNL     1      49.955   3.713  17.540  0.00  0.00    +0.000 A 
BRANCH   8  10
ATOM     10  O   UNL     1      52.319   3.564  17.629  0.00  0.00    +0.000 OA
BRANCH  10  11
ATOM     11  C   UNL     1      52.857   2.332  18.176  0.00  0.00    +0.000 C 
ATOM     12  C   UNL     1      54.129   1.803  17.473  0.00  0.00    +0.000 C 
ATOM     13  N   UNL     1      53.602   0.396  17.521  0.00  0.00    +0.000 NA
ATOM     14  C   UNL     1      52.235   0.977  17.763  0.00  0.00    +0.000 C 
BRANCH  13  15
ATOM     15  S   UNL     1      54.324  -0.769  18.502  0.00  0.00    +0.000 S 
ATOM     16  O   UNL     1      55.194  -1.576  17.689  0.00  0.00    +0.000 OA
ATOM     17  O   UNL     1      54.744  -0.132  19.726  0.00  0.00    +0.000 OA
BRANCH  15  18
ATOM     18  N   UNL     1      52.968  -1.666  18.831  0.00  0.00    +0.000 NA
ATOM     19  H   UNL     1      52.689  -2.230  18.033  0.00  0.00    +0.000 HD
ATOM     20  H   UNL     1      52.241  -1.132  19.294  0.00  0.00    +0.000 HD
ENDBRANCH  15  18
ENDBRANCH  13  15
ENDBRANCH  10  11
ENDBRANCH   8  10
ENDBRANCH   1   4
BRANCH   1  21
ATOM     21  C   UNL     1      47.535   3.690  15.865  0.00  0.00    +0.000 C 
BRANCH  21  26
ATOM     22  C   UNL     1      45.119   4.360  11.568  0.00  0.00    +0.000 A 
ATOM     23  C   UNL     1      45.413   5.651  11.997  0.00  0.00    +0.000 A 
ATOM     24  C   UNL     1      46.089   5.828  13.205  0.00  0.00    +0.000 A 
ATOM     25  C   UNL     1      46.469   4.717  13.958  0.00  0.00    +0.000 A 
ATOM     26  N   UNL     1      47.099   4.932  15.194  0.00  0.00    +0.000 N 
ATOM     27  N   UNL     1      46.169   3.464  13.559  0.00  0.00    +0.000 NA
ATOM     28  C   UNL     1      45.498   3.308  12.386  0.00  0.00    +0.000 A 
ATOM     29  H   UNL     1      47.848   5.616  15.114  0.00  0.00    +0.000 HD
BRANCH  22  31
ATOM     30  N   UNL     1      44.650   4.906   9.252  0.00  0.00    +0.000 N 
ATOM     31  C   UNL     1      44.412   4.067  10.305  0.00  0.00    +0.000 C 
ATOM     32  O   UNL     1      43.679   3.094  10.193  0.00  0.00    +0.000 OA
ATOM     33  H   UNL     1      44.256   4.631   8.360  0.00  0.00    +0.000 HD
ATOM     34  H   UNL     1      45.431   5.544   9.238  0.00  0.00    +0.000 HD
ENDBRANCH  22  31
ENDBRANCH  21  26
ENDBRANCH   1  21
TORSDOF 8
ENDMDL
MODEL 8
REMARK VINA RESULT:    -6.744      4.272      8.056
REMARK INTER + INTRA:         -10.181
REMARK INTER:                  -9.381
REMARK INTRA:                  -0.800
REMARK UNBOUND:                -0.480
REMARK  Name = 
REMARK  8 active torsions:
REMARK  status: ('A' for Active; 'I' for Inactive)
REMARK    1  A    between atoms: C_2  and  C_4
REMARK    2  A    between atoms: N_8  and  C_9
REMARK    3  A    between atoms: C_9  and  C_10
REMARK    4  A    between atoms: C_10  and  C_13
REMARK    5  A    between atoms: C_17  and  O_18
REMARK    6  A    between atoms: O_18  and  C_19
REMARK    7  A    between atoms: N_21  and  S_22
REMARK    8  A    between atoms: S_22  and  N_23
REMARK                            x       y       z     vdW  Elec       q    Type
REMARK                         _______ _______ _______ _____ _____    ______ ____
ROOT
ATOM      1  C   UNL     1      49.633   9.168  12.155  0.00  0.00    +0.000 C 
ATOM      2  F   UNL     1      50.254   9.971  13.082  0.00  0.00    +0.000 F 
ATOM      3  F   UNL     1      50.312   9.395  10.990  0.00  0.00    +0.000 F 
ENDROOT
BRANCH   1   4
ATOM      4  C   UNL     1      48.168   9.555  12.010  0.00  0.00    +0.000 A 
ATOM      5  C   UNL     1      47.733  10.737  11.399  0.00  0.00    +0.000 A 
ATOM      6  C   UNL     1      46.371  10.992  11.314  0.00  0.00    +0.000 A 
ATOM      7  N   UNL     1      45.415  10.160  11.777  0.00  0.00    +0.000 NA
ATOM      8  C   UNL     1      45.843   9.027  12.363  0.00  0.00    +0.000 A 
ATOM      9  C   UNL     1      47.182   8.686  12.508  0.00  0.00    +0.000 A 
BRANCH   8  10
ATOM     10  O   UNL     1      44.898   8.120  12.795  0.00  0.00    +0.000 OA
BRANCH  10  11
ATOM     11  C   UNL     1      45.141   6.737  12.428  0.00  0.00    +0.000 C 
ATOM     12  C   UNL     1      44.258   6.199  11.278  0.00  0.00    +0.000 C 
ATOM     13  N   UNL     1      44.052   4.901  12.008  0.00  0.00    +0.000 NA
ATOM     14  C   UNL     1      44.502   5.602  13.263  0.00  0.00    +0.000 C 
BRANCH  13  15
ATOM     15  S   UNL     1      44.720   3.465  11.433  0.00  0.00    +0.000 S 
ATOM     16  O   UNL     1      45.126   3.665  10.068  0.00  0.00    +0.000 OA
ATOM     17  O   UNL     1      45.590   2.931  12.451  0.00  0.00    +0.000 OA
BRANCH  15  18
ATOM     18  N   UNL     1      43.332   2.555  11.417  0.00  0.00    +0.000 NA
ATOM     19  H   UNL     1      42.689   2.839  12.150  0.00  0.00    +0.000 HD
ATOM     20  H   UNL     1      43.510   1.561  11.319  0.00  0.00    +0.000 HD
ENDBRANCH  15  18
ENDBRANCH  13  15
ENDBRANCH  10  11
ENDBRANCH   8  10
ENDBRANCH   1   4
BRANCH   1  21
ATOM     21  C   UNL     1      49.885   7.699  12.594  0.00  0.00    +0.000 C 
BRANCH  21  26
ATOM     22  C   UNL     1      48.057   5.361  16.586  0.00  0.00    +0.000 A 
ATOM     23  C   UNL     1      49.203   5.994  17.059  0.00  0.00    +0.000 A 
ATOM     24  C   UNL     1      49.980   6.742  16.173  0.00  0.00    +0.000 A 
ATOM     25  C   UNL     1      49.597   6.855  14.837  0.00  0.00    +0.000 A 
ATOM     26  N   UNL     1      50.429   7.569  13.962  0.00  0.00    +0.000 N 
ATOM     27  N   UNL     1      48.498   6.227  14.368  0.00  0.00    +0.000 NA
ATOM     28  C   UNL     1      47.759   5.491  15.240  0.00  0.00    +0.000 A 
ATOM     29  H   UNL     1      50.704   8.465  14.359  0.00  0.00    +0.000 HD
BRANCH  22  31
ATOM     30  N   UNL     1      46.766   5.110  18.624  0.00  0.00    +0.000 N 
ATOM     31  C   UNL     1      47.168   4.551  17.443  0.00  0.00    +0.000 C 
ATOM     32  O   UNL     1      46.773   3.448  17.092  0.00  0.00    +0.000 OA
ATOM     33  H   UNL     1      46.064   4.599  19.148  0.00  0.00    +0.000 HD
ATOM     34  H   UNL     1      46.859   6.097  18.812  0.00  0.00    +0.000 HD
ENDBRANCH  22  31
ENDBRANCH  21  26
ENDBRANCH   1  21
TORSDOF 8
ENDMDL
MODEL 9
REMARK VINA RESULT:    -6.577      3.263      4.753
REMARK INTER + INTRA:          -9.942
REMARK INTER:                  -9.484
REMARK INTRA:                  -0.457
REMARK UNBOUND:                -0.480
REMARK  Name = 
REMARK  8 active torsions:
REMARK  status: ('A' for Active; 'I' for Inactive)
REMARK    1  A    between atoms: C_2  and  C_4
REMARK    2  A    between atoms: N_8  and  C_9
REMARK    3  A    between atoms: C_9  and  C_10
REMARK    4  A    between atoms: C_10  and  C_13
REMARK    5  A    between atoms: C_17  and  O_18
REMARK    6  A    between atoms: O_18  and  C_19
REMARK    7  A    between atoms: N_21  and  S_22
REMARK    8  A    between atoms: S_22  and  N_23
REMARK                            x       y       z     vdW  Elec       q    Type
REMARK                         _______ _______ _______ _____ _____    ______ ____
ROOT
ATOM      1  C   UNL     1      48.065   8.761  12.597  0.00  0.00    +0.000 C 
ATOM      2  F   UNL     1      48.675   7.682  12.003  0.00  0.00    +0.000 F 
ATOM      3  F   UNL     1      48.139   9.758  11.664  0.00  0.00    +0.000 F 
ENDROOT
BRANCH   1   4
ATOM      4  C   UNL     1      48.802   9.158  13.869  0.00  0.00    +0.000 A 
ATOM      5  C   UNL     1      49.173  10.473  14.175  0.00  0.00    +0.000 A 
ATOM      6  C   UNL     1      49.838  10.727  15.366  0.00  0.00    +0.000 A 
ATOM      7  N   UNL     1      50.151   9.781  16.276  0.00  0.00    +0.000 NA
ATOM      8  C   UNL     1      49.791   8.520  15.972  0.00  0.00    +0.000 A 
ATOM      9  C   UNL     1      49.133   8.161  14.803  0.00  0.00    +0.000 A 
BRANCH   8  10
ATOM     10  O   UNL     1      50.036   7.532  16.903  0.00  0.00    +0.000 OA
BRANCH  10  11
ATOM     11  C   UNL     1      49.538   6.212  16.563  0.00  0.00    +0.000 C 
ATOM     12  C   UNL     1      48.182   5.838  17.204  0.00  0.00    +0.000 C 
ATOM     13  N   UNL     1      48.679   4.452  17.511  0.00  0.00    +0.000 NA
ATOM     14  C   UNL     1      50.078   4.974  17.318  0.00  0.00    +0.000 C 
BRANCH  13  15
ATOM     15  S   UNL     1      48.051   3.107  16.713  0.00  0.00    +0.000 S 
ATOM     16  O   UNL     1      47.528   3.533  15.443  0.00  0.00    +0.000 OA
ATOM     17  O   UNL     1      48.980   2.016  16.865  0.00  0.00    +0.000 OA
BRANCH  15  18
ATOM     18  N   UNL     1      46.761   2.825  17.719  0.00  0.00    +0.000 NA
ATOM     19  H   UNL     1      46.359   1.905  17.563  0.00  0.00    +0.000 HD
ATOM     20  H   UNL     1      46.116   3.606  17.767  0.00  0.00    +0.000 HD
ENDBRANCH  15  18
ENDBRANCH  13  15
ENDBRANCH  10  11
ENDBRANCH   8  10
ENDBRANCH   1   4
BRANCH   1  21
ATOM     21  C   UNL     1      46.572   8.379  12.794  0.00  0.00    +0.000 C 
BRANCH  21  26
ATOM     22  C   UNL     1      44.846   4.201  10.720  0.00  0.00    +0.000 A 
ATOM     23  C   UNL     1      45.020   3.867  12.060  0.00  0.00    +0.000 A 
ATOM     24  C   UNL     1      45.517   4.830  12.940  0.00  0.00    +0.000 A 
ATOM     25  C   UNL     1      45.821   6.108  12.473  0.00  0.00    +0.000 A 
ATOM     26  N   UNL     1      46.370   7.035  13.373  0.00  0.00    +0.000 N 
ATOM     27  N   UNL     1      45.674   6.432  11.171  0.00  0.00    +0.000 NA
ATOM     28  C   UNL     1      45.202   5.480  10.324  0.00  0.00    +0.000 A 
ATOM     29  H   UNL     1      45.847   7.060  14.245  0.00  0.00    +0.000 HD
BRANCH  22  31
ATOM     30  N   UNL     1      44.399   3.642   8.402  0.00  0.00    +0.000 N 
ATOM     31  C   UNL     1      44.323   3.257   9.712  0.00  0.00    +0.000 C 
ATOM     32  O   UNL     1      43.882   2.161  10.031  0.00  0.00    +0.000 OA
ATOM     33  H   UNL     1      44.150   2.942   7.712  0.00  0.00    +0.000 HD
ATOM     34  H   UNL     1      44.983   4.406   8.098  0.00  0.00    +0.000 HD
ENDBRANCH  22  31
ENDBRANCH  21  26
ENDBRANCH   1  21
TORSDOF 8
ENDMDL
