MODEL 1
REMARK VINA RESULT:    -7.431      0.000      0.000
REMARK INTER + INTRA:         -13.607
REMARK INTER:                 -11.993
REMARK INTRA:                  -1.614
REMARK UNBOUND:                -1.614
REMARK  Name = 
REMARK  12 active torsions:
REMARK  status: ('A' for Active; 'I' for Inactive)
REMARK    1  A    between atoms: C_1  and  O_2
REMARK    2  A    between atoms: O_2  and  C_3
REMARK    3  A    between atoms: C_3  and  C_4
REMARK    4  A    between atoms: C_3  and  C_21
REMARK    5  A    between atoms: C_4  and  N_5
REMARK    6  A    between atoms: N_5  and  C_6
REMARK    7  A    between atoms: C_6  and  C_7
REMARK    8  A    between atoms: C_10  and  C_11
REMARK    9  A    between atoms: C_11  and  O_12
REMARK   10  A    between atoms: C_11  and  C_13
REMARK   11  A    between atoms: C_13  and  C_14
REMARK   12  A    between atoms: C_21  and  C_23
REMARK                            x       y       z     vdW  Elec       q    Type
REMARK                         _______ _______ _______ _____ _____    ______ ____
ROOT
ATOM      1  N   UNL     1      49.675   6.676  14.701  0.00  0.00    +0.000 NA
ATOM      2  H   UNL     1      49.181   5.940  14.186  0.00  0.00    +0.000 HD
ENDROOT
BRANCH   1   3
ATOM      3  C   UNL     1      49.328   6.569  16.125  0.00  0.00    +0.000 C 
BRANCH   3   4
ATOM      4  C   UNL     1      48.277   5.475  16.441  0.00  0.00    +0.000 C 
BRANCH   4   6
ATOM      5  C   UNL     1      46.803   4.355  14.907  0.00  0.00    +0.000 C 
ATOM      6  O   UNL     1      48.141   4.692  15.246  0.00  0.00    +0.000 OA
ENDBRANCH   4   6
BRANCH   4   7
ATOM      7  C   UNL     1      48.759   4.644  17.651  0.00  0.00    +0.000 C 
ATOM      8  O   UNL     1      47.939   4.279  18.495  0.00  0.00    +0.000 OA
BRANCH   7   9
ATOM      9  C   UNL     1      50.203   4.405  17.856  0.00  0.00    +0.000 A 
ATOM     10  C   UNL     1      51.085   5.328  18.396  0.00  0.00    +0.000 A 
ATOM     11  S   UNL     1      52.631   4.682  18.733  0.00  0.00    +0.000 S 
ATOM     12  C   UNL     1      52.181   3.158  18.123  0.00  0.00    +0.000 A 
ATOM     13  N   UNL     1      53.040   2.100  18.186  0.00  0.00    +0.000 NA
ATOM     14  C   UNL     1      52.547   0.997  17.724  0.00  0.00    +0.000 A 
ATOM     15  N   UNL     1      51.301   0.866  17.172  0.00  0.00    +0.000 N 
ATOM     16  C   UNL     1      50.475   1.942  16.936  0.00  0.00    +0.000 A 
ATOM     17  O   UNL     1      49.537   1.847  16.154  0.00  0.00    +0.000 OA
ATOM     18  C   UNL     1      50.909   3.167  17.596  0.00  0.00    +0.000 A 
ATOM     19  H   UNL     1      51.024   0.004  16.726  0.00  0.00    +0.000 HD
ENDBRANCH   7   9
ENDBRANCH   4   7
ENDBRANCH   3   4
ENDBRANCH   1   3
BRANCH   1  20
ATOM     20  C   UNL     1      49.207   7.954  14.143  0.00  0.00    +0.000 C 
BRANCH  20  21
ATOM     21  C   UNL     1      47.949   7.736  13.332  0.00  0.00    +0.000 A 
ATOM     22  C   UNL     1      46.803   8.509  13.538  0.00  0.00    +0.000 A 
ATOM     23  C   UNL     1      45.618   8.219  12.851  0.00  0.00    +0.000 A 
ATOM     24  C   UNL     1      45.553   7.150  11.941  0.00  0.00    +0.000 A 
ATOM     25  C   UNL     1      46.721   6.415  11.702  0.00  0.00    +0.000 A 
ATOM     26  C   UNL     1      47.904   6.706  12.384  0.00  0.00    +0.000 A 
BRANCH  24  27
ATOM     27  C   UNL     1      44.208   6.753  11.354  0.00  0.00    +0.000 C 
BRANCH  27  28
ATOM     28  O   UNL     1      43.441   7.942  11.152  0.00  0.00    +0.000 OA
ATOM     29  H   UNL     1      42.507   7.714  11.312  0.00  0.00    +0.000 HD
ENDBRANCH  27  28
BRANCH  27  30
ATOM     30  C   UNL     1      43.379   5.792  12.219  0.00  0.00    +0.000 C 
BRANCH  30  31
ATOM     31  C   UNL     1      43.108   4.419  11.569  0.00  0.00    +0.000 C 
ATOM     32  C   UNL     1      43.687   3.301  12.434  0.00  0.00    +0.000 C 
ATOM     33  C   UNL     1      45.083   3.127  11.875  0.00  0.00    +0.000 C 
ATOM     34  N   UNL     1      44.890   3.239  10.427  0.00  0.00    +0.000 NA
ATOM     35  C   UNL     1      43.815   4.227  10.224  0.00  0.00    +0.000 C 
ATOM     36  H   UNL     1      44.560   2.337  10.079  0.00  0.00    +0.000 HD
ENDBRANCH  30  31
ENDBRANCH  27  30
ENDBRANCH  24  27
ENDBRANCH  20  21
ENDBRANCH   1  20
TORSDOF 11
ENDMDL
MODEL 2
REMARK VINA RESULT:    -7.400      2.378      3.297
REMARK INTER + INTRA:         -13.556
REMARK INTER:                 -12.422
REMARK INTRA:                  -1.134
REMARK UNBOUND:                -1.614
REMARK  Name = 
REMARK  12 active torsions:
REMARK  status: ('A' for Active; 'I' for Inactive)
REMARK    1  A    between atoms: C_1  and  O_2
REMARK    2  A    between atoms: O_2  and  C_3
REMARK    3  A    between atoms: C_3  and  C_4
REMARK    4  A    between atoms: C_3  and  C_21
REMARK    5  A    between atoms: C_4  and  N_5
REMARK    6  A    between atoms: N_5  and  C_6
REMARK    7  A    between atoms: C_6  and  C_7
REMARK    8  A    between atoms: C_10  and  C_11
REMARK    9  A    between atoms: C_11  and  O_12
REMARK   10  A    between atoms: C_11  and  C_13
REMARK   11  A    between atoms: C_13  and  C_14
REMARK   12  A    between atoms: C_21  and  C_23
REMARK                            x       y       z     vdW  Elec       q    Type
REMARK                         _______ _______ _______ _____ _____    ______ ____
ROOT
ATOM      1  N   UNL     1      47.900   4.797  14.782  0.00  0.00    +0.000 NA
ATOM      2  H   UNL     1      47.426   3.923  14.534  0.00  0.00    +0.000 HD
ENDROOT
BRANCH   1   3
ATOM      3  C   UNL     1      47.562   5.140  16.171  0.00  0.00    +0.000 C 
BRANCH   3   4
ATOM      4  C   UNL     1      48.771   5.608  17.019  0.00  0.00    +0.000 C 
BRANCH   4   6
ATOM      5  C   UNL     1      48.695   8.007  17.172  0.00  0.00    +0.000 C 
ATOM      6  O   UNL     1      48.328   6.762  17.749  0.00  0.00    +0.000 OA
ENDBRANCH   4   6
BRANCH   4   7
ATOM      7  C   UNL     1      49.222   4.452  17.941  0.00  0.00    +0.000 C 
ATOM      8  O   UNL     1      48.377   3.843  18.600  0.00  0.00    +0.000 OA
BRANCH   7   9
ATOM      9  C   UNL     1      50.661   4.171  18.124  0.00  0.00    +0.000 A 
ATOM     10  C   UNL     1      51.561   5.035  18.730  0.00  0.00    +0.000 A 
ATOM     11  S   UNL     1      53.095   4.335  19.014  0.00  0.00    +0.000 S 
ATOM     12  C   UNL     1      52.615   2.870  18.293  0.00  0.00    +0.000 A 
ATOM     13  N   UNL     1      53.453   1.794  18.275  0.00  0.00    +0.000 NA
ATOM     14  C   UNL     1      52.939   0.738  17.733  0.00  0.00    +0.000 A 
ATOM     15  N   UNL     1      51.691   0.673  17.176  0.00  0.00    +0.000 N 
ATOM     16  C   UNL     1      50.885   1.779  17.023  0.00  0.00    +0.000 A 
ATOM     17  O   UNL     1      49.945   1.760  16.237  0.00  0.00    +0.000 OA
ATOM     18  C   UNL     1      51.343   2.943  17.771  0.00  0.00    +0.000 A 
ATOM     19  H   UNL     1      51.397  -0.148  16.667  0.00  0.00    +0.000 HD
ENDBRANCH   7   9
ENDBRANCH   4   7
ENDBRANCH   3   4
ENDBRANCH   1   3
BRANCH   1  20
ATOM     20  C   UNL     1      47.394   5.819  13.853  0.00  0.00    +0.000 C 
BRANCH  20  21
ATOM     21  C   UNL     1      46.431   5.194  12.870  0.00  0.00    +0.000 A 
ATOM     22  C   UNL     1      45.973   3.883  13.028  0.00  0.00    +0.000 A 
ATOM     23  C   UNL     1      45.167   3.290  12.049  0.00  0.00    +0.000 A 
ATOM     24  C   UNL     1      44.799   3.995  10.890  0.00  0.00    +0.000 A 
ATOM     25  C   UNL     1      45.219   5.326  10.766  0.00  0.00    +0.000 A 
ATOM     26  C   UNL     1      46.020   5.919  11.744  0.00  0.00    +0.000 A 
BRANCH  24  27
ATOM     27  C   UNL     1      44.079   3.261   9.769  0.00  0.00    +0.000 C 
BRANCH  27  28
ATOM     28  O   UNL     1      44.026   1.873  10.106  0.00  0.00    +0.000 OA
ATOM     29  H   UNL     1      44.938   1.587  10.293  0.00  0.00    +0.000 HD
ENDBRANCH  27  28
BRANCH  27  30
ATOM     30  C   UNL     1      44.731   3.391   8.384  0.00  0.00    +0.000 C 
BRANCH  30  31
ATOM     31  C   UNL     1      46.213   2.962   8.333  0.00  0.00    +0.000 C 
ATOM     32  C   UNL     1      46.942   3.712   7.220  0.00  0.00    +0.000 C 
ATOM     33  C   UNL     1      46.786   2.789   6.030  0.00  0.00    +0.000 C 
ATOM     34  N   UNL     1      46.986   1.455   6.601  0.00  0.00    +0.000 NA
ATOM     35  C   UNL     1      46.413   1.491   7.959  0.00  0.00    +0.000 C 
ATOM     36  H   UNL     1      47.990   1.293   6.686  0.00  0.00    +0.000 HD
ENDBRANCH  30  31
ENDBRANCH  27  30
ENDBRANCH  24  27
ENDBRANCH  20  21
ENDBRANCH   1  20
TORSDOF 11
ENDMDL
MODEL 3
REMARK VINA RESULT:    -7.260      2.938      4.263
REMARK INTER + INTRA:         -13.330
REMARK INTER:                 -11.576
REMARK INTRA:                  -1.753
REMARK UNBOUND:                -1.614
REMARK  Name = 
REMARK  12 active torsions:
REMARK  status: ('A' for Active; 'I' for Inactive)
REMARK    1  A    between atoms: C_1  and  O_2
REMARK    2  A    between atoms: O_2  and  C_3
REMARK    3  A    between atoms: C_3  and  C_4
REMARK    4  A    between atoms: C_3  and  C_21
REMARK    5  A    between atoms: C_4  and  N_5
REMARK    6  A    between atoms: N_5  and  C_6
REMARK    7  A    between atoms: C_6  and  C_7
REMARK    8  A    between atoms: C_10  and  C_11
REMARK    9  A    between atoms: C_11  and  O_12
REMARK   10  A    between atoms: C_11  and  C_13
REMARK   11  A    between atoms: C_13  and  C_14
REMARK   12  A    between atoms: C_21  and  C_23
REMARK                            x       y       z     vdW  Elec       q    Type
REMARK                         _______ _______ _______ _____ _____    ______ ____
ROOT
ATOM      1  N   UNL     1      46.742   7.346  13.651  0.00  0.00    +0.000 NA
ATOM      2  H   UNL     1      46.544   7.771  14.562  0.00  0.00    +0.000 HD
ENDROOT
BRANCH   1   3
ATOM      3  C   UNL     1      48.023   7.867  13.155  0.00  0.00    +0.000 C 
BRANCH   3   4
ATOM      4  C   UNL     1      49.259   7.360  13.939  0.00  0.00    +0.000 C 
BRANCH   4   6
ATOM      5  C   UNL     1      50.687   8.221  12.208  0.00  0.00    +0.000 C 
ATOM      6  O   UNL     1      50.345   8.230  13.586  0.00  0.00    +0.000 OA
ENDBRANCH   4   6
BRANCH   4   7
ATOM      7  C   UNL     1      48.943   7.380  15.452  0.00  0.00    +0.000 C 
ATOM      8  O   UNL     1      48.423   8.382  15.945  0.00  0.00    +0.000 OA
BRANCH   7   9
ATOM      9  C   UNL     1      49.378   6.261  16.313  0.00  0.00    +0.000 A 
ATOM     10  C   UNL     1      50.535   6.261  17.079  0.00  0.00    +0.000 A 
ATOM     11  S   UNL     1      50.645   4.935  18.151  0.00  0.00    +0.000 S 
ATOM     12  C   UNL     1      49.170   4.296  17.592  0.00  0.00    +0.000 A 
ATOM     13  N   UNL     1      48.633   3.179  18.161  0.00  0.00    +0.000 NA
ATOM     14  C   UNL     1      47.490   2.835  17.663  0.00  0.00    +0.000 A 
ATOM     15  N   UNL     1      46.863   3.474  16.628  0.00  0.00    +0.000 N 
ATOM     16  C   UNL     1      47.452   4.496  15.918  0.00  0.00    +0.000 A 
ATOM     17  O   UNL     1      47.025   4.813  14.814  0.00  0.00    +0.000 OA
ATOM     18  C   UNL     1      48.651   5.032  16.550  0.00  0.00    +0.000 A 
ATOM     19  H   UNL     1      46.030   3.084  16.211  0.00  0.00    +0.000 HD
ENDBRANCH   7   9
ENDBRANCH   4   7
ENDBRANCH   3   4
ENDBRANCH   1   3
BRANCH   1  20
ATOM     20  C   UNL     1      45.638   7.742  12.763  0.00  0.00    +0.000 C 
BRANCH  20  21
ATOM     21  C   UNL     1      45.231   6.576  11.890  0.00  0.00    +0.000 A 
ATOM     22  C   UNL     1      44.207   5.703  12.267  0.00  0.00    +0.000 A 
ATOM     23  C   UNL     1      43.921   4.569  11.496  0.00  0.00    +0.000 A 
ATOM     24  C   UNL     1      44.651   4.285  10.329  0.00  0.00    +0.000 A 
ATOM     25  C   UNL     1      45.639   5.195   9.931  0.00  0.00    +0.000 A 
ATOM     26  C   UNL     1      45.922   6.327  10.698  0.00  0.00    +0.000 A 
BRANCH  24  27
ATOM     27  C   UNL     1      44.435   2.957   9.621  0.00  0.00    +0.000 C 
BRANCH  27  28
ATOM     28  O   UNL     1      43.808   2.059  10.539  0.00  0.00    +0.000 OA
ATOM     29  H   UNL     1      44.514   1.650  11.072  0.00  0.00    +0.000 HD
ENDBRANCH  27  28
BRANCH  27  30
ATOM     30  C   UNL     1      45.713   2.286   9.095  0.00  0.00    +0.000 C 
BRANCH  30  31
ATOM     31  C   UNL     1      45.758   2.113   7.563  0.00  0.00    +0.000 C 
ATOM     32  C   UNL     1      46.879   1.151   7.173  0.00  0.00    +0.000 C 
ATOM     33  C   UNL     1      48.059   2.074   6.957  0.00  0.00    +0.000 C 
ATOM     34  N   UNL     1      47.474   3.223   6.261  0.00  0.00    +0.000 NA
ATOM     35  C   UNL     1      46.117   3.397   6.810  0.00  0.00    +0.000 C 
ATOM     36  H   UNL     1      47.387   2.985   5.272  0.00  0.00    +0.000 HD
ENDBRANCH  30  31
ENDBRANCH  27  30
ENDBRANCH  24  27
ENDBRANCH  20  21
ENDBRANCH   1  20
TORSDOF 11
ENDMDL
MODEL 4
REMARK VINA RESULT:    -6.499      2.234      3.267
REMARK INTER + INTRA:         -12.101
REMARK INTER:                  -9.735
REMARK INTRA:                  -2.367
REMARK UNBOUND:                -1.614
REMARK  Name = 
REMARK  12 active torsions:
REMARK  status: ('A' for Active; 'I' for Inactive)
REMARK    1  A    between atoms: C_1  and  O_2
REMARK    2  A    between atoms: O_2  and  C_3
REMARK    3  A    between atoms: C_3  and  C_4
REMARK    4  A    between atoms: C_3  and  C_21
REMARK    5  A    between atoms: C_4  and  N_5
REMARK    6  A    between atoms: N_5  and  C_6
REMARK    7  A    between atoms: C_6  and  C_7
REMARK    8  A    between atoms: C_10  and  C_11
REMARK    9  A    between atoms: C_11  and  O_12
REMARK   10  A    between atoms: C_11  and  C_13
REMARK   11  A    between atoms: C_13  and  C_14
REMARK   12  A    between atoms: C_21  and  C_23
REMARK                            x       y       z     vdW  Elec       q    Type
REMARK                         _______ _______ _______ _____ _____    ______ ____
ROOT
ATOM      1  N   UNL     1      49.811   8.012  14.237  0.00  0.00    +0.000 NA
ATOM      2  H   UNL     1      49.025   7.673  14.801  0.00  0.00    +0.000 HD
ENDROOT
BRANCH   1   3
ATOM      3  C   UNL     1      50.593   8.963  15.039  0.00  0.00    +0.000 C 
BRANCH   3   4
ATOM      4  C   UNL     1      50.644   8.624  16.551  0.00  0.00    +0.000 C 
BRANCH   4   6
ATOM      5  C   UNL     1      50.630  11.025  16.428  0.00  0.00    +0.000 C 
ATOM      6  O   UNL     1      50.817   9.873  17.237  0.00  0.00    +0.000 OA
ENDBRANCH   4   6
BRANCH   4   7
ATOM      7  C   UNL     1      49.341   7.896  16.951  0.00  0.00    +0.000 C 
ATOM      8  O   UNL     1      48.256   8.436  16.729  0.00  0.00    +0.000 OA
BRANCH   7   9
ATOM      9  C   UNL     1      49.405   6.627  17.707  0.00  0.00    +0.000 A 
ATOM     10  C   UNL     1      50.081   6.459  18.906  0.00  0.00    +0.000 A 
ATOM     11  S   UNL     1      49.774   4.956  19.659  0.00  0.00    +0.000 S 
ATOM     12  C   UNL     1      48.762   4.466  18.381  0.00  0.00    +0.000 A 
ATOM     13  N   UNL     1      48.096   3.277  18.434  0.00  0.00    +0.000 NA
ATOM     14  C   UNL     1      47.333   3.057  17.414  0.00  0.00    +0.000 A 
ATOM     15  N   UNL     1      47.208   3.891  16.335  0.00  0.00    +0.000 N 
ATOM     16  C   UNL     1      47.990   5.012  16.167  0.00  0.00    +0.000 A 
ATOM     17  O   UNL     1      48.095   5.537  15.065  0.00  0.00    +0.000 OA
ATOM     18  C   UNL     1      48.730   5.393  17.363  0.00  0.00    +0.000 A 
ATOM     19  H   UNL     1      46.685   3.604  15.521  0.00  0.00    +0.000 HD
ENDBRANCH   7   9
ENDBRANCH   4   7
ENDBRANCH   3   4
ENDBRANCH   1   3
BRANCH   1  20
ATOM     20  C   UNL     1      49.220   8.678  13.066  0.00  0.00    +0.000 C 
BRANCH  20  21
ATOM     21  C   UNL     1      47.900   8.031  12.713  0.00  0.00    +0.000 A 
ATOM     22  C   UNL     1      47.824   6.980  11.794  0.00  0.00    +0.000 A 
ATOM     23  C   UNL     1      46.580   6.469  11.402  0.00  0.00    +0.000 A 
ATOM     24  C   UNL     1      45.385   6.995  11.921  0.00  0.00    +0.000 A 
ATOM     25  C   UNL     1      45.474   8.012  12.881  0.00  0.00    +0.000 A 
ATOM     26  C   UNL     1      46.714   8.519  13.275  0.00  0.00    +0.000 A 
BRANCH  24  27
ATOM     27  C   UNL     1      44.056   6.541  11.339  0.00  0.00    +0.000 C 
BRANCH  27  28
ATOM     28  O   UNL     1      43.273   7.703  11.057  0.00  0.00    +0.000 OA
ATOM     29  H   UNL     1      42.840   7.968  11.888  0.00  0.00    +0.000 HD
ENDBRANCH  27  28
BRANCH  27  30
ATOM     30  C   UNL     1      43.230   5.618  12.247  0.00  0.00    +0.000 C 
BRANCH  30  31
ATOM     31  C   UNL     1      43.104   4.167  11.737  0.00  0.00    +0.000 C 
ATOM     32  C   UNL     1      43.746   3.200  12.731  0.00  0.00    +0.000 C 
ATOM     33  C   UNL     1      45.171   3.097  12.231  0.00  0.00    +0.000 C 
ATOM     34  N   UNL     1      45.022   3.043  10.774  0.00  0.00    +0.000 NA
ATOM     35  C   UNL     1      43.873   3.903  10.440  0.00  0.00    +0.000 C 
ATOM     36  H   UNL     1      44.785   2.084  10.515  0.00  0.00    +0.000 HD
ENDBRANCH  30  31
ENDBRANCH  27  30
ENDBRANCH  24  27
ENDBRANCH  20  21
ENDBRANCH   1  20
TORSDOF 11
ENDMDL
MODEL 5
REMARK VINA RESULT:    -6.419      2.467      3.401
REMARK INTER + INTRA:         -11.973
REMARK INTER:                 -10.611
REMARK INTRA:                  -1.361
REMARK UNBOUND:                -1.614
REMARK  Name = 
REMARK  12 active torsions:
REMARK  status: ('A' for Active; 'I' for Inactive)
REMARK    1  A    between atoms: C_1  and  O_2
REMARK    2  A    between atoms: O_2  and  C_3
REMARK    3  A    between atoms: C_3  and  C_4
REMARK    4  A    between atoms: C_3  and  C_21
REMARK    5  A    between atoms: C_4  and  N_5
REMARK    6  A    between atoms: N_5  and  C_6
REMARK    7  A    between atoms: C_6  and  C_7
REMARK    8  A    between atoms: C_10  and  C_11
REMARK    9  A    between atoms: C_11  and  O_12
REMARK   10  A    between atoms: C_11  and  C_13
REMARK   11  A    between atoms: C_13  and  C_14
REMARK   12  A    between atoms: C_21  and  C_23
REMARK                            x       y       z     vdW  Elec       q    Type
REMARK                         _______ _______ _______ _____ _____    ______ ____
ROOT
ATOM      1  N   UNL     1      48.227   7.112  14.146  0.00  0.00    +0.000 NA
ATOM      2  H   UNL     1      47.785   6.278  14.544  0.00  0.00    +0.000 HD
ENDROOT
BRANCH   1   3
ATOM      3  C   UNL     1      48.707   7.961  15.245  0.00  0.00    +0.000 C 
BRANCH   3   4
ATOM      4  C   UNL     1      49.791   7.297  16.131  0.00  0.00    +0.000 C 
BRANCH   4   6
ATOM      5  C   UNL     1      50.429   9.609  15.961  0.00  0.00    +0.000 C 
ATOM      6  O   UNL     1      50.626   8.361  16.611  0.00  0.00    +0.000 OA
ENDBRANCH   4   6
BRANCH   4   7
ATOM      7  C   UNL     1      49.104   6.513  17.271  0.00  0.00    +0.000 C 
ATOM      8  O   UNL     1      48.837   7.093  18.325  0.00  0.00    +0.000 OA
BRANCH   7   9
ATOM      9  C   UNL     1      48.888   5.057  17.143  0.00  0.00    +0.000 A 
ATOM     10  C   UNL     1      47.744   4.473  16.620  0.00  0.00    +0.000 A 
ATOM     11  S   UNL     1      47.886   2.787  16.376  0.00  0.00    +0.000 S 
ATOM     12  C   UNL     1      49.467   2.779  17.005  0.00  0.00    +0.000 A 
ATOM     13  N   UNL     1      50.209   1.635  17.013  0.00  0.00    +0.000 NA
ATOM     14  C   UNL     1      51.405   1.789  17.481  0.00  0.00    +0.000 A 
ATOM     15  N   UNL     1      51.907   2.962  17.976  0.00  0.00    +0.000 N 
ATOM     16  C   UNL     1      51.136   4.091  18.142  0.00  0.00    +0.000 A 
ATOM     17  O   UNL     1      51.507   4.995  18.881  0.00  0.00    +0.000 OA
ATOM     18  C   UNL     1      49.845   4.020  17.471  0.00  0.00    +0.000 A 
ATOM     19  H   UNL     1      52.808   2.985  18.432  0.00  0.00    +0.000 HD
ENDBRANCH   7   9
ENDBRANCH   4   7
ENDBRANCH   3   4
ENDBRANCH   1   3
BRANCH   1  20
ATOM     20  C   UNL     1      47.184   7.802  13.370  0.00  0.00    +0.000 C 
BRANCH  20  21
ATOM     21  C   UNL     1      46.233   6.792  12.769  0.00  0.00    +0.000 A 
ATOM     22  C   UNL     1      46.148   5.486  13.259  0.00  0.00    +0.000 A 
ATOM     23  C   UNL     1      45.339   4.539  12.618  0.00  0.00    +0.000 A 
ATOM     24  C   UNL     1      44.597   4.877  11.474  0.00  0.00    +0.000 A 
ATOM     25  C   UNL     1      44.648   6.202  11.022  0.00  0.00    +0.000 A 
ATOM     26  C   UNL     1      45.451   7.147  11.663  0.00  0.00    +0.000 A 
BRANCH  24  27
ATOM     27  C   UNL     1      43.878   3.781  10.703  0.00  0.00    +0.000 C 
BRANCH  27  28
ATOM     28  O   UNL     1      42.901   3.196  11.566  0.00  0.00    +0.000 OA
ATOM     29  H   UNL     1      42.149   3.814  11.612  0.00  0.00    +0.000 HD
ENDBRANCH  27  28
BRANCH  27  30
ATOM     30  C   UNL     1      44.782   2.657  10.175  0.00  0.00    +0.000 C 
BRANCH  30  31
ATOM     31  C   UNL     1      44.721   2.454   8.646  0.00  0.00    +0.000 C 
ATOM     32  C   UNL     1      45.974   1.729   8.159  0.00  0.00    +0.000 C 
ATOM     33  C   UNL     1      46.915   2.866   7.822  0.00  0.00    +0.000 C 
ATOM     34  N   UNL     1      46.045   3.852   7.176  0.00  0.00    +0.000 NA
ATOM     35  C   UNL     1      44.737   3.762   7.851  0.00  0.00    +0.000 C 
ATOM     36  H   UNL     1      45.917   3.573   6.202  0.00  0.00    +0.000 HD
ENDBRANCH  30  31
ENDBRANCH  27  30
ENDBRANCH  24  27
ENDBRANCH  20  21
ENDBRANCH   1  20
TORSDOF 11
ENDMDL
MODEL 6
REMARK VINA RESULT:    -6.390      2.678      3.596
REMARK INTER + INTRA:         -11.926
REMARK INTER:                 -10.513
REMARK INTRA:                  -1.413
REMARK UNBOUND:                -1.614
REMARK  Name = 
REMARK  12 active torsions:
REMARK  status: ('A' for Active; 'I' for Inactive)
REMARK    1  A    between atoms: C_1  and  O_2
REMARK    2  A    between atoms: O_2  and  C_3
REMARK    3  A    between atoms: C_3  and  C_4
REMARK    4  A    between atoms: C_3  and  C_21
REMARK    5  A    between atoms: C_4  and  N_5
REMARK    6  A    between atoms: N_5  and  C_6
REMARK    7  A    between atoms: C_6  and  C_7
REMARK    8  A    between atoms: C_10  and  C_11
REMARK    9  A    between atoms: C_11  and  O_12
REMARK   10  A    between atoms: C_11  and  C_13
REMARK   11  A    between atoms: C_13  and  C_14
REMARK   12  A    between atoms: C_21  and  C_23
REMARK                            x       y       z     vdW  Elec       q    Type
REMARK                         _______ _______ _______ _____ _____    ______ ____
ROOT
ATOM      1  N   UNL     1      50.062   6.976  14.430  0.00  0.00    +0.000 NA
ATOM      2  H   UNL     1      49.738   6.013  14.566  0.00  0.00    +0.000 HD
ENDROOT
BRANCH   1   3
ATOM      3  C   UNL     1      50.514   7.509  15.723  0.00  0.00    +0.000 C 
BRANCH   3   4
ATOM      4  C   UNL     1      51.792   6.831  16.275  0.00  0.00    +0.000 C 
BRANCH   4   6
ATOM      5  C   UNL     1      53.043   8.524  15.114  0.00  0.00    +0.000 C 
ATOM      6  O   UNL     1      52.795   7.856  16.342  0.00  0.00    +0.000 OA
ENDBRANCH   4   6
BRANCH   4   7
ATOM      7  C   UNL     1      51.479   6.207  17.654  0.00  0.00    +0.000 C 
ATOM      8  O   UNL     1      52.401   5.745  18.329  0.00  0.00    +0.000 OA
BRANCH   7   9
ATOM      9  C   UNL     1      50.077   6.052  18.095  0.00  0.00    +0.000 A 
ATOM     10  C   UNL     1      49.372   6.998  18.824  0.00  0.00    +0.000 A 
ATOM     11  S   UNL     1      47.707   6.643  18.974  0.00  0.00    +0.000 S 
ATOM     12  C   UNL     1      47.887   5.190  18.106  0.00  0.00    +0.000 A 
ATOM     13  N   UNL     1      46.804   4.418  17.805  0.00  0.00    +0.000 NA
ATOM     14  C   UNL     1      47.087   3.367  17.106  0.00  0.00    +0.000 A 
ATOM     15  N   UNL     1      48.348   2.999  16.722  0.00  0.00    +0.000 N 
ATOM     16  C   UNL     1      49.479   3.657  17.151  0.00  0.00    +0.000 A 
ATOM     17  O   UNL     1      50.577   3.121  17.073  0.00  0.00    +0.000 OA
ATOM     18  C   UNL     1      49.203   4.939  17.786  0.00  0.00    +0.000 A 
ATOM     19  H   UNL     1      48.511   2.107  16.279  0.00  0.00    +0.000 HD
ENDBRANCH   7   9
ENDBRANCH   4   7
ENDBRANCH   3   4
ENDBRANCH   1   3
BRANCH   1  20
ATOM     20  C   UNL     1      48.904   7.733  13.928  0.00  0.00    +0.000 C 
BRANCH  20  21
ATOM     21  C   UNL     1      47.870   6.785  13.364  0.00  0.00    +0.000 A 
ATOM     22  C   UNL     1      47.211   7.054  12.161  0.00  0.00    +0.000 A 
ATOM     23  C   UNL     1      46.181   6.217  11.714  0.00  0.00    +0.000 A 
ATOM     24  C   UNL     1      45.790   5.091  12.457  0.00  0.00    +0.000 A 
ATOM     25  C   UNL     1      46.492   4.800  13.634  0.00  0.00    +0.000 A 
ATOM     26  C   UNL     1      47.521   5.632  14.079  0.00  0.00    +0.000 A 
BRANCH  24  27
ATOM     27  C   UNL     1      44.553   4.313  12.035  0.00  0.00    +0.000 C 
BRANCH  27  28
ATOM     28  O   UNL     1      43.849   3.919  13.215  0.00  0.00    +0.000 OA
ATOM     29  H   UNL     1      43.350   4.696  13.526  0.00  0.00    +0.000 HD
ENDBRANCH  27  28
BRANCH  27  30
ATOM     30  C   UNL     1      44.832   3.052  11.203  0.00  0.00    +0.000 C 
BRANCH  30  31
ATOM     31  C   UNL     1      44.250   3.089   9.774  0.00  0.00    +0.000 C 
ATOM     32  C   UNL     1      44.621   1.814   9.019  0.00  0.00    +0.000 C 
ATOM     33  C   UNL     1      45.922   2.187   8.341  0.00  0.00    +0.000 C 
ATOM     34  N   UNL     1      45.690   3.560   7.883  0.00  0.00    +0.000 NA
ATOM     35  C   UNL     1      44.837   4.201   8.900  0.00  0.00    +0.000 C 
ATOM     36  H   UNL     1      45.163   3.518   7.009  0.00  0.00    +0.000 HD
ENDBRANCH  30  31
ENDBRANCH  27  30
ENDBRANCH  24  27
ENDBRANCH  20  21
ENDBRANCH   1  20
TORSDOF 11
ENDMDL
MODEL 7
REMARK VINA RESULT:    -6.119      3.334      4.501
REMARK INTER + INTRA:         -11.489
REMARK INTER:                  -9.840
REMARK INTRA:                  -1.649
REMARK UNBOUND:                -1.614
REMARK  Name = 
REMARK  12 active torsions:
REMARK  status: ('A' for Active; 'I' for Inactive)
REMARK    1  A    between atoms: C_1  and  O_2
REMARK    2  A    between atoms: O_2  and  C_3
REMARK    3  A    between atoms: C_3  and  C_4
REMARK    4  A    between atoms: C_3  and  C_21
REMARK    5  A    between atoms: C_4  and  N_5
REMARK    6  A    between atoms: N_5  and  C_6
REMARK    7  A    between atoms: C_6  and  C_7
REMARK    8  A    between atoms: C_10  and  C_11
REMARK    9  A    between atoms: C_11  and  O_12
REMARK   10  A    between atoms: C_11  and  C_13
REMARK   11  A    between atoms: C_13  and  C_14
REMARK   12  A    between atoms: C_21  and  C_23
REMARK                            x       y       z     vdW  Elec       q    Type
REMARK                         _______ _______ _______ _____ _____    ______ ____
ROOT
ATOM      1  N   UNL     1      47.324   8.562  14.263  0.00  0.00    +0.000 NA
ATOM      2  H   UNL     1      47.632   9.442  14.690  0.00  0.00    +0.000 HD
ENDROOT
BRANCH   1   3
ATOM      3  C   UNL     1      48.405   7.574  14.386  0.00  0.00    +0.000 C 
BRANCH   3   4
ATOM      4  C   UNL     1      48.048   6.352  15.269  0.00  0.00    +0.000 C 
BRANCH   4   6
ATOM      5  C   UNL     1      46.859   4.522  14.260  0.00  0.00    +0.000 C 
ATOM      6  O   UNL     1      48.095   5.205  14.407  0.00  0.00    +0.000 OA
ENDBRANCH   4   6
BRANCH   4   7
ATOM      7  C   UNL     1      49.051   6.263  16.441  0.00  0.00    +0.000 C 
ATOM      8  O   UNL     1      50.245   6.079  16.199  0.00  0.00    +0.000 OA
BRANCH   7   9
ATOM      9  C   UNL     1      48.562   6.269  17.836  0.00  0.00    +0.000 A 
ATOM     10  C   UNL     1      48.393   5.135  18.616  0.00  0.00    +0.000 A 
ATOM     11  S   UNL     1      48.049   5.478  20.255  0.00  0.00    +0.000 S 
ATOM     12  C   UNL     1      48.070   7.154  19.961  0.00  0.00    +0.000 A 
ATOM     13  N   UNL     1      47.918   8.044  20.983  0.00  0.00    +0.000 NA
ATOM     14  C   UNL     1      47.998   9.282  20.617  0.00  0.00    +0.000 A 
ATOM     15  N   UNL     1      48.172   9.707  19.327  0.00  0.00    +0.000 N 
ATOM     16  C   UNL     1      48.158   8.847  18.251  0.00  0.00    +0.000 A 
ATOM     17  O   UNL     1      47.979   9.274  17.117  0.00  0.00    +0.000 OA
ATOM     18  C   UNL     1      48.249   7.442  18.625  0.00  0.00    +0.000 A 
ATOM     19  H   UNL     1      48.109  10.688  19.096  0.00  0.00    +0.000 HD
ENDBRANCH   7   9
ENDBRANCH   4   7
ENDBRANCH   3   4
ENDBRANCH   1   3
BRANCH   1  20
ATOM     20  C   UNL     1      47.050   8.864  12.850  0.00  0.00    +0.000 C 
BRANCH  20  21
ATOM     21  C   UNL     1      46.213   7.763  12.238  0.00  0.00    +0.000 A 
ATOM     22  C   UNL     1      44.877   7.573  12.602  0.00  0.00    +0.000 A 
ATOM     23  C   UNL     1      44.154   6.482  12.104  0.00  0.00    +0.000 A 
ATOM     24  C   UNL     1      44.749   5.559  11.228  0.00  0.00    +0.000 A 
ATOM     25  C   UNL     1      46.072   5.788  10.827  0.00  0.00    +0.000 A 
ATOM     26  C   UNL     1      46.792   6.877  11.322  0.00  0.00    +0.000 A 
BRANCH  24  27
ATOM     27  C   UNL     1      43.994   4.293  10.853  0.00  0.00    +0.000 C 
BRANCH  27  28
ATOM     28  O   UNL     1      43.296   3.831  12.012  0.00  0.00    +0.000 OA
ATOM     29  H   UNL     1      42.768   3.058  11.742  0.00  0.00    +0.000 HD
ENDBRANCH  27  28
BRANCH  27  30
ATOM     30  C   UNL     1      44.870   3.144  10.333  0.00  0.00    +0.000 C 
BRANCH  30  31
ATOM     31  C   UNL     1      44.511   2.661   8.912  0.00  0.00    +0.000 C 
ATOM     32  C   UNL     1      45.222   1.343   8.607  0.00  0.00    +0.000 C 
ATOM     33  C   UNL     1      46.517   1.796   7.967  0.00  0.00    +0.000 C 
ATOM     34  N   UNL     1      46.104   2.905   7.103  0.00  0.00    +0.000 NA
ATOM     35  C   UNL     1      45.005   3.594   7.803  0.00  0.00    +0.000 C 
ATOM     36  H   UNL     1      45.730   2.512   6.238  0.00  0.00    +0.000 HD
ENDBRANCH  30  31
ENDBRANCH  27  30
ENDBRANCH  24  27
ENDBRANCH  20  21
ENDBRANCH   1  20
TORSDOF 11
ENDMDL
MODEL 8
REMARK VINA RESULT:    -5.983      3.726      5.934
REMARK INTER + INTRA:         -11.269
REMARK INTER:                 -10.195
REMARK INTRA:                  -1.074
REMARK UNBOUND:                -1.614
REMARK  Name = 
REMARK  12 active torsions:
REMARK  status: ('A' for Active; 'I' for Inactive)
REMARK    1  A    between atoms: C_1  and  O_2
REMARK    2  A    between atoms: O_2  and  C_3
REMARK    3  A    between atoms: C_3  and  C_4
REMARK    4  A    between atoms: C_3  and  C_21
REMARK    5  A    between atoms: C_4  and  N_5
REMARK    6  A    between atoms: N_5  and  C_6
REMARK    7  A    between atoms: C_6  and  C_7
REMARK    8  A    between atoms: C_10  and  C_11
REMARK    9  A    between atoms: C_11  and  O_12
REMARK   10  A    between atoms: C_11  and  C_13
REMARK   11  A    between atoms: C_13  and  C_14
REMARK   12  A    between atoms: C_21  and  C_23
REMARK                            x       y       z     vdW  Elec       q    Type
REMARK                         _______ _______ _______ _____ _____    ______ ____
ROOT
ATOM      1  N   UNL     1      46.060   6.772  13.273  0.00  0.00    +0.000 NA
ATOM      2  H   UNL     1      46.085   7.619  13.849  0.00  0.00    +0.000 HD
ENDROOT
BRANCH   1   3
ATOM      3  C   UNL     1      46.680   7.066  11.973  0.00  0.00    +0.000 C 
BRANCH   3   4
ATOM      4  C   UNL     1      47.424   8.424  11.920  0.00  0.00    +0.000 C 
BRANCH   4   6
ATOM      5  C   UNL     1      45.652  10.039  12.097  0.00  0.00    +0.000 C 
ATOM      6  O   UNL     1      46.683   9.322  12.760  0.00  0.00    +0.000 OA
ENDBRANCH   4   6
BRANCH   4   7
ATOM      7  C   UNL     1      48.881   8.223  12.395  0.00  0.00    +0.000 C 
ATOM      8  O   UNL     1      49.618   7.459  11.770  0.00  0.00    +0.000 OA
BRANCH   7   9
ATOM      9  C   UNL     1      49.339   8.841  13.657  0.00  0.00    +0.000 A 
ATOM     10  C   UNL     1      49.931  10.091  13.752  0.00  0.00    +0.000 A 
ATOM     11  S   UNL     1      50.130  10.634  15.361  0.00  0.00    +0.000 S 
ATOM     12  C   UNL     1      49.471   9.192  15.981  0.00  0.00    +0.000 A 
ATOM     13  N   UNL     1      49.279   9.032  17.321  0.00  0.00    +0.000 NA
ATOM     14  C   UNL     1      48.732   7.905  17.642  0.00  0.00    +0.000 A 
ATOM     15  N   UNL     1      48.402   6.915  16.756  0.00  0.00    +0.000 N 
ATOM     16  C   UNL     1      48.735   6.969  15.421  0.00  0.00    +0.000 A 
ATOM     17  O   UNL     1      48.732   5.952  14.738  0.00  0.00    +0.000 OA
ATOM     18  C   UNL     1      49.188   8.283  14.985  0.00  0.00    +0.000 A 
ATOM     19  H   UNL     1      48.086   6.014  17.086  0.00  0.00    +0.000 HD
ENDBRANCH   7   9
ENDBRANCH   4   7
ENDBRANCH   3   4
ENDBRANCH   1   3
BRANCH   1  20
ATOM     20  C   UNL     1      44.639   6.429  13.107  0.00  0.00    +0.000 C 
BRANCH  20  21
ATOM     21  C   UNL     1      44.487   5.336  12.074  0.00  0.00    +0.000 A 
ATOM     22  C   UNL     1      45.039   4.066  12.266  0.00  0.00    +0.000 A 
ATOM     23  C   UNL     1      44.978   3.104  11.250  0.00  0.00    +0.000 A 
ATOM     24  C   UNL     1      44.362   3.390  10.020  0.00  0.00    +0.000 A 
ATOM     25  C   UNL     1      43.765   4.647   9.857  0.00  0.00    +0.000 A 
ATOM     26  C   UNL     1      43.822   5.604  10.871  0.00  0.00    +0.000 A 
BRANCH  24  27
ATOM     27  C   UNL     1      44.474   2.389   8.881  0.00  0.00    +0.000 C 
BRANCH  27  28
ATOM     28  O   UNL     1      45.212   1.259   9.351  0.00  0.00    +0.000 OA
ATOM     29  H   UNL     1      46.119   1.342   9.006  0.00  0.00    +0.000 HD
ENDBRANCH  27  28
BRANCH  27  30
ATOM     30  C   UNL     1      45.168   2.919   7.617  0.00  0.00    +0.000 C 
BRANCH  30  31
ATOM     31  C   UNL     1      46.709   2.866   7.665  0.00  0.00    +0.000 C 
ATOM     32  C   UNL     1      47.303   3.771   6.586  0.00  0.00    +0.000 C 
ATOM     33  C   UNL     1      47.454   2.836   5.405  0.00  0.00    +0.000 C 
ATOM     34  N   UNL     1      47.938   1.592   6.010  0.00  0.00    +0.000 NA
ATOM     35  C   UNL     1      47.288   1.489   7.329  0.00  0.00    +0.000 C 
ATOM     36  H   UNL     1      48.944   1.682   6.160  0.00  0.00    +0.000 HD
ENDBRANCH  30  31
ENDBRANCH  27  30
ENDBRANCH  24  27
ENDBRANCH  20  21
ENDBRANCH   1  20
TORSDOF 11
ENDMDL
MODEL 9
REMARK VINA RESULT:    -5.723      2.185      3.036
REMARK INTER + INTRA:         -10.850
REMARK INTER:                  -9.251
REMARK INTRA:                  -1.599
REMARK UNBOUND:                -1.614
REMARK  Name = 
REMARK  12 active torsions:
REMARK  status: ('A' for Active; 'I' for Inactive)
REMARK    1  A    between atoms: C_1  and  O_2
REMARK    2  A    between atoms: O_2  and  C_3
REMARK    3  A    between atoms: C_3  and  C_4
REMARK    4  A    between atoms: C_3  and  C_21
REMARK    5  A    between atoms: C_4  and  N_5
REMARK    6  A    between atoms: N_5  and  C_6
REMARK    7  A    between atoms: C_6  and  C_7
REMARK    8  A    between atoms: C_10  and  C_11
REMARK    9  A    between atoms: C_11  and  O_12
REMARK   10  A    between atoms: C_11  and  C_13
REMARK   11  A    between atoms: C_13  and  C_14
REMARK   12  A    between atoms: C_21  and  C_23
REMARK                            x       y       z     vdW  Elec       q    Type
REMARK                         _______ _______ _______ _____ _____    ______ ____
ROOT
ATOM      1  N   UNL     1      50.754   8.098  14.909  0.00  0.00    +0.000 NA
ATOM      2  H   UNL     1      50.391   7.182  14.624  0.00  0.00    +0.000 HD
ENDROOT
BRANCH   1   3
ATOM      3  C   UNL     1      50.342   8.358  16.296  0.00  0.00    +0.000 C 
BRANCH   3   4
ATOM      4  C   UNL     1      50.994   7.413  17.337  0.00  0.00    +0.000 C 
BRANCH   4   6
ATOM      5  C   UNL     1      53.254   7.952  17.955  0.00  0.00    +0.000 C 
ATOM      6  O   UNL     1      51.872   8.229  18.127  0.00  0.00    +0.000 OA
ENDBRANCH   4   6
BRANCH   4   7
ATOM      7  C   UNL     1      49.884   6.740  18.175  0.00  0.00    +0.000 C 
ATOM      8  O   UNL     1      49.590   7.213  19.275  0.00  0.00    +0.000 OA
BRANCH   7   9
ATOM      9  C   UNL     1      49.277   5.473  17.718  0.00  0.00    +0.000 A 
ATOM     10  C   UNL     1      48.014   5.362  17.158  0.00  0.00    +0.000 A 
ATOM     11  S   UNL     1      47.687   3.815  16.508  0.00  0.00    +0.000 S 
ATOM     12  C   UNL     1      49.210   3.233  16.998  0.00  0.00    +0.000 A 
ATOM     13  N   UNL     1      49.610   1.969  16.677  0.00  0.00    +0.000 NA
ATOM     14  C   UNL     1      50.805   1.680  17.078  0.00  0.00    +0.000 A 
ATOM     15  N   UNL     1      51.612   2.517  17.801  0.00  0.00    +0.000 N 
ATOM     16  C   UNL     1      51.180   3.730  18.289  0.00  0.00    +0.000 A 
ATOM     17  O   UNL     1      51.789   4.289  19.193  0.00  0.00    +0.000 OA
ATOM     18  C   UNL     1      49.915   4.172  17.717  0.00  0.00    +0.000 A 
ATOM     19  H   UNL     1      52.487   2.186  18.182  0.00  0.00    +0.000 HD
ENDBRANCH   7   9
ENDBRANCH   4   7
ENDBRANCH   3   4
ENDBRANCH   1   3
BRANCH   1  20
ATOM     20  C   UNL     1      50.155   9.081  13.993  0.00  0.00    +0.000 C 
BRANCH  20  21
ATOM     21  C   UNL     1      48.885   8.523  13.391  0.00  0.00    +0.000 A 
ATOM     22  C   UNL     1      48.917   7.541  12.397  0.00  0.00    +0.000 A 
ATOM     23  C   UNL     1      47.734   7.118  11.779  0.00  0.00    +0.000 A 
ATOM     24  C   UNL     1      46.492   7.665  12.143  0.00  0.00    +0.000 A 
ATOM     25  C   UNL     1      46.464   8.609  13.177  0.00  0.00    +0.000 A 
ATOM     26  C   UNL     1      47.643   9.029  13.796  0.00  0.00    +0.000 A 
BRANCH  24  27
ATOM     27  C   UNL     1      45.257   7.315  11.328  0.00  0.00    +0.000 C 
BRANCH  27  28
ATOM     28  O   UNL     1      44.107   7.780  12.038  0.00  0.00    +0.000 OA
ATOM     29  H   UNL     1      43.517   7.016  12.165  0.00  0.00    +0.000 HD
ENDBRANCH  27  28
BRANCH  27  30
ATOM     30  C   UNL     1      45.068   5.816  11.045  0.00  0.00    +0.000 C 
BRANCH  30  31
ATOM     31  C   UNL     1      44.396   5.031  12.191  0.00  0.00    +0.000 C 
ATOM     32  C   UNL     1      45.414   4.720  13.287  0.00  0.00    +0.000 C 
ATOM     33  C   UNL     1      45.955   3.368  12.874  0.00  0.00    +0.000 C 
ATOM     34  N   UNL     1      44.765   2.647  12.415  0.00  0.00    +0.000 NA
ATOM     35  C   UNL     1      43.892   3.647  11.774  0.00  0.00    +0.000 C 
ATOM     36  H   UNL     1      44.278   2.282  13.235  0.00  0.00    +0.000 HD
ENDBRANCH  30  31
ENDBRANCH  27  30
ENDBRANCH  24  27
ENDBRANCH  20  21
ENDBRANCH   1  20
TORSDOF 11
ENDMDL
