MODEL 1
REMARK VINA RESULT:    -8.151      0.000      0.000
REMARK INTER + INTRA:         -11.774
REMARK INTER:                 -10.772
REMARK INTRA:                  -1.003
REMARK UNBOUND:                -1.003
REMARK  Name = 
REMARK  7 active torsions:
REMARK  status: ('A' for Active; 'I' for Inactive)
REMARK    1  A    between atoms: C_1  and  C_2
REMARK    2  A    between atoms: C_2  and  N_3
REMARK    3  A    between atoms: C_2  and  C_19
REMARK    4  A    between atoms: C_7  and  C_8
REMARK    5  A    between atoms: C_8  and  O_9
REMARK    6  A    between atoms: C_8  and  C_10
REMARK    7  A    between atoms: C_10  and  C_11
REMARK                            x       y       z     vdW  Elec       q    Type
REMARK                         _______ _______ _______ _____ _____    ______ ____
ROOT
ATOM      1  N   UNL     1      47.288   7.132  14.022  0.00  0.00    +0.000 N 
ATOM      2  C   UNL     1      46.629   6.269  13.147  0.00  0.00    +0.000 A 
ATOM      3  C   UNL     1      45.743   6.801  12.213  0.00  0.00    +0.000 A 
ATOM      4  C   UNL     1      44.956   5.950  11.435  0.00  0.00    +0.000 A 
ATOM      5  C   UNL     1      45.017   4.571  11.631  0.00  0.00    +0.000 A 
ATOM      6  C   UNL     1      45.950   4.128  12.560  0.00  0.00    +0.000 A 
ATOM      7  N   UNL     1      46.747   4.936  13.301  0.00  0.00    +0.000 NA
ATOM      8  H   UNL     1      47.365   8.086  13.669  0.00  0.00    +0.000 HD
ENDROOT
BRANCH   1  10
ATOM      9  C   UNL     1      49.720   7.403  13.936  0.00  0.00    +0.000 C 
ATOM     10  C   UNL     1      48.546   6.677  14.613  0.00  0.00    +0.000 C 
BRANCH  10  11
ATOM     11  C   UNL     1      48.636   6.841  16.126  0.00  0.00    +0.000 A 
ATOM     12  C   UNL     1      48.734   8.084  16.735  0.00  0.00    +0.000 A 
ATOM     13  S   UNL     1      48.886   8.000  18.431  0.00  0.00    +0.000 S 
ATOM     14  C   UNL     1      48.782   6.301  18.414  0.00  0.00    +0.000 A 
ATOM     15  N   UNL     1      48.837   5.586  19.569  0.00  0.00    +0.000 NA
ATOM     16  C   UNL     1      48.731   4.311  19.409  0.00  0.00    +0.000 A 
ATOM     17  N   UNL     1      48.571   3.683  18.200  0.00  0.00    +0.000 N 
ATOM     18  C   UNL     1      48.470   4.363  17.005  0.00  0.00    +0.000 A 
ATOM     19  O   UNL     1      48.227   3.771  15.956  0.00  0.00    +0.000 OA
ATOM     20  C   UNL     1      48.623   5.803  17.131  0.00  0.00    +0.000 A 
ATOM     21  H   UNL     1      48.458   2.681  18.153  0.00  0.00    +0.000 HD
ENDBRANCH  10  11
ENDBRANCH   1  10
BRANCH   5  22
ATOM     22  C   UNL     1      44.130   3.643  10.835  0.00  0.00    +0.000 C 
BRANCH  22  23
ATOM     23  O   UNL     1      42.808   3.749  11.361  0.00  0.00    +0.000 OA
ATOM     24  H   UNL     1      42.627   2.955  11.890  0.00  0.00    +0.000 HD
ENDBRANCH  22  23
BRANCH  22  25
ATOM     25  C   UNL     1      44.137   3.900   9.311  0.00  0.00    +0.000 C 
BRANCH  25  26
ATOM     26  C   UNL     1      45.233   3.154   8.587  0.00  0.00    +0.000 A 
ATOM     27  C   UNL     1      46.076   3.829   7.699  0.00  0.00    +0.000 A 
ATOM     28  C   UNL     1      47.052   3.111   7.027  0.00  0.00    +0.000 A 
ATOM     29  N   UNL     1      47.249   1.786   7.181  0.00  0.00    +0.000 NA
ATOM     30  C   UNL     1      46.423   1.151   8.042  0.00  0.00    +0.000 A 
ATOM     31  C   UNL     1      45.414   1.779   8.758  0.00  0.00    +0.000 A 
ENDBRANCH  25  26
ENDBRANCH  22  25
ENDBRANCH   5  22
TORSDOF 6
ENDMDL
MODEL 2
REMARK VINA RESULT:    -7.615      3.180      4.072
REMARK INTER + INTRA:         -11.067
REMARK INTER:                 -10.033
REMARK INTRA:                  -1.033
REMARK UNBOUND:                -1.003
REMARK  Name = 
REMARK  7 active torsions:
REMARK  status: ('A' for Active; 'I' for Inactive)
REMARK    1  A    between atoms: C_1  and  C_2
REMARK    2  A    between atoms: C_2  and  N_3
REMARK    3  A    between atoms: C_2  and  C_19
REMARK    4  A    between atoms: C_7  and  C_8
REMARK    5  A    between atoms: C_8  and  O_9
REMARK    6  A    between atoms: C_8  and  C_10
REMARK    7  A    between atoms: C_10  and  C_11
REMARK                            x       y       z     vdW  Elec       q    Type
REMARK                         _______ _______ _______ _____ _____    ______ ____
ROOT
ATOM      1  N   UNL     1      47.710   6.762  13.414  0.00  0.00    +0.000 N 
ATOM      2  C   UNL     1      46.802   5.966  12.717  0.00  0.00    +0.000 A 
ATOM      3  C   UNL     1      46.406   4.751  13.270  0.00  0.00    +0.000 A 
ATOM      4  C   UNL     1      45.623   3.867  12.523  0.00  0.00    +0.000 A 
ATOM      5  C   UNL     1      45.285   4.177  11.206  0.00  0.00    +0.000 A 
ATOM      6  C   UNL     1      45.696   5.423  10.749  0.00  0.00    +0.000 A 
ATOM      7  N   UNL     1      46.427   6.309  11.469  0.00  0.00    +0.000 NA
ATOM      8  H   UNL     1      47.717   6.585  14.418  0.00  0.00    +0.000 HD
ENDROOT
BRANCH   1  10
ATOM      9  C   UNL     1      47.256   8.972  14.365  0.00  0.00    +0.000 C 
ATOM     10  C   UNL     1      47.725   8.196  13.124  0.00  0.00    +0.000 C 
BRANCH  10  11
ATOM     11  C   UNL     1      49.070   8.737  12.651  0.00  0.00    +0.000 A 
ATOM     12  C   UNL     1      49.190   9.577  11.553  0.00  0.00    +0.000 A 
ATOM     13  S   UNL     1      50.803   9.993  11.189  0.00  0.00    +0.000 S 
ATOM     14  C   UNL     1      51.393   9.100  12.513  0.00  0.00    +0.000 A 
ATOM     15  N   UNL     1      52.725   9.046  12.781  0.00  0.00    +0.000 NA
ATOM     16  C   UNL     1      53.028   8.348  13.821  0.00  0.00    +0.000 A 
ATOM     17  N   UNL     1      52.122   7.700  14.622  0.00  0.00    +0.000 N 
ATOM     18  C   UNL     1      50.761   7.754  14.417  0.00  0.00    +0.000 A 
ATOM     19  O   UNL     1      49.978   7.243  15.214  0.00  0.00    +0.000 OA
ATOM     20  C   UNL     1      50.372   8.500  13.231  0.00  0.00    +0.000 A 
ATOM     21  H   UNL     1      52.430   7.200  15.443  0.00  0.00    +0.000 HD
ENDBRANCH  10  11
ENDBRANCH   1  10
BRANCH   5  22
ATOM     22  C   UNL     1      44.487   3.205  10.370  0.00  0.00    +0.000 C 
BRANCH  22  23
ATOM     23  O   UNL     1      43.143   3.222  10.850  0.00  0.00    +0.000 OA
ATOM     24  H   UNL     1      43.072   3.913  11.528  0.00  0.00    +0.000 HD
ENDBRANCH  22  23
BRANCH  22  25
ATOM     25  C   UNL     1      44.531   3.480   8.850  0.00  0.00    +0.000 C 
BRANCH  25  26
ATOM     26  C   UNL     1      45.665   2.769   8.150  0.00  0.00    +0.000 A 
ATOM     27  C   UNL     1      45.857   1.396   8.338  0.00  0.00    +0.000 A 
ATOM     28  C   UNL     1      46.924   0.778   7.705  0.00  0.00    +0.000 A 
ATOM     29  N   UNL     1      47.797   1.423   6.904  0.00  0.00    +0.000 NA
ATOM     30  C   UNL     1      47.596   2.748   6.738  0.00  0.00    +0.000 A 
ATOM     31  C   UNL     1      46.561   3.458   7.330  0.00  0.00    +0.000 A 
ENDBRANCH  25  26
ENDBRANCH  22  25
ENDBRANCH   5  22
TORSDOF 6
ENDMDL
MODEL 3
REMARK VINA RESULT:    -7.359      2.093      2.480
REMARK INTER + INTRA:         -10.727
REMARK INTER:                  -9.747
REMARK INTRA:                  -0.980
REMARK UNBOUND:                -1.003
REMARK  Name = 
REMARK  7 active torsions:
REMARK  status: ('A' for Active; 'I' for Inactive)
REMARK    1  A    between atoms: C_1  and  C_2
REMARK    2  A    between atoms: C_2  and  N_3
REMARK    3  A    between atoms: C_2  and  C_19
REMARK    4  A    between atoms: C_7  and  C_8
REMARK    5  A    between atoms: C_8  and  O_9
REMARK    6  A    between atoms: C_8  and  C_10
REMARK    7  A    between atoms: C_10  and  C_11
REMARK                            x       y       z     vdW  Elec       q    Type
REMARK                         _______ _______ _______ _____ _____    ______ ____
ROOT
ATOM      1  N   UNL     1      47.920   6.339  14.232  0.00  0.00    +0.000 N 
ATOM      2  C   UNL     1      46.981   6.010  13.256  0.00  0.00    +0.000 A 
ATOM      3  C   UNL     1      46.011   5.054  13.547  0.00  0.00    +0.000 A 
ATOM      4  C   UNL     1      45.160   4.595  12.539  0.00  0.00    +0.000 A 
ATOM      5  C   UNL     1      45.317   5.053  11.232  0.00  0.00    +0.000 A 
ATOM      6  C   UNL     1      46.287   6.029  11.040  0.00  0.00    +0.000 A 
ATOM      7  N   UNL     1      47.101   6.512  12.011  0.00  0.00    +0.000 NA
ATOM      8  H   UNL     1      47.603   6.147  15.182  0.00  0.00    +0.000 HD
ENDROOT
BRANCH   1  10
ATOM      9  C   UNL     1      47.761   8.678  14.938  0.00  0.00    +0.000 C 
ATOM     10  C   UNL     1      48.574   7.645  14.140  0.00  0.00    +0.000 C 
BRANCH  10  11
ATOM     11  C   UNL     1      50.028   7.664  14.596  0.00  0.00    +0.000 A 
ATOM     12  C   UNL     1      51.007   8.389  13.931  0.00  0.00    +0.000 A 
ATOM     13  S   UNL     1      52.565   8.198  14.598  0.00  0.00    +0.000 S 
ATOM     14  C   UNL     1      51.977   7.174  15.824  0.00  0.00    +0.000 A 
ATOM     15  N   UNL     1      52.815   6.654  16.760  0.00  0.00    +0.000 NA
ATOM     16  C   UNL     1      52.233   5.910  17.638  0.00  0.00    +0.000 A 
ATOM     17  N   UNL     1      50.888   5.639  17.668  0.00  0.00    +0.000 N 
ATOM     18  C   UNL     1      49.992   6.171  16.767  0.00  0.00    +0.000 A 
ATOM     19  O   UNL     1      48.783   5.985  16.888  0.00  0.00    +0.000 OA
ATOM     20  C   UNL     1      50.608   6.988  15.734  0.00  0.00    +0.000 A 
ATOM     21  H   UNL     1      50.496   5.075  18.407  0.00  0.00    +0.000 HD
ENDBRANCH  10  11
ENDBRANCH   1  10
BRANCH   5  22
ATOM     22  C   UNL     1      44.439   4.523  10.122  0.00  0.00    +0.000 C 
BRANCH  22  23
ATOM     23  O   UNL     1      43.174   5.175  10.221  0.00  0.00    +0.000 OA
ATOM     24  H   UNL     1      42.709   4.820  10.995  0.00  0.00    +0.000 HD
ENDBRANCH  22  23
BRANCH  22  25
ATOM     25  C   UNL     1      45.032   4.683   8.705  0.00  0.00    +0.000 C 
BRANCH  25  26
ATOM     26  C   UNL     1      45.777   3.459   8.229  0.00  0.00    +0.000 A 
ATOM     27  C   UNL     1      46.799   3.580   7.282  0.00  0.00    +0.000 A 
ATOM     28  C   UNL     1      47.443   2.434   6.843  0.00  0.00    +0.000 A 
ATOM     29  N   UNL     1      47.146   1.193   7.279  0.00  0.00    +0.000 NA
ATOM     30  C   UNL     1      46.154   1.096   8.191  0.00  0.00    +0.000 A 
ATOM     31  C   UNL     1      45.448   2.182   8.689  0.00  0.00    +0.000 A 
ENDBRANCH  25  26
ENDBRANCH  22  25
ENDBRANCH   5  22
TORSDOF 6
ENDMDL
MODEL 4
REMARK VINA RESULT:    -7.134      2.217      2.872
REMARK INTER + INTRA:         -10.430
REMARK INTER:                 -10.401
REMARK INTRA:                  -0.029
REMARK UNBOUND:                -1.003
REMARK  Name = 
REMARK  7 active torsions:
REMARK  status: ('A' for Active; 'I' for Inactive)
REMARK    1  A    between atoms: C_1  and  C_2
REMARK    2  A    between atoms: C_2  and  N_3
REMARK    3  A    between atoms: C_2  and  C_19
REMARK    4  A    between atoms: C_7  and  C_8
REMARK    5  A    between atoms: C_8  and  O_9
REMARK    6  A    between atoms: C_8  and  C_10
REMARK    7  A    between atoms: C_10  and  C_11
REMARK                            x       y       z     vdW  Elec       q    Type
REMARK                         _______ _______ _______ _____ _____    ______ ____
ROOT
ATOM      1  N   UNL     1      47.875   3.822  15.392  0.00  0.00    +0.000 N 
ATOM      2  C   UNL     1      46.991   4.233  14.395  0.00  0.00    +0.000 A 
ATOM      3  C   UNL     1      46.405   3.273  13.574  0.00  0.00    +0.000 A 
ATOM      4  C   UNL     1      45.642   3.669  12.473  0.00  0.00    +0.000 A 
ATOM      5  C   UNL     1      45.513   5.022  12.165  0.00  0.00    +0.000 A 
ATOM      6  C   UNL     1      46.104   5.909  13.056  0.00  0.00    +0.000 A 
ATOM      7  N   UNL     1      46.820   5.547  14.148  0.00  0.00    +0.000 NA
ATOM      8  H   UNL     1      47.733   2.856  15.687  0.00  0.00    +0.000 HD
ENDROOT
BRANCH   1  10
ATOM      9  C   UNL     1      47.014   4.402  17.609  0.00  0.00    +0.000 C 
ATOM     10  C   UNL     1      48.074   4.709  16.539  0.00  0.00    +0.000 C 
BRANCH  10  11
ATOM     11  C   UNL     1      49.466   4.652  17.155  0.00  0.00    +0.000 A 
ATOM     12  C   UNL     1      50.093   5.773  17.682  0.00  0.00    +0.000 A 
ATOM     13  S   UNL     1      51.669   5.463  18.255  0.00  0.00    +0.000 S 
ATOM     14  C   UNL     1      51.551   3.812  17.858  0.00  0.00    +0.000 A 
ATOM     15  N   UNL     1      52.582   2.959  18.105  0.00  0.00    +0.000 NA
ATOM     16  C   UNL     1      52.349   1.736  17.770  0.00  0.00    +0.000 A 
ATOM     17  N   UNL     1      51.180   1.285  17.212  0.00  0.00    +0.000 N 
ATOM     18  C   UNL     1      50.093   2.099  16.978  0.00  0.00    +0.000 A 
ATOM     19  O   UNL     1      49.030   1.637  16.570  0.00  0.00    +0.000 OA
ATOM     20  C   UNL     1      50.321   3.497  17.305  0.00  0.00    +0.000 A 
ATOM     21  H   UNL     1      51.055   0.305  17.007  0.00  0.00    +0.000 HD
ENDBRANCH  10  11
ENDBRANCH   1  10
BRANCH   5  22
ATOM     22  C   UNL     1      44.737   5.461  10.945  0.00  0.00    +0.000 C 
BRANCH  22  23
ATOM     23  O   UNL     1      45.640   6.153  10.083  0.00  0.00    +0.000 OA
ATOM     24  H   UNL     1      46.405   5.579   9.921  0.00  0.00    +0.000 HD
ENDBRANCH  22  23
BRANCH  22  25
ATOM     25  C   UNL     1      44.027   4.314  10.191  0.00  0.00    +0.000 C 
BRANCH  25  26
ATOM     26  C   UNL     1      44.933   3.584   9.228  0.00  0.00    +0.000 A 
ATOM     27  C   UNL     1      45.575   4.282   8.200  0.00  0.00    +0.000 A 
ATOM     28  C   UNL     1      46.375   3.579   7.314  0.00  0.00    +0.000 A 
ATOM     29  N   UNL     1      46.582   2.248   7.383  0.00  0.00    +0.000 NA
ATOM     30  C   UNL     1      45.950   1.591   8.381  0.00  0.00    +0.000 A 
ATOM     31  C   UNL     1      45.127   2.204   9.315  0.00  0.00    +0.000 A 
ENDBRANCH  25  26
ENDBRANCH  22  25
ENDBRANCH   5  22
TORSDOF 6
ENDMDL
MODEL 5
REMARK VINA RESULT:    -6.965      3.045      4.359
REMARK INTER + INTRA:         -10.208
REMARK INTER:                  -9.017
REMARK INTRA:                  -1.190
REMARK UNBOUND:                -1.003
REMARK  Name = 
REMARK  7 active torsions:
REMARK  status: ('A' for Active; 'I' for Inactive)
REMARK    1  A    between atoms: C_1  and  C_2
REMARK    2  A    between atoms: C_2  and  N_3
REMARK    3  A    between atoms: C_2  and  C_19
REMARK    4  A    between atoms: C_7  and  C_8
REMARK    5  A    between atoms: C_8  and  O_9
REMARK    6  A    between atoms: C_8  and  C_10
REMARK    7  A    between atoms: C_10  and  C_11
REMARK                            x       y       z     vdW  Elec       q    Type
REMARK                         _______ _______ _______ _____ _____    ______ ____
ROOT
ATOM      1  N   UNL     1      48.323   6.732  13.708  0.00  0.00    +0.000 N 
ATOM      2  C   UNL     1      47.264   6.157  13.007  0.00  0.00    +0.000 A 
ATOM      3  C   UNL     1      46.747   4.940  13.444  0.00  0.00    +0.000 A 
ATOM      4  C   UNL     1      45.795   4.269  12.672  0.00  0.00    +0.000 A 
ATOM      5  C   UNL     1      45.404   4.791  11.440  0.00  0.00    +0.000 A 
ATOM      6  C   UNL     1      45.947   6.023  11.100  0.00  0.00    +0.000 A 
ATOM      7  N   UNL     1      46.847   6.706  11.850  0.00  0.00    +0.000 NA
ATOM      8  H   UNL     1      48.383   6.424  14.679  0.00  0.00    +0.000 HD
ENDROOT
BRANCH   1  10
ATOM      9  C   UNL     1      47.636   8.893  14.631  0.00  0.00    +0.000 C 
ATOM     10  C   UNL     1      48.515   8.178  13.592  0.00  0.00    +0.000 C 
BRANCH  10  11
ATOM     11  C   UNL     1      49.961   8.642  13.727  0.00  0.00    +0.000 A 
ATOM     12  C   UNL     1      50.449   9.231  14.885  0.00  0.00    +0.000 A 
ATOM     13  S   UNL     1      52.078   9.719  14.764  0.00  0.00    +0.000 S 
ATOM     14  C   UNL     1      52.200   9.122  13.174  0.00  0.00    +0.000 A 
ATOM     15  N   UNL     1      53.365   9.218  12.480  0.00  0.00    +0.000 NA
ATOM     16  C   UNL     1      53.319   8.710  11.295  0.00  0.00    +0.000 A 
ATOM     17  N   UNL     1      52.215   8.112  10.741  0.00  0.00    +0.000 N 
ATOM     18  C   UNL     1      51.024   7.955  11.416  0.00  0.00    +0.000 A 
ATOM     19  O   UNL     1      50.092   7.326  10.921  0.00  0.00    +0.000 OA
ATOM     20  C   UNL     1      51.016   8.547  12.744  0.00  0.00    +0.000 A 
ATOM     21  H   UNL     1      52.263   7.704   9.819  0.00  0.00    +0.000 HD
ENDBRANCH  10  11
ENDBRANCH   1  10
BRANCH   5  22
ATOM     22  C   UNL     1      44.418   4.047  10.570  0.00  0.00    +0.000 C 
BRANCH  22  23
ATOM     23  O   UNL     1      43.105   4.411  10.995  0.00  0.00    +0.000 OA
ATOM     24  H   UNL     1      42.574   4.607  10.206  0.00  0.00    +0.000 HD
ENDBRANCH  22  23
BRANCH  22  25
ATOM     25  C   UNL     1      44.592   4.288   9.054  0.00  0.00    +0.000 C 
BRANCH  25  26
ATOM     26  C   UNL     1      45.534   3.305   8.400  0.00  0.00    +0.000 A 
ATOM     27  C   UNL     1      46.454   3.743   7.441  0.00  0.00    +0.000 A 
ATOM     28  C   UNL     1      47.284   2.812   6.838  0.00  0.00    +0.000 A 
ATOM     29  N   UNL     1      47.265   1.493   7.122  0.00  0.00    +0.000 NA
ATOM     30  C   UNL     1      46.368   1.090   8.048  0.00  0.00    +0.000 A 
ATOM     31  C   UNL     1      45.492   1.942   8.705  0.00  0.00    +0.000 A 
ENDBRANCH  25  26
ENDBRANCH  22  25
ENDBRANCH   5  22
TORSDOF 6
ENDMDL
MODEL 6
REMARK VINA RESULT:    -6.670      3.244      8.099
REMARK INTER + INTRA:          -9.818
REMARK INTER:                  -8.842
REMARK INTRA:                  -0.976
REMARK UNBOUND:                -1.003
REMARK  Name = 
REMARK  7 active torsions:
REMARK  status: ('A' for Active; 'I' for Inactive)
REMARK    1  A    between atoms: C_1  and  C_2
REMARK    2  A    between atoms: C_2  and  N_3
REMARK    3  A    between atoms: C_2  and  C_19
REMARK    4  A    between atoms: C_7  and  C_8
REMARK    5  A    between atoms: C_8  and  O_9
REMARK    6  A    between atoms: C_8  and  C_10
REMARK    7  A    between atoms: C_10  and  C_11
REMARK                            x       y       z     vdW  Elec       q    Type
REMARK                         _______ _______ _______ _____ _____    ______ ____
ROOT
ATOM      1  N   UNL     1      47.826   6.962  12.272  0.00  0.00    +0.000 N 
ATOM      2  C   UNL     1      48.457   6.958  13.515  0.00  0.00    +0.000 A 
ATOM      3  C   UNL     1      49.738   7.491  13.624  0.00  0.00    +0.000 A 
ATOM      4  C   UNL     1      50.451   7.357  14.818  0.00  0.00    +0.000 A 
ATOM      5  C   UNL     1      49.901   6.643  15.881  0.00  0.00    +0.000 A 
ATOM      6  C   UNL     1      48.606   6.174  15.696  0.00  0.00    +0.000 A 
ATOM      7  N   UNL     1      47.885   6.322  14.557  0.00  0.00    +0.000 NA
ATOM      8  H   UNL     1      48.180   7.680  11.639  0.00  0.00    +0.000 HD
ENDROOT
BRANCH   1  10
ATOM      9  C   UNL     1      45.802   8.283  11.879  0.00  0.00    +0.000 C 
ATOM     10  C   UNL     1      46.364   6.900  12.246  0.00  0.00    +0.000 C 
BRANCH  10  11
ATOM     11  C   UNL     1      45.786   5.840  11.316  0.00  0.00    +0.000 A 
ATOM     12  C   UNL     1      46.018   5.845   9.947  0.00  0.00    +0.000 A 
ATOM     13  S   UNL     1      45.211   4.592   9.118  0.00  0.00    +0.000 S 
ATOM     14  C   UNL     1      44.560   3.975  10.564  0.00  0.00    +0.000 A 
ATOM     15  N   UNL     1      43.763   2.874  10.557  0.00  0.00    +0.000 NA
ATOM     16  C   UNL     1      43.353   2.508  11.723  0.00  0.00    +0.000 A 
ATOM     17  N   UNL     1      43.670   3.140  12.899  0.00  0.00    +0.000 N 
ATOM     18  C   UNL     1      44.504   4.235  12.965  0.00  0.00    +0.000 A 
ATOM     19  O   UNL     1      44.843   4.710  14.046  0.00  0.00    +0.000 OA
ATOM     20  C   UNL     1      44.961   4.708  11.669  0.00  0.00    +0.000 A 
ATOM     21  H   UNL     1      43.342   2.775  13.781  0.00  0.00    +0.000 HD
ENDBRANCH  10  11
ENDBRANCH   1  10
BRANCH   5  22
ATOM     22  C   UNL     1      50.683   6.444  17.158  0.00  0.00    +0.000 C 
BRANCH  22  23
ATOM     23  O   UNL     1      50.809   7.716  17.792  0.00  0.00    +0.000 OA
ATOM     24  H   UNL     1      50.690   7.592  18.748  0.00  0.00    +0.000 HD
ENDBRANCH  22  23
BRANCH  22  25
ATOM     25  C   UNL     1      50.076   5.404  18.126  0.00  0.00    +0.000 C 
BRANCH  25  26
ATOM     26  C   UNL     1      50.504   3.987  17.823  0.00  0.00    +0.000 A 
ATOM     27  C   UNL     1      51.829   3.593  18.032  0.00  0.00    +0.000 A 
ATOM     28  C   UNL     1      52.197   2.295  17.716  0.00  0.00    +0.000 A 
ATOM     29  N   UNL     1      51.347   1.374  17.218  0.00  0.00    +0.000 NA
ATOM     30  C   UNL     1      50.072   1.775  17.020  0.00  0.00    +0.000 A 
ATOM     31  C   UNL     1      49.607   3.052  17.301  0.00  0.00    +0.000 A 
ENDBRANCH  25  26
ENDBRANCH  22  25
ENDBRANCH   5  22
TORSDOF 6
ENDMDL
MODEL 7
REMARK VINA RESULT:    -6.604      3.099      8.641
REMARK INTER + INTRA:          -9.731
REMARK INTER:                  -8.768
REMARK INTRA:                  -0.962
REMARK UNBOUND:                -1.003
REMARK  Name = 
REMARK  7 active torsions:
REMARK  status: ('A' for Active; 'I' for Inactive)
REMARK    1  A    between atoms: C_1  and  C_2
REMARK    2  A    between atoms: C_2  and  N_3
REMARK    3  A    between atoms: C_2  and  C_19
REMARK    4  A    between atoms: C_7  and  C_8
REMARK    5  A    between atoms: C_8  and  O_9
REMARK    6  A    between atoms: C_8  and  C_10
REMARK    7  A    between atoms: C_10  and  C_11
REMARK                            x       y       z     vdW  Elec       q    Type
REMARK                         _______ _______ _______ _____ _____    ______ ____
ROOT
ATOM      1  N   UNL     1      46.748   6.611  11.471  0.00  0.00    +0.000 N 
ATOM      2  C   UNL     1      47.702   6.981  12.418  0.00  0.00    +0.000 A 
ATOM      3  C   UNL     1      48.876   7.594  11.989  0.00  0.00    +0.000 A 
ATOM      4  C   UNL     1      49.911   7.831  12.897  0.00  0.00    +0.000 A 
ATOM      5  C   UNL     1      49.790   7.404  14.219  0.00  0.00    +0.000 A 
ATOM      6  C   UNL     1      48.573   6.830  14.565  0.00  0.00    +0.000 A 
ATOM      7  N   UNL     1      47.544   6.623  13.707  0.00  0.00    +0.000 NA
ATOM      8  H   UNL     1      46.805   7.148  10.606  0.00  0.00    +0.000 HD
ENDROOT
BRANCH   1  10
ATOM      9  C   UNL     1      44.505   7.577  11.294  0.00  0.00    +0.000 C 
ATOM     10  C   UNL     1      45.362   6.464  11.918  0.00  0.00    +0.000 C 
BRANCH  10  11
ATOM     11  C   UNL     1      44.739   5.103  11.626  0.00  0.00    +0.000 A 
ATOM     12  C   UNL     1      43.935   4.441  12.543  0.00  0.00    +0.000 A 
ATOM     13  S   UNL     1      43.412   2.910  12.006  0.00  0.00    +0.000 S 
ATOM     14  C   UNL     1      44.207   3.097  10.513  0.00  0.00    +0.000 A 
ATOM     15  N   UNL     1      44.150   2.125   9.564  0.00  0.00    +0.000 NA
ATOM     16  C   UNL     1      44.783   2.407   8.477  0.00  0.00    +0.000 A 
ATOM     17  N   UNL     1      45.467   3.573   8.249  0.00  0.00    +0.000 N 
ATOM     18  C   UNL     1      45.524   4.605   9.161  0.00  0.00    +0.000 A 
ATOM     19  O   UNL     1      46.063   5.673   8.879  0.00  0.00    +0.000 OA
ATOM     20  C   UNL     1      44.855   4.317  10.419  0.00  0.00    +0.000 A 
ATOM     21  H   UNL     1      45.912   3.741   7.358  0.00  0.00    +0.000 HD
ENDBRANCH  10  11
ENDBRANCH   1  10
BRANCH   5  22
ATOM     22  C   UNL     1      50.924   7.603  15.197  0.00  0.00    +0.000 C 
BRANCH  22  23
ATOM     23  O   UNL     1      51.372   8.952  15.071  0.00  0.00    +0.000 OA
ATOM     24  H   UNL     1      51.217   9.404  15.916  0.00  0.00    +0.000 HD
ENDBRANCH  22  23
BRANCH  22  25
ATOM     25  C   UNL     1      50.569   7.276  16.664  0.00  0.00    +0.000 C 
BRANCH  25  26
ATOM     26  C   UNL     1      51.038   5.907  17.099  0.00  0.00    +0.000 A 
ATOM     27  C   UNL     1      50.108   4.895  17.360  0.00  0.00    +0.000 A 
ATOM     28  C   UNL     1      50.568   3.660  17.786  0.00  0.00    +0.000 A 
ATOM     29  N   UNL     1      51.873   3.364  17.963  0.00  0.00    +0.000 NA
ATOM     30  C   UNL     1      52.754   4.356  17.708  0.00  0.00    +0.000 A 
ATOM     31  C   UNL     1      52.394   5.626  17.281  0.00  0.00    +0.000 A 
ENDBRANCH  25  26
ENDBRANCH  22  25
ENDBRANCH   5  22
TORSDOF 6
ENDMDL
MODEL 8
REMARK VINA RESULT:    -6.410      3.644      8.702
REMARK INTER + INTRA:          -9.473
REMARK INTER:                  -9.196
REMARK INTRA:                  -0.277
REMARK UNBOUND:                -1.003
REMARK  Name = 
REMARK  7 active torsions:
REMARK  status: ('A' for Active; 'I' for Inactive)
REMARK    1  A    between atoms: C_1  and  C_2
REMARK    2  A    between atoms: C_2  and  N_3
REMARK    3  A    between atoms: C_2  and  C_19
REMARK    4  A    between atoms: C_7  and  C_8
REMARK    5  A    between atoms: C_8  and  O_9
REMARK    6  A    between atoms: C_8  and  C_10
REMARK    7  A    between atoms: C_10  and  C_11
REMARK                            x       y       z     vdW  Elec       q    Type
REMARK                         _______ _______ _______ _____ _____    ______ ____
ROOT
ATOM      1  N   UNL     1      46.813   5.253  14.975  0.00  0.00    +0.000 N 
ATOM      2  C   UNL     1      47.977   5.129  15.732  0.00  0.00    +0.000 A 
ATOM      3  C   UNL     1      48.158   3.989  16.511  0.00  0.00    +0.000 A 
ATOM      4  C   UNL     1      49.236   3.912  17.395  0.00  0.00    +0.000 A 
ATOM      5  C   UNL     1      50.100   4.997  17.538  0.00  0.00    +0.000 A 
ATOM      6  C   UNL     1      49.863   6.078  16.698  0.00  0.00    +0.000 A 
ATOM      7  N   UNL     1      48.842   6.159  15.810  0.00  0.00    +0.000 NA
ATOM      8  H   UNL     1      46.376   4.358  14.753  0.00  0.00    +0.000 HD
ENDROOT
BRANCH   1  10
ATOM      9  C   UNL     1      48.150   5.900  13.028  0.00  0.00    +0.000 C 
ATOM     10  C   UNL     1      46.846   6.135  13.809  0.00  0.00    +0.000 C 
BRANCH  10  11
ATOM     11  C   UNL     1      45.650   6.003  12.874  0.00  0.00    +0.000 A 
ATOM     12  C   UNL     1      45.031   7.102  12.295  0.00  0.00    +0.000 A 
ATOM     13  S   UNL     1      43.678   6.696  11.340  0.00  0.00    +0.000 S 
ATOM     14  C   UNL     1      43.899   5.033  11.632  0.00  0.00    +0.000 A 
ATOM     15  N   UNL     1      43.062   4.111  11.084  0.00  0.00    +0.000 NA
ATOM     16  C   UNL     1      43.356   2.890  11.376  0.00  0.00    +0.000 A 
ATOM     17  N   UNL     1      44.411   2.504  12.163  0.00  0.00    +0.000 N 
ATOM     18  C   UNL     1      45.310   3.395  12.709  0.00  0.00    +0.000 A 
ATOM     19  O   UNL     1      46.298   3.003  13.325  0.00  0.00    +0.000 OA
ATOM     20  C   UNL     1      44.997   4.789  12.439  0.00  0.00    +0.000 A 
ATOM     21  H   UNL     1      44.603   1.526  12.320  0.00  0.00    +0.000 HD
ENDBRANCH  10  11
ENDBRANCH   1  10
BRANCH   5  22
ATOM     22  C   UNL     1      51.237   4.948  18.531  0.00  0.00    +0.000 C 
BRANCH  22  23
ATOM     23  O   UNL     1      50.859   4.056  19.579  0.00  0.00    +0.000 OA
ATOM     24  H   UNL     1      51.211   4.403  20.414  0.00  0.00    +0.000 HD
ENDBRANCH  22  23
BRANCH  22  25
ATOM     25  C   UNL     1      52.599   4.540  17.926  0.00  0.00    +0.000 C 
BRANCH  25  26
ATOM     26  C   UNL     1      52.930   3.081  18.135  0.00  0.00    +0.000 A 
ATOM     27  C   UNL     1      54.042   2.715  18.900  0.00  0.00    +0.000 A 
ATOM     28  C   UNL     1      54.336   1.369  19.048  0.00  0.00    +0.000 A 
ATOM     29  N   UNL     1      53.607   0.376  18.499  0.00  0.00    +0.000 NA
ATOM     30  C   UNL     1      52.539   0.751  17.761  0.00  0.00    +0.000 A 
ATOM     31  C   UNL     1      52.164   2.070  17.551  0.00  0.00    +0.000 A 
ENDBRANCH  25  26
ENDBRANCH  22  25
ENDBRANCH   5  22
TORSDOF 6
ENDMDL
MODEL 9
REMARK VINA RESULT:    -6.358      2.929      9.024
REMARK INTER + INTRA:          -9.405
REMARK INTER:                  -8.413
REMARK INTRA:                  -0.992
REMARK UNBOUND:                -1.003
REMARK  Name = 
REMARK  7 active torsions:
REMARK  status: ('A' for Active; 'I' for Inactive)
REMARK    1  A    between atoms: C_1  and  C_2
REMARK    2  A    between atoms: C_2  and  N_3
REMARK    3  A    between atoms: C_2  and  C_19
REMARK    4  A    between atoms: C_7  and  C_8
REMARK    5  A    between atoms: C_8  and  O_9
REMARK    6  A    between atoms: C_8  and  C_10
REMARK    7  A    between atoms: C_10  and  C_11
REMARK                            x       y       z     vdW  Elec       q    Type
REMARK                         _______ _______ _______ _____ _____    ______ ____
ROOT
ATOM      1  N   UNL     1      46.718   6.638  11.507  0.00  0.00    +0.000 N 
ATOM      2  C   UNL     1      47.626   6.935  12.522  0.00  0.00    +0.000 A 
ATOM      3  C   UNL     1      48.828   7.558  12.192  0.00  0.00    +0.000 A 
ATOM      4  C   UNL     1      49.817   7.723  13.164  0.00  0.00    +0.000 A 
ATOM      5  C   UNL     1      49.624   7.216  14.448  0.00  0.00    +0.000 A 
ATOM      6  C   UNL     1      48.385   6.639  14.696  0.00  0.00    +0.000 A 
ATOM      7  N   UNL     1      47.399   6.499  13.776  0.00  0.00    +0.000 NA
ATOM      8  H   UNL     1      46.826   7.227  10.680  0.00  0.00    +0.000 HD
ENDROOT
BRANCH   1  10
ATOM      9  C   UNL     1      44.480   7.578  11.184  0.00  0.00    +0.000 C 
ATOM     10  C   UNL     1      45.310   6.482  11.873  0.00  0.00    +0.000 C 
BRANCH  10  11
ATOM     11  C   UNL     1      44.718   5.112  11.564  0.00  0.00    +0.000 A 
ATOM     12  C   UNL     1      43.904   4.434  12.460  0.00  0.00    +0.000 A 
ATOM     13  S   UNL     1      43.421   2.894  11.908  0.00  0.00    +0.000 S 
ATOM     14  C   UNL     1      44.248   3.099  10.435  0.00  0.00    +0.000 A 
ATOM     15  N   UNL     1      44.230   2.128   9.483  0.00  0.00    +0.000 NA
ATOM     16  C   UNL     1      44.884   2.424   8.412  0.00  0.00    +0.000 A 
ATOM     17  N   UNL     1      45.552   3.603   8.202  0.00  0.00    +0.000 N 
ATOM     18  C   UNL     1      45.570   4.633   9.117  0.00  0.00    +0.000 A 
ATOM     19  O   UNL     1      46.096   5.711   8.850  0.00  0.00    +0.000 OA
ATOM     20  C   UNL     1      44.876   4.331  10.359  0.00  0.00    +0.000 A 
ATOM     21  H   UNL     1      46.014   3.781   7.322  0.00  0.00    +0.000 HD
ENDBRANCH  10  11
ENDBRANCH   1  10
BRANCH   5  22
ATOM     22  C   UNL     1      50.709   7.339  15.492  0.00  0.00    +0.000 C 
BRANCH  22  23
ATOM     23  O   UNL     1      51.960   7.419  14.810  0.00  0.00    +0.000 OA
ATOM     24  H   UNL     1      52.409   6.563  14.897  0.00  0.00    +0.000 HD
ENDBRANCH  22  23
BRANCH  22  25
ATOM     25  C   UNL     1      50.534   8.529  16.462  0.00  0.00    +0.000 C 
BRANCH  25  26
ATOM     26  C   UNL     1      49.674   8.199  17.659  0.00  0.00    +0.000 A 
ATOM     27  C   UNL     1      48.373   8.706  17.753  0.00  0.00    +0.000 A 
ATOM     28  C   UNL     1      47.621   8.411  18.878  0.00  0.00    +0.000 A 
ATOM     29  N   UNL     1      48.065   7.651  19.900  0.00  0.00    +0.000 NA
ATOM     30  C   UNL     1      49.325   7.174  19.792  0.00  0.00    +0.000 A 
ATOM     31  C   UNL     1      50.158   7.416  18.710  0.00  0.00    +0.000 A 
ENDBRANCH  25  26
ENDBRANCH  22  25
ENDBRANCH   5  22
TORSDOF 6
ENDMDL
