MODEL 1
REMARK VINA RESULT:    -7.839      0.000      0.000
REMARK INTER + INTRA:         -11.005
REMARK INTER:                 -10.131
REMARK INTRA:                  -0.874
REMARK UNBOUND:                -0.874
REMARK  Name = 
REMARK  6 active torsions:
REMARK  status: ('A' for Active; 'I' for Inactive)
REMARK    1  A    between atoms: C_1  and  C_2
REMARK    2  A    between atoms: C_2  and  C_3
REMARK    3  A    between atoms: C_2  and  C_14
REMARK    4  A    between atoms: C_3  and  N_4
REMARK    5  A    between atoms: N_4  and  C_5
REMARK    6  A    between atoms: C_8  and  C_9
REMARK                            x       y       z     vdW  Elec       q    Type
REMARK                         _______ _______ _______ _____ _____    ______ ____
ROOT
ATOM      1  N   UNL     1      43.779   4.906   9.950  0.00  0.00    +0.000 N 
ATOM      2  H   UNL     1      42.837   4.981   9.574  0.00  0.00    +0.000 HD
ENDROOT
BRANCH   1   3
ATOM      3  C   UNL     1      44.576   4.027   9.198  0.00  0.00    +0.000 A 
ATOM      4  C   UNL     1      44.577   2.637   9.374  0.00  0.00    +0.000 A 
ATOM      5  C   UNL     1      45.459   1.810   8.673  0.00  0.00    +0.000 A 
ATOM      6  C   UNL     1      46.387   2.360   7.789  0.00  0.00    +0.000 A 
ATOM      7  C   UNL     1      46.419   3.746   7.611  0.00  0.00    +0.000 A 
ATOM      8  C   UNL     1      45.521   4.567   8.312  0.00  0.00    +0.000 A 
BRANCH   6   9
ATOM      9  C   UNL     1      47.336   1.435   7.115  0.00  0.00    +0.000 C 
ATOM     10  N   UNL     1      48.454   1.975   6.547  0.00  0.00    +0.000 N 
ATOM     11  O   UNL     1      47.118   0.232   7.039  0.00  0.00    +0.000 OA
ATOM     12  H   UNL     1      48.556   2.964   6.373  0.00  0.00    +0.000 HD
ATOM     13  H   UNL     1      49.028   1.340   6.008  0.00  0.00    +0.000 HD
ENDBRANCH   6   9
ENDBRANCH   1   3
BRANCH   1  14
ATOM     14  C   UNL     1      43.818   4.783  11.399  0.00  0.00    +0.000 C 
BRANCH  14  16
ATOM     15  C   UNL     1      45.769   3.793  12.782  0.00  0.00    +0.000 C 
ATOM     16  C   UNL     1      45.220   4.893  11.923  0.00  0.00    +0.000 C 
BRANCH  16  17
ATOM     17  C   UNL     1      45.789   6.252  12.074  0.00  0.00    +0.000 A 
ATOM     18  C   UNL     1      45.039   7.289  12.645  0.00  0.00    +0.000 A 
ATOM     19  C   UNL     1      45.600   8.557  12.829  0.00  0.00    +0.000 A 
ATOM     20  C   UNL     1      46.914   8.808  12.441  0.00  0.00    +0.000 A 
ATOM     21  C   UNL     1      47.666   7.796  11.855  0.00  0.00    +0.000 A 
ATOM     22  C   UNL     1      47.106   6.531  11.670  0.00  0.00    +0.000 A 
ENDBRANCH  16  17
ENDBRANCH  14  16
ENDBRANCH   1  14
TORSDOF 5
ENDMDL
MODEL 2
REMARK VINA RESULT:    -7.772      1.302      1.761
REMARK INTER + INTRA:         -10.918
REMARK INTER:                 -10.120
REMARK INTRA:                  -0.798
REMARK UNBOUND:                -0.874
REMARK  Name = 
REMARK  6 active torsions:
REMARK  status: ('A' for Active; 'I' for Inactive)
REMARK    1  A    between atoms: C_1  and  C_2
REMARK    2  A    between atoms: C_2  and  C_3
REMARK    3  A    between atoms: C_2  and  C_14
REMARK    4  A    between atoms: C_3  and  N_4
REMARK    5  A    between atoms: N_4  and  C_5
REMARK    6  A    between atoms: C_8  and  C_9
REMARK                            x       y       z     vdW  Elec       q    Type
REMARK                         _______ _______ _______ _____ _____    ______ ____
ROOT
ATOM      1  N   UNL     1      43.799   3.367  10.524  0.00  0.00    +0.000 N 
ATOM      2  H   UNL     1      42.872   2.976  10.376  0.00  0.00    +0.000 HD
ENDROOT
BRANCH   1   3
ATOM      3  C   UNL     1      44.669   3.073   9.461  0.00  0.00    +0.000 A 
ATOM      4  C   UNL     1      45.124   1.781   9.165  0.00  0.00    +0.000 A 
ATOM      5  C   UNL     1      46.067   1.548   8.160  0.00  0.00    +0.000 A 
ATOM      6  C   UNL     1      46.602   2.614   7.437  0.00  0.00    +0.000 A 
ATOM      7  C   UNL     1      46.179   3.914   7.727  0.00  0.00    +0.000 A 
ATOM      8  C   UNL     1      45.223   4.136   8.731  0.00  0.00    +0.000 A 
BRANCH   6   9
ATOM      9  C   UNL     1      47.643   2.309   6.420  0.00  0.00    +0.000 C 
ATOM     10  N   UNL     1      47.719   3.121   5.325  0.00  0.00    +0.000 N 
ATOM     11  O   UNL     1      48.392   1.345   6.534  0.00  0.00    +0.000 OA
ATOM     12  H   UNL     1      46.985   3.765   5.070  0.00  0.00    +0.000 HD
ATOM     13  H   UNL     1      48.365   2.831   4.602  0.00  0.00    +0.000 HD
ENDBRANCH   6   9
ENDBRANCH   1   3
BRANCH   1  14
ATOM     14  C   UNL     1      44.298   3.183  11.877  0.00  0.00    +0.000 C 
BRANCH  14  16
ATOM     15  C   UNL     1      43.029   5.232  12.824  0.00  0.00    +0.000 C 
ATOM     16  C   UNL     1      44.311   4.476  12.640  0.00  0.00    +0.000 C 
BRANCH  16  17
ATOM     17  C   UNL     1      45.584   5.233  12.679  0.00  0.00    +0.000 A 
ATOM     18  C   UNL     1      45.913   6.145  11.667  0.00  0.00    +0.000 A 
ATOM     19  C   UNL     1      47.094   6.891  11.737  0.00  0.00    +0.000 A 
ATOM     20  C   UNL     1      47.964   6.734  12.813  0.00  0.00    +0.000 A 
ATOM     21  C   UNL     1      47.663   5.819  13.815  0.00  0.00    +0.000 A 
ATOM     22  C   UNL     1      46.485   5.073  13.746  0.00  0.00    +0.000 A 
ENDBRANCH  16  17
ENDBRANCH  14  16
ENDBRANCH   1  14
TORSDOF 5
ENDMDL
MODEL 3
REMARK VINA RESULT:    -7.036      3.196      5.910
REMARK INTER + INTRA:          -9.968
REMARK INTER:                  -8.990
REMARK INTRA:                  -0.978
REMARK UNBOUND:                -0.874
REMARK  Name = 
REMARK  6 active torsions:
REMARK  status: ('A' for Active; 'I' for Inactive)
REMARK    1  A    between atoms: C_1  and  C_2
REMARK    2  A    between atoms: C_2  and  C_3
REMARK    3  A    between atoms: C_2  and  C_14
REMARK    4  A    between atoms: C_3  and  N_4
REMARK    5  A    between atoms: N_4  and  C_5
REMARK    6  A    between atoms: C_8  and  C_9
REMARK                            x       y       z     vdW  Elec       q    Type
REMARK                         _______ _______ _______ _____ _____    ______ ____
ROOT
ATOM      1  N   UNL     1      43.864   5.515  12.274  0.00  0.00    +0.000 N 
ATOM      2  H   UNL     1      43.278   6.209  12.731  0.00  0.00    +0.000 HD
ENDROOT
BRANCH   1   3
ATOM      3  C   UNL     1      45.232   5.781  12.455  0.00  0.00    +0.000 A 
ATOM      4  C   UNL     1      45.977   5.308  13.544  0.00  0.00    +0.000 A 
ATOM      5  C   UNL     1      47.310   5.680  13.736  0.00  0.00    +0.000 A 
ATOM      6  C   UNL     1      47.930   6.561  12.850  0.00  0.00    +0.000 A 
ATOM      7  C   UNL     1      47.201   7.063  11.767  0.00  0.00    +0.000 A 
ATOM      8  C   UNL     1      45.865   6.674  11.578  0.00  0.00    +0.000 A 
BRANCH   6   9
ATOM      9  C   UNL     1      49.331   6.964  13.138  0.00  0.00    +0.000 C 
ATOM     10  N   UNL     1      50.134   7.276  12.079  0.00  0.00    +0.000 N 
ATOM     11  O   UNL     1      49.773   6.987  14.281  0.00  0.00    +0.000 OA
ATOM     12  H   UNL     1      49.896   7.043  11.126  0.00  0.00    +0.000 HD
ATOM     13  H   UNL     1      51.107   7.446  12.294  0.00  0.00    +0.000 HD
ENDBRANCH   6   9
ENDBRANCH   1   3
BRANCH   1  14
ATOM     14  C   UNL     1      43.414   5.165  10.937  0.00  0.00    +0.000 C 
BRANCH  14  16
ATOM     15  C   UNL     1      43.373   2.704  11.739  0.00  0.00    +0.000 C 
ATOM     16  C   UNL     1      43.620   3.706  10.651  0.00  0.00    +0.000 C 
BRANCH  16  17
ATOM     17  C   UNL     1      44.568   3.348   9.570  0.00  0.00    +0.000 A 
ATOM     18  C   UNL     1      45.137   4.335   8.753  0.00  0.00    +0.000 A 
ATOM     19  C   UNL     1      46.068   3.993   7.767  0.00  0.00    +0.000 A 
ATOM     20  C   UNL     1      46.439   2.664   7.579  0.00  0.00    +0.000 A 
ATOM     21  C   UNL     1      45.869   1.670   8.367  0.00  0.00    +0.000 A 
ATOM     22  C   UNL     1      44.939   2.011   9.350  0.00  0.00    +0.000 A 
ENDBRANCH  16  17
ENDBRANCH  14  16
ENDBRANCH   1  14
TORSDOF 5
ENDMDL
MODEL 4
REMARK VINA RESULT:    -7.026      3.142      5.995
REMARK INTER + INTRA:          -9.954
REMARK INTER:                  -8.976
REMARK INTRA:                  -0.978
REMARK UNBOUND:                -0.874
REMARK  Name = 
REMARK  6 active torsions:
REMARK  status: ('A' for Active; 'I' for Inactive)
REMARK    1  A    between atoms: C_1  and  C_2
REMARK    2  A    between atoms: C_2  and  C_3
REMARK    3  A    between atoms: C_2  and  C_14
REMARK    4  A    between atoms: C_3  and  N_4
REMARK    5  A    between atoms: N_4  and  C_5
REMARK    6  A    between atoms: C_8  and  C_9
REMARK                            x       y       z     vdW  Elec       q    Type
REMARK                         _______ _______ _______ _____ _____    ______ ____
ROOT
ATOM      1  N   UNL     1      43.691   5.615  12.240  0.00  0.00    +0.000 N 
ATOM      2  H   UNL     1      43.008   6.246  12.651  0.00  0.00    +0.000 HD
ENDROOT
BRANCH   1   3
ATOM      3  C   UNL     1      45.010   6.014  12.518  0.00  0.00    +0.000 A 
ATOM      4  C   UNL     1      45.662   7.058  11.848  0.00  0.00    +0.000 A 
ATOM      5  C   UNL     1      47.006   7.356  12.088  0.00  0.00    +0.000 A 
ATOM      6  C   UNL     1      47.745   6.595  12.993  0.00  0.00    +0.000 A 
ATOM      7  C   UNL     1      47.122   5.535  13.659  0.00  0.00    +0.000 A 
ATOM      8  C   UNL     1      45.768   5.251  13.419  0.00  0.00    +0.000 A 
BRANCH   6   9
ATOM      9  C   UNL     1      49.184   6.923  13.164  0.00  0.00    +0.000 C 
ATOM     10  N   UNL     1      49.915   7.184  12.040  0.00  0.00    +0.000 N 
ATOM     11  O   UNL     1      49.717   6.933  14.268  0.00  0.00    +0.000 OA
ATOM     12  H   UNL     1      49.590   6.955  11.112  0.00  0.00    +0.000 HD
ATOM     13  H   UNL     1      50.910   7.302  12.175  0.00  0.00    +0.000 HD
ENDBRANCH   6   9
ENDBRANCH   1   3
BRANCH   1  14
ATOM     14  C   UNL     1      43.376   5.226  10.875  0.00  0.00    +0.000 C 
BRANCH  14  16
ATOM     15  C   UNL     1      43.410   2.791  11.752  0.00  0.00    +0.000 C 
ATOM     16  C   UNL     1      43.648   3.769  10.641  0.00  0.00    +0.000 C 
BRANCH  16  17
ATOM     17  C   UNL     1      44.640   3.417   9.597  0.00  0.00    +0.000 A 
ATOM     18  C   UNL     1      44.985   2.082   9.351  0.00  0.00    +0.000 A 
ATOM     19  C   UNL     1      45.886   1.755   8.332  0.00  0.00    +0.000 A 
ATOM     20  C   UNL     1      46.458   2.756   7.551  0.00  0.00    +0.000 A 
ATOM     21  C   UNL     1      46.142   4.088   7.795  0.00  0.00    +0.000 A 
ATOM     22  C   UNL     1      45.244   4.414   8.812  0.00  0.00    +0.000 A 
ENDBRANCH  16  17
ENDBRANCH  14  16
ENDBRANCH   1  14
TORSDOF 5
ENDMDL
MODEL 5
REMARK VINA RESULT:    -6.979      3.318      6.750
REMARK INTER + INTRA:          -9.893
REMARK INTER:                  -9.343
REMARK INTRA:                  -0.550
REMARK UNBOUND:                -0.874
REMARK  Name = 
REMARK  6 active torsions:
REMARK  status: ('A' for Active; 'I' for Inactive)
REMARK    1  A    between atoms: C_1  and  C_2
REMARK    2  A    between atoms: C_2  and  C_3
REMARK    3  A    between atoms: C_2  and  C_14
REMARK    4  A    between atoms: C_3  and  N_4
REMARK    5  A    between atoms: N_4  and  C_5
REMARK    6  A    between atoms: C_8  and  C_9
REMARK                            x       y       z     vdW  Elec       q    Type
REMARK                         _______ _______ _______ _____ _____    ______ ____
ROOT
ATOM      1  N   UNL     1      44.848   5.448  10.851  0.00  0.00    +0.000 N 
ATOM      2  H   UNL     1      44.168   6.203  10.858  0.00  0.00    +0.000 HD
ENDROOT
BRANCH   1   3
ATOM      3  C   UNL     1      45.839   5.624  11.832  0.00  0.00    +0.000 A 
ATOM      4  C   UNL     1      45.847   4.944  13.058  0.00  0.00    +0.000 A 
ATOM      5  C   UNL     1      46.797   5.224  14.044  0.00  0.00    +0.000 A 
ATOM      6  C   UNL     1      47.755   6.216  13.837  0.00  0.00    +0.000 A 
ATOM      7  C   UNL     1      47.755   6.922  12.631  0.00  0.00    +0.000 A 
ATOM      8  C   UNL     1      46.803   6.625  11.642  0.00  0.00    +0.000 A 
BRANCH   6   9
ATOM      9  C   UNL     1      48.702   6.507  14.945  0.00  0.00    +0.000 C 
ATOM     10  N   UNL     1      48.245   6.372  16.225  0.00  0.00    +0.000 N 
ATOM     11  O   UNL     1      49.848   6.887  14.730  0.00  0.00    +0.000 OA
ATOM     12  H   UNL     1      47.264   6.300  16.450  0.00  0.00    +0.000 HD
ATOM     13  H   UNL     1      48.876   6.674  16.956  0.00  0.00    +0.000 HD
ENDBRANCH   6   9
ENDBRANCH   1   3
BRANCH   1  14
ATOM     14  C   UNL     1      45.278   5.065   9.516  0.00  0.00    +0.000 C 
BRANCH  14  16
ATOM     15  C   UNL     1      44.158   2.841  10.225  0.00  0.00    +0.000 C 
ATOM     16  C   UNL     1      44.902   3.647   9.202  0.00  0.00    +0.000 C 
BRANCH  16  17
ATOM     17  C   UNL     1      45.728   2.924   8.206  0.00  0.00    +0.000 A 
ATOM     18  C   UNL     1      46.235   3.581   7.077  0.00  0.00    +0.000 A 
ATOM     19  C   UNL     1      47.054   2.904   6.167  0.00  0.00    +0.000 A 
ATOM     20  C   UNL     1      47.372   1.563   6.369  0.00  0.00    +0.000 A 
ATOM     21  C   UNL     1      46.860   0.891   7.473  0.00  0.00    +0.000 A 
ATOM     22  C   UNL     1      46.042   1.566   8.380  0.00  0.00    +0.000 A 
ENDBRANCH  16  17
ENDBRANCH  14  16
ENDBRANCH   1  14
TORSDOF 5
ENDMDL
MODEL 6
REMARK VINA RESULT:    -6.263      3.246      6.195
REMARK INTER + INTRA:          -8.968
REMARK INTER:                  -8.112
REMARK INTRA:                  -0.856
REMARK UNBOUND:                -0.874
REMARK  Name = 
REMARK  6 active torsions:
REMARK  status: ('A' for Active; 'I' for Inactive)
REMARK    1  A    between atoms: C_1  and  C_2
REMARK    2  A    between atoms: C_2  and  C_3
REMARK    3  A    between atoms: C_2  and  C_14
REMARK    4  A    between atoms: C_3  and  N_4
REMARK    5  A    between atoms: N_4  and  C_5
REMARK    6  A    between atoms: C_8  and  C_9
REMARK                            x       y       z     vdW  Elec       q    Type
REMARK                         _______ _______ _______ _____ _____    ______ ____
ROOT
ATOM      1  N   UNL     1      43.790   6.151  12.453  0.00  0.00    +0.000 N 
ATOM      2  H   UNL     1      43.135   6.729  12.973  0.00  0.00    +0.000 HD
ENDROOT
BRANCH   1   3
ATOM      3  C   UNL     1      45.056   6.752  12.352  0.00  0.00    +0.000 A 
ATOM      4  C   UNL     1      46.254   6.029  12.268  0.00  0.00    +0.000 A 
ATOM      5  C   UNL     1      47.497   6.668  12.270  0.00  0.00    +0.000 A 
ATOM      6  C   UNL     1      47.575   8.056  12.383  0.00  0.00    +0.000 A 
ATOM      7  C   UNL     1      46.395   8.798  12.489  0.00  0.00    +0.000 A 
ATOM      8  C   UNL     1      45.151   8.147  12.474  0.00  0.00    +0.000 A 
BRANCH   6   9
ATOM      9  C   UNL     1      48.926   8.673  12.437  0.00  0.00    +0.000 C 
ATOM     10  N   UNL     1      49.444   8.964  13.666  0.00  0.00    +0.000 N 
ATOM     11  O   UNL     1      49.551   8.944  11.418  0.00  0.00    +0.000 OA
ATOM     12  H   UNL     1      48.882   8.985  14.505  0.00  0.00    +0.000 HD
ATOM     13  H   UNL     1      50.316   9.476  13.670  0.00  0.00    +0.000 HD
ENDBRANCH   6   9
ENDBRANCH   1   3
BRANCH   1  14
ATOM     14  C   UNL     1      43.220   5.568  11.248  0.00  0.00    +0.000 C 
BRANCH  14  16
ATOM     15  C   UNL     1      43.530   3.265  12.390  0.00  0.00    +0.000 C 
ATOM     16  C   UNL     1      43.530   4.104  11.146  0.00  0.00    +0.000 C 
BRANCH  16  17
ATOM     17  C   UNL     1      44.357   3.657  10.001  0.00  0.00    +0.000 A 
ATOM     18  C   UNL     1      44.954   4.585   9.137  0.00  0.00    +0.000 A 
ATOM     19  C   UNL     1      45.772   4.157   8.086  0.00  0.00    +0.000 A 
ATOM     20  C   UNL     1      46.001   2.799   7.881  0.00  0.00    +0.000 A 
ATOM     21  C   UNL     1      45.401   1.864   8.716  0.00  0.00    +0.000 A 
ATOM     22  C   UNL     1      44.583   2.291   9.764  0.00  0.00    +0.000 A 
ENDBRANCH  16  17
ENDBRANCH  14  16
ENDBRANCH   1  14
TORSDOF 5
ENDMDL
MODEL 7
REMARK VINA RESULT:    -6.202      3.593      6.575
REMARK INTER + INTRA:          -8.889
REMARK INTER:                  -8.582
REMARK INTRA:                  -0.307
REMARK UNBOUND:                -0.874
REMARK  Name = 
REMARK  6 active torsions:
REMARK  status: ('A' for Active; 'I' for Inactive)
REMARK    1  A    between atoms: C_1  and  C_2
REMARK    2  A    between atoms: C_2  and  C_3
REMARK    3  A    between atoms: C_2  and  C_14
REMARK    4  A    between atoms: C_3  and  N_4
REMARK    5  A    between atoms: N_4  and  C_5
REMARK    6  A    between atoms: C_8  and  C_9
REMARK                            x       y       z     vdW  Elec       q    Type
REMARK                         _______ _______ _______ _____ _____    ______ ____
ROOT
ATOM      1  N   UNL     1      46.063   5.892  11.106  0.00  0.00    +0.000 N 
ATOM      2  H   UNL     1      46.479   5.323  10.374  0.00  0.00    +0.000 HD
ENDROOT
BRANCH   1   3
ATOM      3  C   UNL     1      46.619   5.615  12.367  0.00  0.00    +0.000 A 
ATOM      4  C   UNL     1      46.229   4.531  13.166  0.00  0.00    +0.000 A 
ATOM      5  C   UNL     1      46.738   4.351  14.455  0.00  0.00    +0.000 A 
ATOM      6  C   UNL     1      47.639   5.271  14.991  0.00  0.00    +0.000 A 
ATOM      7  C   UNL     1      48.028   6.371  14.221  0.00  0.00    +0.000 A 
ATOM      8  C   UNL     1      47.519   6.537  12.922  0.00  0.00    +0.000 A 
BRANCH   6   9
ATOM      9  C   UNL     1      48.102   5.057  16.387  0.00  0.00    +0.000 C 
ATOM     10  N   UNL     1      47.152   4.894  17.354  0.00  0.00    +0.000 N 
ATOM     11  O   UNL     1      49.293   5.055  16.678  0.00  0.00    +0.000 OA
ATOM     12  H   UNL     1      46.180   5.125  17.209  0.00  0.00    +0.000 HD
ATOM     13  H   UNL     1      47.490   4.853  18.306  0.00  0.00    +0.000 HD
ENDBRANCH   6   9
ENDBRANCH   1   3
BRANCH   1  14
ATOM     14  C   UNL     1      44.615   5.991  11.014  0.00  0.00    +0.000 C 
BRANCH  14  16
ATOM     15  C   UNL     1      43.036   3.982  11.430  0.00  0.00    +0.000 C 
ATOM     16  C   UNL     1      44.004   4.705  10.541  0.00  0.00    +0.000 C 
BRANCH  16  17
ATOM     17  C   UNL     1      44.761   3.915   9.541  0.00  0.00    +0.000 A 
ATOM     18  C   UNL     1      45.427   4.543   8.480  0.00  0.00    +0.000 A 
ATOM     19  C   UNL     1      46.178   3.795   7.568  0.00  0.00    +0.000 A 
ATOM     20  C   UNL     1      46.270   2.412   7.699  0.00  0.00    +0.000 A 
ATOM     21  C   UNL     1      45.599   1.770   8.733  0.00  0.00    +0.000 A 
ATOM     22  C   UNL     1      44.848   2.517   9.643  0.00  0.00    +0.000 A 
ENDBRANCH  16  17
ENDBRANCH  14  16
ENDBRANCH   1  14
TORSDOF 5
ENDMDL
MODEL 8
REMARK VINA RESULT:    -5.795      4.011      5.858
REMARK INTER + INTRA:          -8.363
REMARK INTER:                  -7.724
REMARK INTRA:                  -0.639
REMARK UNBOUND:                -0.874
REMARK  Name = 
REMARK  6 active torsions:
REMARK  status: ('A' for Active; 'I' for Inactive)
REMARK    1  A    between atoms: C_1  and  C_2
REMARK    2  A    between atoms: C_2  and  C_3
REMARK    3  A    between atoms: C_2  and  C_14
REMARK    4  A    between atoms: C_3  and  N_4
REMARK    5  A    between atoms: N_4  and  C_5
REMARK    6  A    between atoms: C_8  and  C_9
REMARK                            x       y       z     vdW  Elec       q    Type
REMARK                         _______ _______ _______ _____ _____    ______ ____
ROOT
ATOM      1  N   UNL     1      47.202   7.037  13.886  0.00  0.00    +0.000 N 
ATOM      2  H   UNL     1      46.578   7.309  14.641  0.00  0.00    +0.000 HD
ENDROOT
BRANCH   1   3
ATOM      3  C   UNL     1      46.554   6.236  12.931  0.00  0.00    +0.000 A 
ATOM      4  C   UNL     1      46.398   6.602  11.587  0.00  0.00    +0.000 A 
ATOM      5  C   UNL     1      45.660   5.819  10.695  0.00  0.00    +0.000 A 
ATOM      6  C   UNL     1      45.031   4.655  11.135  0.00  0.00    +0.000 A 
ATOM      7  C   UNL     1      45.154   4.279  12.476  0.00  0.00    +0.000 A 
ATOM      8  C   UNL     1      45.908   5.066  13.361  0.00  0.00    +0.000 A 
BRANCH   6   9
ATOM      9  C   UNL     1      44.213   3.895  10.154  0.00  0.00    +0.000 C 
ATOM     10  N   UNL     1      44.079   4.416   8.899  0.00  0.00    +0.000 N 
ATOM     11  O   UNL     1      43.647   2.851  10.458  0.00  0.00    +0.000 OA
ATOM     12  H   UNL     1      44.317   5.372   8.676  0.00  0.00    +0.000 HD
ATOM     13  H   UNL     1      43.436   3.934   8.285  0.00  0.00    +0.000 HD
ENDBRANCH   6   9
ENDBRANCH   1   3
BRANCH   1  14
ATOM     14  C   UNL     1      48.517   6.617  14.342  0.00  0.00    +0.000 C 
BRANCH  14  16
ATOM     15  C   UNL     1      49.282   7.869  16.475  0.00  0.00    +0.000 C 
ATOM     16  C   UNL     1      48.628   6.679  15.837  0.00  0.00    +0.000 C 
BRANCH  16  17
ATOM     17  C   UNL     1      48.633   5.395  16.577  0.00  0.00    +0.000 A 
ATOM     18  C   UNL     1      49.735   5.015  17.355  0.00  0.00    +0.000 A 
ATOM     19  C   UNL     1      49.712   3.825  18.088  0.00  0.00    +0.000 A 
ATOM     20  C   UNL     1      48.594   2.996  18.050  0.00  0.00    +0.000 A 
ATOM     21  C   UNL     1      47.500   3.347  17.268  0.00  0.00    +0.000 A 
ATOM     22  C   UNL     1      47.523   4.535  16.535  0.00  0.00    +0.000 A 
ENDBRANCH  16  17
ENDBRANCH  14  16
ENDBRANCH   1  14
TORSDOF 5
ENDMDL
MODEL 9
REMARK VINA RESULT:    -5.555      5.021      7.672
REMARK INTER + INTRA:          -8.053
REMARK INTER:                  -7.666
REMARK INTRA:                  -0.387
REMARK UNBOUND:                -0.874
REMARK  Name = 
REMARK  6 active torsions:
REMARK  status: ('A' for Active; 'I' for Inactive)
REMARK    1  A    between atoms: C_1  and  C_2
REMARK    2  A    between atoms: C_2  and  C_3
REMARK    3  A    between atoms: C_2  and  C_14
REMARK    4  A    between atoms: C_3  and  N_4
REMARK    5  A    between atoms: N_4  and  C_5
REMARK    6  A    between atoms: C_8  and  C_9
REMARK                            x       y       z     vdW  Elec       q    Type
REMARK                         _______ _______ _______ _____ _____    ______ ____
ROOT
ATOM      1  N   UNL     1      46.812   5.763  13.705  0.00  0.00    +0.000 N 
ATOM      2  H   UNL     1      47.452   6.246  13.080  0.00  0.00    +0.000 HD
ENDROOT
BRANCH   1   3
ATOM      3  C   UNL     1      47.460   5.288  14.857  0.00  0.00    +0.000 A 
ATOM      4  C   UNL     1      47.140   4.074  15.482  0.00  0.00    +0.000 A 
ATOM      5  C   UNL     1      47.742   3.688  16.683  0.00  0.00    +0.000 A 
ATOM      6  C   UNL     1      48.668   4.524  17.306  0.00  0.00    +0.000 A 
ATOM      7  C   UNL     1      48.989   5.748  16.713  0.00  0.00    +0.000 A 
ATOM      8  C   UNL     1      48.387   6.121  15.500  0.00  0.00    +0.000 A 
BRANCH   6   9
ATOM      9  C   UNL     1      49.232   4.084  18.610  0.00  0.00    +0.000 C 
ATOM     10  N   UNL     1      48.502   3.203  19.354  0.00  0.00    +0.000 N 
ATOM     11  O   UNL     1      50.300   4.516  19.028  0.00  0.00    +0.000 OA
ATOM     12  H   UNL     1      47.527   3.010  19.172  0.00  0.00    +0.000 HD
ATOM     13  H   UNL     1      48.858   3.001  20.279  0.00  0.00    +0.000 HD
ENDBRANCH   6   9
ENDBRANCH   1   3
BRANCH   1  14
ATOM     14  C   UNL     1      45.902   4.859  13.019  0.00  0.00    +0.000 C 
BRANCH  14  16
ATOM     15  C   UNL     1      44.490   6.670  11.824  0.00  0.00    +0.000 C 
ATOM     16  C   UNL     1      45.379   5.465  11.749  0.00  0.00    +0.000 C 
BRANCH  16  17
ATOM     17  C   UNL     1      45.261   4.579  10.567  0.00  0.00    +0.000 A 
ATOM     18  C   UNL     1      45.695   5.002   9.303  0.00  0.00    +0.000 A 
ATOM     19  C   UNL     1      45.626   4.142   8.202  0.00  0.00    +0.000 A 
ATOM     20  C   UNL     1      45.117   2.853   8.346  0.00  0.00    +0.000 A 
ATOM     21  C   UNL     1      44.664   2.425   9.588  0.00  0.00    +0.000 A 
ATOM     22  C   UNL     1      44.732   3.283  10.687  0.00  0.00    +0.000 A 
ENDBRANCH  16  17
ENDBRANCH  14  16
ENDBRANCH   1  14
TORSDOF 5
ENDMDL
