MODEL 1
REMARK VINA RESULT:    -6.315      0.000      0.000
REMARK INTER + INTRA:          -8.631
REMARK INTER:                  -7.791
REMARK INTRA:                  -0.840
REMARK UNBOUND:                -0.840
REMARK  Name = 
REMARK  7 active torsions:
REMARK  status: ('A' for Active; 'I' for Inactive)
REMARK    1  A    between atoms: C_1  and  C_2
REMARK    2  A    between atoms: C_2  and  C_3
REMARK    3  A    between atoms: C_2  and  C_4
REMARK    4  A    between atoms: C_2  and  C_5
REMARK    5  A    between atoms: C_10  and  C_11
REMARK    6  A    between atoms: N_16  and  C_17
REMARK    7  A    between atoms: C_17  and  C_18
REMARK                            x       y       z     vdW  Elec       q    Type
REMARK                         _______ _______ _______ _____ _____    ______ ____
ROOT
ATOM      1  C   UNL     1      48.017   6.543  14.329  0.00  0.00    +0.000 A 
ATOM      2  N   UNL     1      47.688   5.289  14.600  0.00  0.00    +0.000 NA
ATOM      3  C   UNL     1      46.853   4.870  13.625  0.00  0.00    +0.000 A 
ATOM      4  N   UNL     1      46.245   3.668  13.604  0.00  0.00    +0.000 NA
ATOM      5  C   UNL     1      45.420   3.478  12.552  0.00  0.00    +0.000 A 
ATOM      6  C   UNL     1      45.181   4.392  11.525  0.00  0.00    +0.000 A 
ATOM      7  C   UNL     1      45.832   5.634  11.562  0.00  0.00    +0.000 A 
ATOM      8  C   UNL     1      46.680   5.847  12.663  0.00  0.00    +0.000 A 
ATOM      9  N   UNL     1      47.480   6.906  13.092  0.00  0.00    +0.000 N 
ENDROOT
BRANCH   6  10
ATOM     10  C   UNL     1      44.243   3.969  10.453  0.00  0.00    +0.000 C 
ATOM     11  N   UNL     1      44.225   4.663   9.273  0.00  0.00    +0.000 N 
ATOM     12  O   UNL     1      43.491   3.015  10.605  0.00  0.00    +0.000 OA
ATOM     13  H   UNL     1      44.768   5.483   9.070  0.00  0.00    +0.000 HD
ATOM     14  H   UNL     1      43.559   4.351   8.577  0.00  0.00    +0.000 HD
ENDBRANCH   6  10
BRANCH   1  16
ATOM     15  C   UNL     1      50.325   7.393  14.767  0.00  0.00    +0.000 C 
ATOM     16  C   UNL     1      48.892   7.315  15.320  0.00  0.00    +0.000 C 
ATOM     17  C   UNL     1      48.943   6.498  16.647  0.00  0.00    +0.000 C 
ATOM     18  C   UNL     1      48.401   8.712  15.706  0.00  0.00    +0.000 C 
ENDBRANCH   1  16
BRANCH   9  19
ATOM     19  C   UNL     1      47.484   8.195  12.410  0.00  0.00    +0.000 C 
BRANCH  19  20
ATOM     20  C   UNL     1      48.781   8.666  11.789  0.00  0.00    +0.000 A 
ATOM     21  C   UNL     1      49.218   9.989  11.775  0.00  0.00    +0.000 A 
ATOM     22  C   UNL     1      50.534  10.270  11.394  0.00  0.00    +0.000 A 
ATOM     23  C   UNL     1      51.380   9.235  11.019  0.00  0.00    +0.000 A 
ATOM     24  C   UNL     1      50.865   7.954  11.012  0.00  0.00    +0.000 A 
ATOM     25  N   UNL     1      49.601   7.654  11.391  0.00  0.00    +0.000 NA
ENDBRANCH  19  20
ENDBRANCH   9  19
TORSDOF 4
ENDMDL
MODEL 2
REMARK VINA RESULT:    -6.105      1.856      4.411
REMARK INTER + INTRA:          -8.373
REMARK INTER:                  -7.645
REMARK INTRA:                  -0.727
REMARK UNBOUND:                -0.840
REMARK  Name = 
REMARK  7 active torsions:
REMARK  status: ('A' for Active; 'I' for Inactive)
REMARK    1  A    between atoms: C_1  and  C_2
REMARK    2  A    between atoms: C_2  and  C_3
REMARK    3  A    between atoms: C_2  and  C_4
REMARK    4  A    between atoms: C_2  and  C_5
REMARK    5  A    between atoms: C_10  and  C_11
REMARK    6  A    between atoms: N_16  and  C_17
REMARK    7  A    between atoms: C_17  and  C_18
REMARK                            x       y       z     vdW  Elec       q    Type
REMARK                         _______ _______ _______ _____ _____    ______ ____
ROOT
ATOM      1  C   UNL     1      46.469   7.837  12.362  0.00  0.00    +0.000 A 
ATOM      2  N   UNL     1      45.297   7.953  11.755  0.00  0.00    +0.000 NA
ATOM      3  C   UNL     1      44.833   6.705  11.531  0.00  0.00    +0.000 A 
ATOM      4  N   UNL     1      43.701   6.420  10.859  0.00  0.00    +0.000 NA
ATOM      5  C   UNL     1      43.452   5.099  10.719  0.00  0.00    +0.000 A 
ATOM      6  C   UNL     1      44.241   4.062  11.216  0.00  0.00    +0.000 A 
ATOM      7  C   UNL     1      45.411   4.382  11.921  0.00  0.00    +0.000 A 
ATOM      8  C   UNL     1      45.687   5.753  12.057  0.00  0.00    +0.000 A 
ATOM      9  N   UNL     1      46.714   6.491  12.644  0.00  0.00    +0.000 N 
ENDROOT
BRANCH   6  10
ATOM     10  C   UNL     1      43.770   2.676  10.959  0.00  0.00    +0.000 C 
ATOM     11  N   UNL     1      44.308   1.974   9.914  0.00  0.00    +0.000 N 
ATOM     12  O   UNL     1      42.915   2.154  11.662  0.00  0.00    +0.000 OA
ATOM     13  H   UNL     1      44.979   2.328   9.257  0.00  0.00    +0.000 HD
ATOM     14  H   UNL     1      43.946   1.040   9.766  0.00  0.00    +0.000 HD
ENDBRANCH   6  10
BRANCH   1  16
ATOM     15  C   UNL     1      47.450   9.234  14.187  0.00  0.00    +0.000 C 
ATOM     16  C   UNL     1      47.279   9.101  12.664  0.00  0.00    +0.000 C 
ATOM     17  C   UNL     1      46.450  10.326  12.174  0.00  0.00    +0.000 C 
ATOM     18  C   UNL     1      48.639   9.210  11.970  0.00  0.00    +0.000 C 
ENDBRANCH   1  16
BRANCH   9  19
ATOM     19  C   UNL     1      47.896   5.853  13.211  0.00  0.00    +0.000 C 
BRANCH  19  20
ATOM     20  C   UNL     1      47.865   5.476  14.677  0.00  0.00    +0.000 A 
ATOM     21  C   UNL     1      47.105   4.439  15.212  0.00  0.00    +0.000 A 
ATOM     22  C   UNL     1      47.341   4.028  16.527  0.00  0.00    +0.000 A 
ATOM     23  C   UNL     1      48.311   4.667  17.288  0.00  0.00    +0.000 A 
ATOM     24  C   UNL     1      48.992   5.719  16.707  0.00  0.00    +0.000 A 
ATOM     25  N   UNL     1      48.796   6.125  15.432  0.00  0.00    +0.000 NA
ENDBRANCH  19  20
ENDBRANCH   9  19
TORSDOF 4
ENDMDL
MODEL 3
REMARK VINA RESULT:    -6.090      3.048      5.661
REMARK INTER + INTRA:          -8.353
REMARK INTER:                  -7.637
REMARK INTRA:                  -0.717
REMARK UNBOUND:                -0.840
REMARK  Name = 
REMARK  7 active torsions:
REMARK  status: ('A' for Active; 'I' for Inactive)
REMARK    1  A    between atoms: C_1  and  C_2
REMARK    2  A    between atoms: C_2  and  C_3
REMARK    3  A    between atoms: C_2  and  C_4
REMARK    4  A    between atoms: C_2  and  C_5
REMARK    5  A    between atoms: C_10  and  C_11
REMARK    6  A    between atoms: N_16  and  C_17
REMARK    7  A    between atoms: C_17  and  C_18
REMARK                            x       y       z     vdW  Elec       q    Type
REMARK                         _______ _______ _______ _____ _____    ______ ____
ROOT
ATOM      1  C   UNL     1      45.253   4.634  12.453  0.00  0.00    +0.000 A 
ATOM      2  N   UNL     1      45.343   3.945  13.581  0.00  0.00    +0.000 NA
ATOM      3  C   UNL     1      46.330   4.500  14.317  0.00  0.00    +0.000 A 
ATOM      4  N   UNL     1      46.766   4.020  15.497  0.00  0.00    +0.000 NA
ATOM      5  C   UNL     1      47.792   4.713  16.037  0.00  0.00    +0.000 A 
ATOM      6  C   UNL     1      48.387   5.850  15.491  0.00  0.00    +0.000 A 
ATOM      7  C   UNL     1      47.911   6.339  14.265  0.00  0.00    +0.000 A 
ATOM      8  C   UNL     1      46.856   5.613  13.686  0.00  0.00    +0.000 A 
ATOM      9  N   UNL     1      46.117   5.730  12.509  0.00  0.00    +0.000 N 
ENDROOT
BRANCH   6  10
ATOM     10  C   UNL     1      49.496   6.466  16.265  0.00  0.00    +0.000 C 
ATOM     11  N   UNL     1      49.248   7.594  16.999  0.00  0.00    +0.000 N 
ATOM     12  O   UNL     1      50.622   5.984  16.258  0.00  0.00    +0.000 OA
ATOM     13  H   UNL     1      48.375   8.088  17.034  0.00  0.00    +0.000 HD
ATOM     14  H   UNL     1      50.037   7.989  17.498  0.00  0.00    +0.000 HD
ENDBRANCH   6  10
BRANCH   1  16
ATOM     15  C   UNL     1      43.200   5.260  11.175  0.00  0.00    +0.000 C 
ATOM     16  C   UNL     1      44.269   4.173  11.375  0.00  0.00    +0.000 C 
ATOM     17  C   UNL     1      43.549   2.895  11.902  0.00  0.00    +0.000 C 
ATOM     18  C   UNL     1      44.881   3.783  10.027  0.00  0.00    +0.000 C 
ENDBRANCH   1  16
BRANCH   9  19
ATOM     19  C   UNL     1      46.444   6.719  11.489  0.00  0.00    +0.000 C 
BRANCH  19  20
ATOM     20  C   UNL     1      46.074   8.162  11.755  0.00  0.00    +0.000 A 
ATOM     21  C   UNL     1      46.984   9.165  12.084  0.00  0.00    +0.000 A 
ATOM     22  C   UNL     1      46.566  10.499  12.067  0.00  0.00    +0.000 A 
ATOM     23  C   UNL     1      45.251  10.807  11.743  0.00  0.00    +0.000 A 
ATOM     24  C   UNL     1      44.394   9.759  11.475  0.00  0.00    +0.000 A 
ATOM     25  N   UNL     1      44.777   8.461  11.467  0.00  0.00    +0.000 NA
ENDBRANCH  19  20
ENDBRANCH   9  19
TORSDOF 4
ENDMDL
MODEL 4
REMARK VINA RESULT:    -5.670      2.796      5.279
REMARK INTER + INTRA:          -7.835
REMARK INTER:                  -7.200
REMARK INTRA:                  -0.635
REMARK UNBOUND:                -0.840
REMARK  Name = 
REMARK  7 active torsions:
REMARK  status: ('A' for Active; 'I' for Inactive)
REMARK    1  A    between atoms: C_1  and  C_2
REMARK    2  A    between atoms: C_2  and  C_3
REMARK    3  A    between atoms: C_2  and  C_4
REMARK    4  A    between atoms: C_2  and  C_5
REMARK    5  A    between atoms: C_10  and  C_11
REMARK    6  A    between atoms: N_16  and  C_17
REMARK    7  A    between atoms: C_17  and  C_18
REMARK                            x       y       z     vdW  Elec       q    Type
REMARK                         _______ _______ _______ _____ _____    ______ ____
ROOT
ATOM      1  C   UNL     1      45.595   4.560  12.306  0.00  0.00    +0.000 A 
ATOM      2  N   UNL     1      45.998   3.431  12.869  0.00  0.00    +0.000 NA
ATOM      3  C   UNL     1      46.746   3.760  13.944  0.00  0.00    +0.000 A 
ATOM      4  N   UNL     1      47.396   2.874  14.723  0.00  0.00    +0.000 NA
ATOM      5  C   UNL     1      48.118   3.431  15.720  0.00  0.00    +0.000 A 
ATOM      6  C   UNL     1      48.215   4.795  15.995  0.00  0.00    +0.000 A 
ATOM      7  C   UNL     1      47.523   5.699  15.176  0.00  0.00    +0.000 A 
ATOM      8  C   UNL     1      46.783   5.130  14.125  0.00  0.00    +0.000 A 
ATOM      9  N   UNL     1      45.990   5.640  13.098  0.00  0.00    +0.000 N 
ENDROOT
BRANCH   6  10
ATOM     10  C   UNL     1      49.056   5.189  17.155  0.00  0.00    +0.000 C 
ATOM     11  N   UNL     1      48.492   5.916  18.169  0.00  0.00    +0.000 N 
ATOM     12  O   UNL     1      50.238   4.875  17.220  0.00  0.00    +0.000 OA
ATOM     13  H   UNL     1      47.549   6.258  18.187  0.00  0.00    +0.000 HD
ATOM     14  H   UNL     1      49.106   6.176  18.931  0.00  0.00    +0.000 HD
ENDBRANCH   6  10
BRANCH   1  16
ATOM     15  C   UNL     1      44.671   3.029  10.560  0.00  0.00    +0.000 C 
ATOM     16  C   UNL     1      44.794   4.497  11.002  0.00  0.00    +0.000 C 
ATOM     17  C   UNL     1      45.607   5.252   9.908  0.00  0.00    +0.000 C 
ATOM     18  C   UNL     1      43.413   5.156  11.029  0.00  0.00    +0.000 C 
ENDBRANCH   1  16
BRANCH   9  19
ATOM     19  C   UNL     1      45.866   7.073  12.858  0.00  0.00    +0.000 C 
BRANCH  19  20
ATOM     20  C   UNL     1      47.131   7.862  12.600  0.00  0.00    +0.000 A 
ATOM     21  C   UNL     1      48.178   7.436  11.785  0.00  0.00    +0.000 A 
ATOM     22  C   UNL     1      49.178   8.345  11.427  0.00  0.00    +0.000 A 
ATOM     23  C   UNL     1      49.127   9.650  11.900  0.00  0.00    +0.000 A 
ATOM     24  C   UNL     1      48.087   9.988  12.741  0.00  0.00    +0.000 A 
ATOM     25  N   UNL     1      47.097   9.133  13.089  0.00  0.00    +0.000 NA
ENDBRANCH  19  20
ENDBRANCH   9  19
TORSDOF 4
ENDMDL
MODEL 5
REMARK VINA RESULT:    -5.657      1.518      1.968
REMARK INTER + INTRA:          -7.820
REMARK INTER:                  -7.246
REMARK INTRA:                  -0.575
REMARK UNBOUND:                -0.840
REMARK  Name = 
REMARK  7 active torsions:
REMARK  status: ('A' for Active; 'I' for Inactive)
REMARK    1  A    between atoms: C_1  and  C_2
REMARK    2  A    between atoms: C_2  and  C_3
REMARK    3  A    between atoms: C_2  and  C_4
REMARK    4  A    between atoms: C_2  and  C_5
REMARK    5  A    between atoms: C_10  and  C_11
REMARK    6  A    between atoms: N_16  and  C_17
REMARK    7  A    between atoms: C_17  and  C_18
REMARK                            x       y       z     vdW  Elec       q    Type
REMARK                         _______ _______ _______ _____ _____    ______ ____
ROOT
ATOM      1  C   UNL     1      48.320   5.841  15.551  0.00  0.00    +0.000 A 
ATOM      2  N   UNL     1      47.621   4.720  15.468  0.00  0.00    +0.000 NA
ATOM      3  C   UNL     1      46.945   4.750  14.299  0.00  0.00    +0.000 A 
ATOM      4  N   UNL     1      46.063   3.814  13.902  0.00  0.00    +0.000 NA
ATOM      5  C   UNL     1      45.474   4.070  12.713  0.00  0.00    +0.000 A 
ATOM      6  C   UNL     1      45.722   5.176  11.900  0.00  0.00    +0.000 A 
ATOM      7  C   UNL     1      46.652   6.134  12.329  0.00  0.00    +0.000 A 
ATOM      8  C   UNL     1      47.257   5.885  13.573  0.00  0.00    +0.000 A 
ATOM      9  N   UNL     1      48.190   6.559  14.360  0.00  0.00    +0.000 N 
ENDROOT
BRANCH   6  10
ATOM     10  C   UNL     1      44.971   5.251  10.620  0.00  0.00    +0.000 C 
ATOM     11  N   UNL     1      45.660   5.462   9.456  0.00  0.00    +0.000 N 
ATOM     12  O   UNL     1      43.753   5.127  10.588  0.00  0.00    +0.000 OA
ATOM     13  H   UNL     1      46.648   5.619   9.383  0.00  0.00    +0.000 HD
ATOM     14  H   UNL     1      45.106   5.523   8.610  0.00  0.00    +0.000 HD
ENDBRANCH   6  10
BRANCH   1  16
ATOM     15  C   UNL     1      48.666   7.470  17.415  0.00  0.00    +0.000 C 
ATOM     16  C   UNL     1      49.123   6.125  16.824  0.00  0.00    +0.000 C 
ATOM     17  C   UNL     1      50.621   6.274  16.419  0.00  0.00    +0.000 C 
ATOM     18  C   UNL     1      49.085   5.038  17.900  0.00  0.00    +0.000 C 
ENDBRANCH   1  16
BRANCH   9  19
ATOM     19  C   UNL     1      48.687   7.882  14.004  0.00  0.00    +0.000 C 
BRANCH  19  20
ATOM     20  C   UNL     1      49.905   7.967  13.111  0.00  0.00    +0.000 A 
ATOM     21  C   UNL     1      49.915   7.657  11.753  0.00  0.00    +0.000 A 
ATOM     22  C   UNL     1      51.028   8.004  10.980  0.00  0.00    +0.000 A 
ATOM     23  C   UNL     1      52.113   8.633  11.576  0.00  0.00    +0.000 A 
ATOM     24  C   UNL     1      52.054   8.865  12.936  0.00  0.00    +0.000 A 
ATOM     25  N   UNL     1      50.983   8.556  13.702  0.00  0.00    +0.000 NA
ENDBRANCH  19  20
ENDBRANCH   9  19
TORSDOF 4
ENDMDL
MODEL 6
REMARK VINA RESULT:    -5.610      2.580      5.806
REMARK INTER + INTRA:          -7.762
REMARK INTER:                  -7.060
REMARK INTRA:                  -0.702
REMARK UNBOUND:                -0.840
REMARK  Name = 
REMARK  7 active torsions:
REMARK  status: ('A' for Active; 'I' for Inactive)
REMARK    1  A    between atoms: C_1  and  C_2
REMARK    2  A    between atoms: C_2  and  C_3
REMARK    3  A    between atoms: C_2  and  C_4
REMARK    4  A    between atoms: C_2  and  C_5
REMARK    5  A    between atoms: C_10  and  C_11
REMARK    6  A    between atoms: N_16  and  C_17
REMARK    7  A    between atoms: C_17  and  C_18
REMARK                            x       y       z     vdW  Elec       q    Type
REMARK                         _______ _______ _______ _____ _____    ______ ____
ROOT
ATOM      1  C   UNL     1      48.453   7.711  13.843  0.00  0.00    +0.000 A 
ATOM      2  N   UNL     1      48.881   7.969  15.070  0.00  0.00    +0.000 NA
ATOM      3  C   UNL     1      48.613   6.885  15.829  0.00  0.00    +0.000 A 
ATOM      4  N   UNL     1      48.834   6.807  17.155  0.00  0.00    +0.000 NA
ATOM      5  C   UNL     1      48.452   5.639  17.717  0.00  0.00    +0.000 A 
ATOM      6  C   UNL     1      47.889   4.555  17.044  0.00  0.00    +0.000 A 
ATOM      7  C   UNL     1      47.676   4.654  15.662  0.00  0.00    +0.000 A 
ATOM      8  C   UNL     1      48.055   5.872  15.071  0.00  0.00    +0.000 A 
ATOM      9  N   UNL     1      48.006   6.389  13.777  0.00  0.00    +0.000 N 
ENDROOT
BRANCH   6  10
ATOM     10  C   UNL     1      47.556   3.357  17.860  0.00  0.00    +0.000 C 
ATOM     11  N   UNL     1      48.311   3.075  18.967  0.00  0.00    +0.000 N 
ATOM     12  O   UNL     1      46.623   2.623  17.561  0.00  0.00    +0.000 OA
ATOM     13  H   UNL     1      49.120   3.588  19.268  0.00  0.00    +0.000 HD
ATOM     14  H   UNL     1      48.059   2.241  19.483  0.00  0.00    +0.000 HD
ENDBRANCH   6  10
BRANCH   1  16
ATOM     15  C   UNL     1      49.538   8.362  11.689  0.00  0.00    +0.000 C 
ATOM     16  C   UNL     1      48.544   8.805  12.776  0.00  0.00    +0.000 C 
ATOM     17  C   UNL     1      49.125  10.083  13.453  0.00  0.00    +0.000 C 
ATOM     18  C   UNL     1      47.222   9.234  12.137  0.00  0.00    +0.000 C 
ENDBRANCH   1  16
BRANCH   9  19
ATOM     19  C   UNL     1      47.364   5.671  12.683  0.00  0.00    +0.000 C 
BRANCH  19  20
ATOM     20  C   UNL     1      45.908   5.288  12.842  0.00  0.00    +0.000 A 
ATOM     21  C   UNL     1      44.855   6.196  12.925  0.00  0.00    +0.000 A 
ATOM     22  C   UNL     1      43.541   5.730  12.825  0.00  0.00    +0.000 A 
ATOM     23  C   UNL     1      43.301   4.371  12.663  0.00  0.00    +0.000 A 
ATOM     24  C   UNL     1      44.391   3.525  12.637  0.00  0.00    +0.000 A 
ATOM     25  N   UNL     1      45.672   3.952  12.715  0.00  0.00    +0.000 NA
ENDBRANCH  19  20
ENDBRANCH   9  19
TORSDOF 4
ENDMDL
MODEL 7
REMARK VINA RESULT:    -5.112      3.229      5.732
REMARK INTER + INTRA:          -7.148
REMARK INTER:                  -6.468
REMARK INTRA:                  -0.680
REMARK UNBOUND:                -0.840
REMARK  Name = 
REMARK  7 active torsions:
REMARK  status: ('A' for Active; 'I' for Inactive)
REMARK    1  A    between atoms: C_1  and  C_2
REMARK    2  A    between atoms: C_2  and  C_3
REMARK    3  A    between atoms: C_2  and  C_4
REMARK    4  A    between atoms: C_2  and  C_5
REMARK    5  A    between atoms: C_10  and  C_11
REMARK    6  A    between atoms: N_16  and  C_17
REMARK    7  A    between atoms: C_17  and  C_18
REMARK                            x       y       z     vdW  Elec       q    Type
REMARK                         _______ _______ _______ _____ _____    ______ ____
ROOT
ATOM      1  C   UNL     1      47.535   6.528  13.579  0.00  0.00    +0.000 A 
ATOM      2  N   UNL     1      46.907   5.393  13.846  0.00  0.00    +0.000 NA
ATOM      3  C   UNL     1      47.384   4.932  15.021  0.00  0.00    +0.000 A 
ATOM      4  N   UNL     1      47.039   3.755  15.577  0.00  0.00    +0.000 NA
ATOM      5  C   UNL     1      47.673   3.478  16.738  0.00  0.00    +0.000 A 
ATOM      6  C   UNL     1      48.603   4.299  17.376  0.00  0.00    +0.000 A 
ATOM      7  C   UNL     1      48.942   5.524  16.784  0.00  0.00    +0.000 A 
ATOM      8  C   UNL     1      48.300   5.813  15.567  0.00  0.00    +0.000 A 
ATOM      9  N   UNL     1      48.351   6.871  14.661  0.00  0.00    +0.000 N 
ENDROOT
BRANCH   6  10
ATOM     10  C   UNL     1      49.169   3.803  18.658  0.00  0.00    +0.000 C 
ATOM     11  N   UNL     1      48.367   3.088  19.506  0.00  0.00    +0.000 N 
ATOM     12  O   UNL     1      50.333   4.020  18.966  0.00  0.00    +0.000 OA
ATOM     13  H   UNL     1      47.391   2.896  19.365  0.00  0.00    +0.000 HD
ATOM     14  H   UNL     1      48.789   2.784  20.375  0.00  0.00    +0.000 HD
ENDBRANCH   6  10
BRANCH   1  16
ATOM     15  C   UNL     1      46.409   8.493  12.524  0.00  0.00    +0.000 C 
ATOM     16  C   UNL     1      47.258   7.240  12.252  0.00  0.00    +0.000 C 
ATOM     17  C   UNL     1      46.411   6.280  11.365  0.00  0.00    +0.000 C 
ATOM     18  C   UNL     1      48.487   7.608  11.417  0.00  0.00    +0.000 C 
ENDBRANCH   1  16
BRANCH   9  19
ATOM     19  C   UNL     1      49.300   7.968  14.807  0.00  0.00    +0.000 C 
BRANCH  19  20
ATOM     20  C   UNL     1      48.866   9.182  15.599  0.00  0.00    +0.000 A 
ATOM     21  C   UNL     1      48.109   9.137  16.768  0.00  0.00    +0.000 A 
ATOM     22  C   UNL     1      47.977  10.294  17.541  0.00  0.00    +0.000 A 
ATOM     23  C   UNL     1      48.582  11.474  17.128  0.00  0.00    +0.000 A 
ATOM     24  C   UNL     1      49.276  11.456  15.935  0.00  0.00    +0.000 A 
ATOM     25  N   UNL     1      49.434  10.347  15.177  0.00  0.00    +0.000 NA
ENDBRANCH  19  20
ENDBRANCH   9  19
TORSDOF 4
ENDMDL
MODEL 8
REMARK VINA RESULT:    -4.996      2.921      4.360
REMARK INTER + INTRA:          -7.004
REMARK INTER:                  -6.155
REMARK INTRA:                  -0.849
REMARK UNBOUND:                -0.840
REMARK  Name = 
REMARK  7 active torsions:
REMARK  status: ('A' for Active; 'I' for Inactive)
REMARK    1  A    between atoms: C_1  and  C_2
REMARK    2  A    between atoms: C_2  and  C_3
REMARK    3  A    between atoms: C_2  and  C_4
REMARK    4  A    between atoms: C_2  and  C_5
REMARK    5  A    between atoms: C_10  and  C_11
REMARK    6  A    between atoms: N_16  and  C_17
REMARK    7  A    between atoms: C_17  and  C_18
REMARK                            x       y       z     vdW  Elec       q    Type
REMARK                         _______ _______ _______ _____ _____    ______ ____
ROOT
ATOM      1  C   UNL     1      48.558   4.901  16.318  0.00  0.00    +0.000 A 
ATOM      2  N   UNL     1      47.577   4.120  15.892  0.00  0.00    +0.000 NA
ATOM      3  C   UNL     1      47.022   4.717  14.816  0.00  0.00    +0.000 A 
ATOM      4  N   UNL     1      45.940   4.256  14.159  0.00  0.00    +0.000 NA
ATOM      5  C   UNL     1      45.533   5.037  13.135  0.00  0.00    +0.000 A 
ATOM      6  C   UNL     1      46.141   6.223  12.721  0.00  0.00    +0.000 A 
ATOM      7  C   UNL     1      47.272   6.680  13.413  0.00  0.00    +0.000 A 
ATOM      8  C   UNL     1      47.692   5.882  14.491  0.00  0.00    +0.000 A 
ATOM      9  N   UNL     1      48.720   5.967  15.430  0.00  0.00    +0.000 N 
ENDROOT
BRANCH   6  10
ATOM     10  C   UNL     1      45.534   6.918  11.556  0.00  0.00    +0.000 C 
ATOM     11  N   UNL     1      45.123   6.178  10.480  0.00  0.00    +0.000 N 
ATOM     12  O   UNL     1      45.394   8.134  11.542  0.00  0.00    +0.000 OA
ATOM     13  H   UNL     1      45.234   5.186  10.377  0.00  0.00    +0.000 HD
ATOM     14  H   UNL     1      44.730   6.695   9.702  0.00  0.00    +0.000 HD
ENDBRANCH   6  10
BRANCH   1  16
ATOM     15  C   UNL     1      49.071   3.030  17.892  0.00  0.00    +0.000 C 
ATOM     16  C   UNL     1      49.316   4.518  17.592  0.00  0.00    +0.000 C 
ATOM     17  C   UNL     1      48.715   5.342  18.770  0.00  0.00    +0.000 C 
ATOM     18  C   UNL     1      50.818   4.815  17.595  0.00  0.00    +0.000 C 
ENDBRANCH   1  16
BRANCH   9  19
ATOM     19  C   UNL     1      49.596   7.130  15.512  0.00  0.00    +0.000 C 
BRANCH  19  20
ATOM     20  C   UNL     1      49.263   8.199  16.529  0.00  0.00    +0.000 A 
ATOM     21  C   UNL     1      48.064   8.908  16.571  0.00  0.00    +0.000 A 
ATOM     22  C   UNL     1      47.772   9.691  17.692  0.00  0.00    +0.000 A 
ATOM     23  C   UNL     1      48.683   9.768  18.738  0.00  0.00    +0.000 A 
ATOM     24  C   UNL     1      49.870   9.077  18.606  0.00  0.00    +0.000 A 
ATOM     25  N   UNL     1      50.170   8.299  17.541  0.00  0.00    +0.000 NA
ENDBRANCH  19  20
ENDBRANCH   9  19
TORSDOF 4
ENDMDL
MODEL 9
REMARK VINA RESULT:    -4.885      3.226      5.230
REMARK INTER + INTRA:          -6.867
REMARK INTER:                  -6.112
REMARK INTRA:                  -0.755
REMARK UNBOUND:                -0.840
REMARK  Name = 
REMARK  7 active torsions:
REMARK  status: ('A' for Active; 'I' for Inactive)
REMARK    1  A    between atoms: C_1  and  C_2
REMARK    2  A    between atoms: C_2  and  C_3
REMARK    3  A    between atoms: C_2  and  C_4
REMARK    4  A    between atoms: C_2  and  C_5
REMARK    5  A    between atoms: C_10  and  C_11
REMARK    6  A    between atoms: N_16  and  C_17
REMARK    7  A    between atoms: C_17  and  C_18
REMARK                            x       y       z     vdW  Elec       q    Type
REMARK                         _______ _______ _______ _____ _____    ______ ____
ROOT
ATOM      1  C   UNL     1      47.560   6.471  13.569  0.00  0.00    +0.000 A 
ATOM      2  N   UNL     1      47.131   5.227  13.716  0.00  0.00    +0.000 NA
ATOM      3  C   UNL     1      47.507   4.812  14.945  0.00  0.00    +0.000 A 
ATOM      4  N   UNL     1      47.317   3.567  15.423  0.00  0.00    +0.000 NA
ATOM      5  C   UNL     1      47.811   3.363  16.663  0.00  0.00    +0.000 A 
ATOM      6  C   UNL     1      48.458   4.316  17.451  0.00  0.00    +0.000 A 
ATOM      7  C   UNL     1      48.638   5.608  16.938  0.00  0.00    +0.000 A 
ATOM      8  C   UNL     1      48.142   5.825  15.640  0.00  0.00    +0.000 A 
ATOM      9  N   UNL     1      48.122   6.913  14.769  0.00  0.00    +0.000 N 
ENDROOT
BRANCH   6  10
ATOM     10  C   UNL     1      48.910   3.879  18.798  0.00  0.00    +0.000 C 
ATOM     11  N   UNL     1      48.206   2.904  19.452  0.00  0.00    +0.000 N 
ATOM     12  O   UNL     1      49.897   4.371  19.329  0.00  0.00    +0.000 OA
ATOM     13  H   UNL     1      47.362   2.472  19.122  0.00  0.00    +0.000 HD
ATOM     14  H   UNL     1      48.540   2.649  20.374  0.00  0.00    +0.000 HD
ENDBRANCH   6  10
BRANCH   1  16
ATOM     15  C   UNL     1      46.615   8.504  12.466  0.00  0.00    +0.000 C 
ATOM     16  C   UNL     1      47.353   7.176  12.225  0.00  0.00    +0.000 C 
ATOM     17  C   UNL     1      46.429   6.275  11.352  0.00  0.00    +0.000 C 
ATOM     18  C   UNL     1      48.613   7.419  11.392  0.00  0.00    +0.000 C 
ENDBRANCH   1  16
BRANCH   9  19
ATOM     19  C   UNL     1      48.808   8.162  15.079  0.00  0.00    +0.000 C 
BRANCH  19  20
ATOM     20  C   UNL     1      50.231   8.330  14.592  0.00  0.00    +0.000 A 
ATOM     21  C   UNL     1      50.646   9.295  13.677  0.00  0.00    +0.000 A 
ATOM     22  C   UNL     1      52.014   9.514  13.488  0.00  0.00    +0.000 A 
ATOM     23  C   UNL     1      52.939   8.759  14.198  0.00  0.00    +0.000 A 
ATOM     24  C   UNL     1      52.455   7.788  15.052  0.00  0.00    +0.000 A 
ATOM     25  N   UNL     1      51.137   7.568  15.265  0.00  0.00    +0.000 NA
ENDBRANCH  19  20
ENDBRANCH   9  19
TORSDOF 4
ENDMDL
