MODEL 1
REMARK VINA RESULT:    -7.129      0.000      0.000
REMARK INTER + INTRA:         -10.917
REMARK INTER:                  -9.630
REMARK INTRA:                  -1.287
REMARK UNBOUND:                -1.287
REMARK  Name = 
REMARK  6 active torsions:
REMARK  status: ('A' for Active; 'I' for Inactive)
REMARK    1  A    between atoms: C_2  and  C_20
REMARK    2  A    between atoms: N_3  and  C_4
REMARK    3  A    between atoms: C_4  and  C_5
REMARK    4  A    between atoms: C_8  and  C_9
REMARK    5  A    between atoms: C_9  and  N_10
REMARK    6  A    between atoms: C_11  and  C_13
REMARK                            x       y       z     vdW  Elec       q    Type
REMARK                         _______ _______ _______ _____ _____    ______ ____
ROOT
ATOM      1  C   UNL     1      45.865   6.431  12.187  0.00  0.00    +0.000 A 
ATOM      2  C   UNL     1      45.095   5.448  12.822  0.00  0.00    +0.000 A 
ATOM      3  C   UNL     1      44.515   4.405  12.088  0.00  0.00    +0.000 A 
ATOM      4  C   UNL     1      44.714   4.308  10.705  0.00  0.00    +0.000 A 
ATOM      5  C   UNL     1      45.506   5.277  10.073  0.00  0.00    +0.000 A 
ATOM      6  C   UNL     1      46.083   6.321  10.808  0.00  0.00    +0.000 A 
ENDROOT
BRANCH   1   7
ATOM      7  C   UNL     1      46.484   7.559  12.979  0.00  0.00    +0.000 C 
BRANCH   7  10
ATOM      8  O   UNL     1      49.057   6.476  13.204  0.00  0.00    +0.000 OA
ATOM      9  C   UNL     1      48.384   6.619  14.222  0.00  0.00    +0.000 C 
ATOM     10  N   UNL     1      47.088   7.069  14.189  0.00  0.00    +0.000 N 
ATOM     11  H   UNL     1      46.656   7.375  15.054  0.00  0.00    +0.000 HD
BRANCH   9  12
ATOM     12  C   UNL     1      48.909   6.276  15.546  0.00  0.00    +0.000 A 
ATOM     13  C   UNL     1      49.898   7.053  16.138  0.00  0.00    +0.000 A 
ATOM     14  S   UNL     1      50.396   6.477  17.666  0.00  0.00    +0.000 S 
ATOM     15  C   UNL     1      49.274   5.200  17.615  0.00  0.00    +0.000 A 
ATOM     16  N   UNL     1      49.156   4.323  18.649  0.00  0.00    +0.000 NA
ATOM     17  C   UNL     1      48.243   3.425  18.486  0.00  0.00    +0.000 A 
ATOM     18  N   UNL     1      47.438   3.320  17.381  0.00  0.00    +0.000 N 
ATOM     19  C   UNL     1      47.541   4.161  16.304  0.00  0.00    +0.000 A 
ATOM     20  O   UNL     1      46.840   4.003  15.310  0.00  0.00    +0.000 OA
ATOM     21  C   UNL     1      48.544   5.200  16.440  0.00  0.00    +0.000 A 
ATOM     22  H   UNL     1      46.749   2.585  17.308  0.00  0.00    +0.000 HD
ENDBRANCH   9  12
ENDBRANCH   7  10
ENDBRANCH   1   7
BRANCH   4  23
ATOM     23  C   UNL     1      44.094   3.185   9.911  0.00  0.00    +0.000 C 
BRANCH  23  24
ATOM     24  N   UNL     1      44.607   3.111   8.562  0.00  0.00    +0.000 N 
ATOM     25  C   UNL     1      45.360   2.022   8.153  0.00  0.00    +0.000 C 
ATOM     26  O   UNL     1      45.585   1.064   8.887  0.00  0.00    +0.000 OA
ATOM     27  H   UNL     1      44.562   3.933   7.970  0.00  0.00    +0.000 HD
BRANCH  25  28
ATOM     28  C   UNL     1      45.892   2.142   6.707  0.00  0.00    +0.000 C 
ATOM     29  C   UNL     1      46.456   3.513   6.368  0.00  0.00    +0.000 C 
ATOM     30  C   UNL     1      47.886   3.443   6.863  0.00  0.00    +0.000 C 
ATOM     31  C   UNL     1      48.268   1.980   6.711  0.00  0.00    +0.000 C 
ATOM     32  N   UNL     1      47.031   1.219   6.493  0.00  0.00    +0.000 NA
ATOM     33  H   UNL     1      46.984   0.441   7.149  0.00  0.00    +0.000 HD
ENDBRANCH  25  28
ENDBRANCH  23  24
ENDBRANCH   4  23
TORSDOF 6
ENDMDL
MODEL 2
REMARK VINA RESULT:    -7.120      2.681      3.846
REMARK INTER + INTRA:         -10.904
REMARK INTER:                  -9.894
REMARK INTRA:                  -1.010
REMARK UNBOUND:                -1.287
REMARK  Name = 
REMARK  6 active torsions:
REMARK  status: ('A' for Active; 'I' for Inactive)
REMARK    1  A    between atoms: C_2  and  C_20
REMARK    2  A    between atoms: N_3  and  C_4
REMARK    3  A    between atoms: C_4  and  C_5
REMARK    4  A    between atoms: C_8  and  C_9
REMARK    5  A    between atoms: C_9  and  N_10
REMARK    6  A    between atoms: C_11  and  C_13
REMARK                            x       y       z     vdW  Elec       q    Type
REMARK                         _______ _______ _______ _____ _____    ______ ____
ROOT
ATOM      1  C   UNL     1      46.968   4.660  14.351  0.00  0.00    +0.000 A 
ATOM      2  C   UNL     1      45.892   3.987  13.756  0.00  0.00    +0.000 A 
ATOM      3  C   UNL     1      45.315   4.463  12.571  0.00  0.00    +0.000 A 
ATOM      4  C   UNL     1      45.816   5.609  11.942  0.00  0.00    +0.000 A 
ATOM      5  C   UNL     1      46.909   6.268  12.524  0.00  0.00    +0.000 A 
ATOM      6  C   UNL     1      47.484   5.792  13.710  0.00  0.00    +0.000 A 
ENDROOT
BRANCH   1   7
ATOM      7  C   UNL     1      47.585   4.149  15.632  0.00  0.00    +0.000 C 
BRANCH   7  10
ATOM      8  O   UNL     1      49.769   5.555  16.681  0.00  0.00    +0.000 OA
ATOM      9  C   UNL     1      48.640   5.839  17.072  0.00  0.00    +0.000 C 
ATOM     10  N   UNL     1      47.525   5.147  16.667  0.00  0.00    +0.000 N 
ATOM     11  H   UNL     1      46.612   5.551  16.840  0.00  0.00    +0.000 HD
BRANCH   9  12
ATOM     12  C   UNL     1      48.408   6.917  18.037  0.00  0.00    +0.000 A 
ATOM     13  C   UNL     1      48.362   6.647  19.401  0.00  0.00    +0.000 A 
ATOM     14  S   UNL     1      48.055   8.026  20.360  0.00  0.00    +0.000 S 
ATOM     15  C   UNL     1      48.026   9.040  18.994  0.00  0.00    +0.000 A 
ATOM     16  N   UNL     1      47.833  10.382  19.116  0.00  0.00    +0.000 NA
ATOM     17  C   UNL     1      47.866  11.030  18.000  0.00  0.00    +0.000 A 
ATOM     18  N   UNL     1      48.071  10.459  16.771  0.00  0.00    +0.000 N 
ATOM     19  C   UNL     1      48.240   9.110  16.596  0.00  0.00    +0.000 A 
ATOM     20  O   UNL     1      48.368   8.630  15.475  0.00  0.00    +0.000 OA
ATOM     21  C   UNL     1      48.225   8.335  17.822  0.00  0.00    +0.000 A 
ATOM     22  H   UNL     1      48.073  11.020  15.931  0.00  0.00    +0.000 HD
ENDBRANCH   9  12
ENDBRANCH   7  10
ENDBRANCH   1   7
BRANCH   4  23
ATOM     23  C   UNL     1      45.200   6.124  10.665  0.00  0.00    +0.000 C 
BRANCH  23  24
ATOM     24  N   UNL     1      44.809   5.058   9.770  0.00  0.00    +0.000 N 
ATOM     25  C   UNL     1      45.583   4.751   8.662  0.00  0.00    +0.000 C 
ATOM     26  O   UNL     1      46.641   5.324   8.417  0.00  0.00    +0.000 OA
ATOM     27  H   UNL     1      43.884   4.654   9.856  0.00  0.00    +0.000 HD
BRANCH  25  28
ATOM     28  C   UNL     1      44.980   3.640   7.772  0.00  0.00    +0.000 C 
ATOM     29  C   UNL     1      45.983   2.990   6.833  0.00  0.00    +0.000 C 
ATOM     30  C   UNL     1      46.632   1.920   7.688  0.00  0.00    +0.000 C 
ATOM     31  C   UNL     1      45.544   1.505   8.664  0.00  0.00    +0.000 C 
ATOM     32  N   UNL     1      44.483   2.519   8.603  0.00  0.00    +0.000 NA
ATOM     33  H   UNL     1      44.263   2.846   9.543  0.00  0.00    +0.000 HD
ENDBRANCH  25  28
ENDBRANCH  23  24
ENDBRANCH   4  23
TORSDOF 6
ENDMDL
MODEL 3
REMARK VINA RESULT:    -7.055      2.043      3.430
REMARK INTER + INTRA:         -10.817
REMARK INTER:                  -9.837
REMARK INTRA:                  -0.980
REMARK UNBOUND:                -1.287
REMARK  Name = 
REMARK  6 active torsions:
REMARK  status: ('A' for Active; 'I' for Inactive)
REMARK    1  A    between atoms: C_2  and  C_20
REMARK    2  A    between atoms: N_3  and  C_4
REMARK    3  A    between atoms: C_4  and  C_5
REMARK    4  A    between atoms: C_8  and  C_9
REMARK    5  A    between atoms: C_9  and  N_10
REMARK    6  A    between atoms: C_11  and  C_13
REMARK                            x       y       z     vdW  Elec       q    Type
REMARK                         _______ _______ _______ _____ _____    ______ ____
ROOT
ATOM      1  C   UNL     1      46.246   4.384  13.436  0.00  0.00    +0.000 A 
ATOM      2  C   UNL     1      45.661   3.257  12.842  0.00  0.00    +0.000 A 
ATOM      3  C   UNL     1      44.963   3.365  11.632  0.00  0.00    +0.000 A 
ATOM      4  C   UNL     1      44.855   4.598  10.976  0.00  0.00    +0.000 A 
ATOM      5  C   UNL     1      45.463   5.720  11.558  0.00  0.00    +0.000 A 
ATOM      6  C   UNL     1      46.158   5.611  12.769  0.00  0.00    +0.000 A 
ENDROOT
BRANCH   1   7
ATOM      7  C   UNL     1      46.992   4.267  14.745  0.00  0.00    +0.000 C 
BRANCH   7  10
ATOM      8  O   UNL     1      48.973   4.682  16.681  0.00  0.00    +0.000 OA
ATOM      9  C   UNL     1      48.533   5.651  16.067  0.00  0.00    +0.000 C 
ATOM     10  N   UNL     1      47.509   5.544  15.159  0.00  0.00    +0.000 N 
ATOM     11  H   UNL     1      47.334   6.317  14.529  0.00  0.00    +0.000 HD
BRANCH   9  12
ATOM     12  C   UNL     1      49.048   7.004  16.295  0.00  0.00    +0.000 A 
ATOM     13  C   UNL     1      49.088   7.539  17.578  0.00  0.00    +0.000 A 
ATOM     14  S   UNL     1      49.694   9.134  17.634  0.00  0.00    +0.000 S 
ATOM     15  C   UNL     1      49.972   9.149  15.955  0.00  0.00    +0.000 A 
ATOM     16  N   UNL     1      50.519  10.233  15.341  0.00  0.00    +0.000 NA
ATOM     17  C   UNL     1      50.701  10.092  14.071  0.00  0.00    +0.000 A 
ATOM     18  N   UNL     1      50.383   8.966  13.356  0.00  0.00    +0.000 N 
ATOM     19  C   UNL     1      49.803   7.862  13.927  0.00  0.00    +0.000 A 
ATOM     20  O   UNL     1      49.484   6.894  13.245  0.00  0.00    +0.000 OA
ATOM     21  C   UNL     1      49.589   7.963  15.357  0.00  0.00    +0.000 A 
ATOM     22  H   UNL     1      50.539   8.922  12.360  0.00  0.00    +0.000 HD
ENDBRANCH   9  12
ENDBRANCH   7  10
ENDBRANCH   1   7
BRANCH   4  23
ATOM     23  C   UNL     1      44.108   4.718   9.672  0.00  0.00    +0.000 C 
BRANCH  23  24
ATOM     24  N   UNL     1      44.426   3.652   8.749  0.00  0.00    +0.000 N 
ATOM     25  C   UNL     1      45.533   3.745   7.922  0.00  0.00    +0.000 C 
ATOM     26  O   UNL     1      46.309   4.696   7.963  0.00  0.00    +0.000 OA
ATOM     27  H   UNL     1      43.746   2.919   8.587  0.00  0.00    +0.000 HD
BRANCH  25  28
ATOM     28  C   UNL     1      45.682   2.555   6.946  0.00  0.00    +0.000 C 
ATOM     29  C   UNL     1      46.614   2.828   5.777  0.00  0.00    +0.000 C 
ATOM     30  C   UNL     1      47.988   2.513   6.334  0.00  0.00    +0.000 C 
ATOM     31  C   UNL     1      47.737   1.427   7.366  0.00  0.00    +0.000 C 
ATOM     32  N   UNL     1      46.293   1.393   7.632  0.00  0.00    +0.000 NA
ATOM     33  H   UNL     1      46.125   1.446   8.636  0.00  0.00    +0.000 HD
ENDBRANCH  25  28
ENDBRANCH  23  24
ENDBRANCH   4  23
TORSDOF 6
ENDMDL
MODEL 4
REMARK VINA RESULT:    -6.827      4.829      7.038
REMARK INTER + INTRA:         -10.508
REMARK INTER:                  -9.499
REMARK INTRA:                  -1.009
REMARK UNBOUND:                -1.287
REMARK  Name = 
REMARK  6 active torsions:
REMARK  status: ('A' for Active; 'I' for Inactive)
REMARK    1  A    between atoms: C_2  and  C_20
REMARK    2  A    between atoms: N_3  and  C_4
REMARK    3  A    between atoms: C_4  and  C_5
REMARK    4  A    between atoms: C_8  and  C_9
REMARK    5  A    between atoms: C_9  and  N_10
REMARK    6  A    between atoms: C_11  and  C_13
REMARK                            x       y       z     vdW  Elec       q    Type
REMARK                         _______ _______ _______ _____ _____    ______ ____
ROOT
ATOM      1  C   UNL     1      49.145   7.528  11.971  0.00  0.00    +0.000 A 
ATOM      2  C   UNL     1      47.964   7.362  11.234  0.00  0.00    +0.000 A 
ATOM      3  C   UNL     1      46.871   6.672  11.775  0.00  0.00    +0.000 A 
ATOM      4  C   UNL     1      46.927   6.152  13.075  0.00  0.00    +0.000 A 
ATOM      5  C   UNL     1      48.099   6.341  13.821  0.00  0.00    +0.000 A 
ATOM      6  C   UNL     1      49.191   7.030  13.278  0.00  0.00    +0.000 A 
ENDROOT
BRANCH   1   7
ATOM      7  C   UNL     1      50.324   8.267  11.383  0.00  0.00    +0.000 C 
BRANCH   7  10
ATOM      8  O   UNL     1      52.434   8.861   9.639  0.00  0.00    +0.000 OA
ATOM      9  C   UNL     1      52.387   7.747  10.154  0.00  0.00    +0.000 C 
ATOM     10  N   UNL     1      51.347   7.350  10.957  0.00  0.00    +0.000 N 
ATOM     11  H   UNL     1      51.460   6.519  11.525  0.00  0.00    +0.000 HD
BRANCH   9  12
ATOM     12  C   UNL     1      53.426   6.742   9.909  0.00  0.00    +0.000 A 
ATOM     13  C   UNL     1      54.378   6.457  10.882  0.00  0.00    +0.000 A 
ATOM     14  S   UNL     1      55.516   5.280  10.400  0.00  0.00    +0.000 S 
ATOM     15  C   UNL     1      54.748   5.070   8.896  0.00  0.00    +0.000 A 
ATOM     16  N   UNL     1      55.209   4.165   7.990  0.00  0.00    +0.000 NA
ATOM     17  C   UNL     1      54.510   4.091   6.907  0.00  0.00    +0.000 A 
ATOM     18  N   UNL     1      53.393   4.843   6.644  0.00  0.00    +0.000 N 
ATOM     19  C   UNL     1      52.911   5.786   7.514  0.00  0.00    +0.000 A 
ATOM     20  O   UNL     1      51.940   6.477   7.221  0.00  0.00    +0.000 OA
ATOM     21  C   UNL     1      53.652   5.901   8.755  0.00  0.00    +0.000 A 
ATOM     22  H   UNL     1      52.896   4.747   5.771  0.00  0.00    +0.000 HD
ENDBRANCH   9  12
ENDBRANCH   7  10
ENDBRANCH   1   7
BRANCH   4  23
ATOM     23  C   UNL     1      45.752   5.411  13.663  0.00  0.00    +0.000 C 
BRANCH  23  24
ATOM     24  N   UNL     1      44.817   4.964  12.655  0.00  0.00    +0.000 N 
ATOM     25  C   UNL     1      44.817   3.645  12.231  0.00  0.00    +0.000 C 
ATOM     26  O   UNL     1      45.562   2.797  12.713  0.00  0.00    +0.000 OA
ATOM     27  H   UNL     1      44.282   5.652  12.137  0.00  0.00    +0.000 HD
BRANCH  25  28
ATOM     28  C   UNL     1      43.807   3.358  11.096  0.00  0.00    +0.000 C 
ATOM     29  C   UNL     1      43.766   4.432  10.020  0.00  0.00    +0.000 C 
ATOM     30  C   UNL     1      44.893   4.044   9.084  0.00  0.00    +0.000 C 
ATOM     31  C   UNL     1      44.965   2.530   9.186  0.00  0.00    +0.000 C 
ATOM     32  N   UNL     1      44.185   2.126  10.363  0.00  0.00    +0.000 NA
ATOM     33  H   UNL     1      44.746   1.518  10.958  0.00  0.00    +0.000 HD
ENDBRANCH  25  28
ENDBRANCH  23  24
ENDBRANCH   4  23
TORSDOF 6
ENDMDL
MODEL 5
REMARK VINA RESULT:    -6.826      3.372      8.349
REMARK INTER + INTRA:         -10.506
REMARK INTER:                  -9.370
REMARK INTRA:                  -1.137
REMARK UNBOUND:                -1.287
REMARK  Name = 
REMARK  6 active torsions:
REMARK  status: ('A' for Active; 'I' for Inactive)
REMARK    1  A    between atoms: C_2  and  C_20
REMARK    2  A    between atoms: N_3  and  C_4
REMARK    3  A    between atoms: C_4  and  C_5
REMARK    4  A    between atoms: C_8  and  C_9
REMARK    5  A    between atoms: C_9  and  N_10
REMARK    6  A    between atoms: C_11  and  C_13
REMARK                            x       y       z     vdW  Elec       q    Type
REMARK                         _______ _______ _______ _____ _____    ______ ____
ROOT
ATOM      1  C   UNL     1      49.079   7.833  13.075  0.00  0.00    +0.000 A 
ATOM      2  C   UNL     1      50.426   8.180  13.255  0.00  0.00    +0.000 A 
ATOM      3  C   UNL     1      51.073   7.933  14.473  0.00  0.00    +0.000 A 
ATOM      4  C   UNL     1      50.396   7.311  15.529  0.00  0.00    +0.000 A 
ATOM      5  C   UNL     1      49.057   6.940  15.340  0.00  0.00    +0.000 A 
ATOM      6  C   UNL     1      48.410   7.190  14.122  0.00  0.00    +0.000 A 
ENDROOT
BRANCH   1   7
ATOM      7  C   UNL     1      48.380   8.106  11.764  0.00  0.00    +0.000 C 
BRANCH   7  10
ATOM      8  O   UNL     1      45.597   7.819  11.872  0.00  0.00    +0.000 OA
ATOM      9  C   UNL     1      46.263   6.929  11.351  0.00  0.00    +0.000 C 
ATOM     10  N   UNL     1      47.636   6.956  11.326  0.00  0.00    +0.000 N 
ATOM     11  H   UNL     1      48.124   6.323  10.704  0.00  0.00    +0.000 HD
BRANCH   9  12
ATOM     12  C   UNL     1      45.636   5.747  10.752  0.00  0.00    +0.000 A 
ATOM     13  C   UNL     1      45.791   5.474   9.397  0.00  0.00    +0.000 A 
ATOM     14  S   UNL     1      44.965   4.071   8.885  0.00  0.00    +0.000 S 
ATOM     15  C   UNL     1      44.414   3.749  10.462  0.00  0.00    +0.000 A 
ATOM     16  N   UNL     1      43.657   2.651  10.734  0.00  0.00    +0.000 NA
ATOM     17  C   UNL     1      43.338   2.518  11.978  0.00  0.00    +0.000 A 
ATOM     18  N   UNL     1      43.703   3.385  12.976  0.00  0.00    +0.000 N 
ATOM     19  C   UNL     1      44.438   4.518  12.744  0.00  0.00    +0.000 A 
ATOM     20  O   UNL     1      44.700   5.297  13.654  0.00  0.00    +0.000 OA
ATOM     21  C   UNL     1      44.836   4.709  11.363  0.00  0.00    +0.000 A 
ATOM     22  H   UNL     1      43.410   3.231  13.930  0.00  0.00    +0.000 HD
ENDBRANCH   9  12
ENDBRANCH   7  10
ENDBRANCH   1   7
BRANCH   4  23
ATOM     23  C   UNL     1      51.090   7.040  16.841  0.00  0.00    +0.000 C 
BRANCH  23  24
ATOM     24  N   UNL     1      50.244   6.343  17.783  0.00  0.00    +0.000 N 
ATOM     25  C   UNL     1      50.248   4.959  17.842  0.00  0.00    +0.000 C 
ATOM     26  O   UNL     1      50.989   4.271  17.145  0.00  0.00    +0.000 OA
ATOM     27  H   UNL     1      49.525   6.859  18.277  0.00  0.00    +0.000 HD
BRANCH  25  28
ATOM     28  C   UNL     1      49.229   4.377  18.849  0.00  0.00    +0.000 C 
ATOM     29  C   UNL     1      47.867   5.053  18.809  0.00  0.00    +0.000 C 
ATOM     30  C   UNL     1      47.142   4.329  17.693  0.00  0.00    +0.000 C 
ATOM     31  C   UNL     1      47.721   2.925  17.713  0.00  0.00    +0.000 C 
ATOM     32  N   UNL     1      48.938   2.959  18.534  0.00  0.00    +0.000 NA
ATOM     33  H   UNL     1      49.714   2.544  18.019  0.00  0.00    +0.000 HD
ENDBRANCH  25  28
ENDBRANCH  23  24
ENDBRANCH   4  23
TORSDOF 6
ENDMDL
MODEL 6
REMARK VINA RESULT:    -6.819      2.936      3.916
REMARK INTER + INTRA:         -10.498
REMARK INTER:                  -8.908
REMARK INTRA:                  -1.590
REMARK UNBOUND:                -1.287
REMARK  Name = 
REMARK  6 active torsions:
REMARK  status: ('A' for Active; 'I' for Inactive)
REMARK    1  A    between atoms: C_2  and  C_20
REMARK    2  A    between atoms: N_3  and  C_4
REMARK    3  A    between atoms: C_4  and  C_5
REMARK    4  A    between atoms: C_8  and  C_9
REMARK    5  A    between atoms: C_9  and  N_10
REMARK    6  A    between atoms: C_11  and  C_13
REMARK                            x       y       z     vdW  Elec       q    Type
REMARK                         _______ _______ _______ _____ _____    ______ ____
ROOT
ATOM      1  C   UNL     1      48.547   8.002  13.419  0.00  0.00    +0.000 A 
ATOM      2  C   UNL     1      47.546   8.948  13.680  0.00  0.00    +0.000 A 
ATOM      3  C   UNL     1      46.328   8.913  12.989  0.00  0.00    +0.000 A 
ATOM      4  C   UNL     1      46.074   7.916  12.039  0.00  0.00    +0.000 A 
ATOM      5  C   UNL     1      47.065   6.955  11.796  0.00  0.00    +0.000 A 
ATOM      6  C   UNL     1      48.284   6.992  12.486  0.00  0.00    +0.000 A 
ENDROOT
BRANCH   1   7
ATOM      7  C   UNL     1      49.863   8.046  14.160  0.00  0.00    +0.000 C 
BRANCH   7  10
ATOM      8  O   UNL     1      49.121   8.505  16.821  0.00  0.00    +0.000 OA
ATOM      9  C   UNL     1      49.440   7.368  16.484  0.00  0.00    +0.000 C 
ATOM     10  N   UNL     1      49.890   7.075  15.220  0.00  0.00    +0.000 N 
ATOM     11  H   UNL     1      49.930   6.104  14.931  0.00  0.00    +0.000 HD
BRANCH   9  12
ATOM     12  C   UNL     1      49.402   6.246  17.426  0.00  0.00    +0.000 A 
ATOM     13  C   UNL     1      50.143   6.285  18.602  0.00  0.00    +0.000 A 
ATOM     14  S   UNL     1      49.988   4.876  19.553  0.00  0.00    +0.000 S 
ATOM     15  C   UNL     1      48.887   4.186  18.455  0.00  0.00    +0.000 A 
ATOM     16  N   UNL     1      48.331   2.966  18.688  0.00  0.00    +0.000 NA
ATOM     17  C   UNL     1      47.490   2.581  17.786  0.00  0.00    +0.000 A 
ATOM     18  N   UNL     1      47.158   3.304  16.670  0.00  0.00    +0.000 N 
ATOM     19  C   UNL     1      47.715   4.522  16.379  0.00  0.00    +0.000 A 
ATOM     20  O   UNL     1      47.431   5.115  15.343  0.00  0.00    +0.000 OA
ATOM     21  C   UNL     1      48.657   5.008  17.368  0.00  0.00    +0.000 A 
ATOM     22  H   UNL     1      46.501   2.942  15.993  0.00  0.00    +0.000 HD
ENDBRANCH   9  12
ENDBRANCH   7  10
ENDBRANCH   1   7
BRANCH   4  23
ATOM     23  C   UNL     1      44.762   7.873  11.295  0.00  0.00    +0.000 C 
BRANCH  23  24
ATOM     24  N   UNL     1      44.497   6.576  10.714  0.00  0.00    +0.000 N 
ATOM     25  C   UNL     1      43.554   5.732  11.278  0.00  0.00    +0.000 C 
ATOM     26  O   UNL     1      42.877   6.055  12.250  0.00  0.00    +0.000 OA
ATOM     27  H   UNL     1      45.121   6.216  10.000  0.00  0.00    +0.000 HD
BRANCH  25  28
ATOM     28  C   UNL     1      43.453   4.357  10.577  0.00  0.00    +0.000 C 
ATOM     29  C   UNL     1      44.797   3.691  10.327  0.00  0.00    +0.000 C 
ATOM     30  C   UNL     1      45.091   2.979  11.632  0.00  0.00    +0.000 C 
ATOM     31  C   UNL     1      43.722   2.619  12.183  0.00  0.00    +0.000 C 
ATOM     32  N   UNL     1      42.724   3.391  11.431  0.00  0.00    +0.000 NA
ATOM     33  H   UNL     1      42.109   3.883  12.078  0.00  0.00    +0.000 HD
ENDBRANCH  25  28
ENDBRANCH  23  24
ENDBRANCH   4  23
TORSDOF 6
ENDMDL
MODEL 7
REMARK VINA RESULT:    -6.793      2.598      3.068
REMARK INTER + INTRA:         -10.462
REMARK INTER:                  -9.583
REMARK INTRA:                  -0.879
REMARK UNBOUND:                -1.287
REMARK  Name = 
REMARK  6 active torsions:
REMARK  status: ('A' for Active; 'I' for Inactive)
REMARK    1  A    between atoms: C_2  and  C_20
REMARK    2  A    between atoms: N_3  and  C_4
REMARK    3  A    between atoms: C_4  and  C_5
REMARK    4  A    between atoms: C_8  and  C_9
REMARK    5  A    between atoms: C_9  and  N_10
REMARK    6  A    between atoms: C_11  and  C_13
REMARK                            x       y       z     vdW  Elec       q    Type
REMARK                         _______ _______ _______ _____ _____    ______ ____
ROOT
ATOM      1  C   UNL     1      46.748   4.538  14.014  0.00  0.00    +0.000 A 
ATOM      2  C   UNL     1      46.138   3.535  13.247  0.00  0.00    +0.000 A 
ATOM      3  C   UNL     1      45.418   3.855  12.089  0.00  0.00    +0.000 A 
ATOM      4  C   UNL     1      45.311   5.183  11.658  0.00  0.00    +0.000 A 
ATOM      5  C   UNL     1      45.943   6.184  12.411  0.00  0.00    +0.000 A 
ATOM      6  C   UNL     1      46.661   5.863  13.570  0.00  0.00    +0.000 A 
ENDROOT
BRANCH   1   7
ATOM      7  C   UNL     1      47.518   4.192  15.267  0.00  0.00    +0.000 C 
BRANCH   7  10
ATOM      8  O   UNL     1      49.737   5.810  15.816  0.00  0.00    +0.000 OA
ATOM      9  C   UNL     1      48.660   6.088  16.335  0.00  0.00    +0.000 C 
ATOM     10  N   UNL     1      47.544   5.303  16.180  0.00  0.00    +0.000 N 
ATOM     11  H   UNL     1      46.641   5.683  16.440  0.00  0.00    +0.000 HD
BRANCH   9  12
ATOM     12  C   UNL     1      48.500   7.263  17.197  0.00  0.00    +0.000 A 
ATOM     13  C   UNL     1      48.670   8.544  16.685  0.00  0.00    +0.000 A 
ATOM     14  S   UNL     1      48.470   9.777  17.849  0.00  0.00    +0.000 S 
ATOM     15  C   UNL     1      48.098   8.647  19.065  0.00  0.00    +0.000 A 
ATOM     16  N   UNL     1      47.790   9.048  20.329  0.00  0.00    +0.000 NA
ATOM     17  C   UNL     1      47.499   8.086  21.138  0.00  0.00    +0.000 A 
ATOM     18  N   UNL     1      47.492   6.756  20.802  0.00  0.00    +0.000 N 
ATOM     19  C   UNL     1      47.825   6.305  19.551  0.00  0.00    +0.000 A 
ATOM     20  O   UNL     1      47.858   5.104  19.302  0.00  0.00    +0.000 OA
ATOM     21  C   UNL     1      48.147   7.348  18.596  0.00  0.00    +0.000 A 
ATOM     22  H   UNL     1      47.267   6.049  21.486  0.00  0.00    +0.000 HD
ENDBRANCH   9  12
ENDBRANCH   7  10
ENDBRANCH   1   7
BRANCH   4  23
ATOM     23  C   UNL     1      44.540   5.532  10.410  0.00  0.00    +0.000 C 
BRANCH  23  24
ATOM     24  N   UNL     1      44.523   4.454   9.448  0.00  0.00    +0.000 N 
ATOM     25  C   UNL     1      45.489   4.379   8.458  0.00  0.00    +0.000 C 
ATOM     26  O   UNL     1      46.415   5.182   8.378  0.00  0.00    +0.000 OA
ATOM     27  H   UNL     1      43.709   3.852   9.393  0.00  0.00    +0.000 HD
BRANCH  25  28
ATOM     28  C   UNL     1      45.277   3.209   7.470  0.00  0.00    +0.000 C 
ATOM     29  C   UNL     1      46.256   3.198   6.307  0.00  0.00    +0.000 C 
ATOM     30  C   UNL     1      47.466   2.477   6.865  0.00  0.00    +0.000 C 
ATOM     31  C   UNL     1      46.892   1.508   7.885  0.00  0.00    +0.000 C 
ATOM     32  N   UNL     1      45.504   1.910   8.146  0.00  0.00    +0.000 NA
ATOM     33  H   UNL     1      45.354   2.002   9.149  0.00  0.00    +0.000 HD
ENDBRANCH  25  28
ENDBRANCH  23  24
ENDBRANCH   4  23
TORSDOF 6
ENDMDL
MODEL 8
REMARK VINA RESULT:    -6.696      1.864      2.448
REMARK INTER + INTRA:         -10.332
REMARK INTER:                  -9.403
REMARK INTRA:                  -0.929
REMARK UNBOUND:                -1.287
REMARK  Name = 
REMARK  6 active torsions:
REMARK  status: ('A' for Active; 'I' for Inactive)
REMARK    1  A    between atoms: C_2  and  C_20
REMARK    2  A    between atoms: N_3  and  C_4
REMARK    3  A    between atoms: C_4  and  C_5
REMARK    4  A    between atoms: C_8  and  C_9
REMARK    5  A    between atoms: C_9  and  N_10
REMARK    6  A    between atoms: C_11  and  C_13
REMARK                            x       y       z     vdW  Elec       q    Type
REMARK                         _______ _______ _______ _____ _____    ______ ____
ROOT
ATOM      1  C   UNL     1      47.238   6.259  12.986  0.00  0.00    +0.000 A 
ATOM      2  C   UNL     1      46.974   6.694  11.679  0.00  0.00    +0.000 A 
ATOM      3  C   UNL     1      45.771   6.363  11.042  0.00  0.00    +0.000 A 
ATOM      4  C   UNL     1      44.794   5.611  11.706  0.00  0.00    +0.000 A 
ATOM      5  C   UNL     1      45.047   5.199  13.022  0.00  0.00    +0.000 A 
ATOM      6  C   UNL     1      46.251   5.528  13.657  0.00  0.00    +0.000 A 
ENDROOT
BRANCH   1   7
ATOM      7  C   UNL     1      48.538   6.611  13.669  0.00  0.00    +0.000 C 
BRANCH   7  10
ATOM      8  O   UNL     1      49.916   8.196  15.522  0.00  0.00    +0.000 OA
ATOM      9  C   UNL     1      49.068   7.409  15.932  0.00  0.00    +0.000 C 
ATOM     10  N   UNL     1      48.405   6.542  15.100  0.00  0.00    +0.000 N 
ATOM     11  H   UNL     1      47.573   6.076  15.444  0.00  0.00    +0.000 HD
BRANCH   9  12
ATOM     12  C   UNL     1      48.735   7.309  17.356  0.00  0.00    +0.000 A 
ATOM     13  C   UNL     1      48.207   8.401  18.037  0.00  0.00    +0.000 A 
ATOM     14  S   UNL     1      47.910   8.097  19.690  0.00  0.00    +0.000 S 
ATOM     15  C   UNL     1      48.426   6.482  19.544  0.00  0.00    +0.000 A 
ATOM     16  N   UNL     1      48.399   5.635  20.609  0.00  0.00    +0.000 NA
ATOM     17  C   UNL     1      48.789   4.433  20.346  0.00  0.00    +0.000 A 
ATOM     18  N   UNL     1      49.207   4.000  19.113  0.00  0.00    +0.000 N 
ATOM     19  C   UNL     1      49.279   4.824  18.020  0.00  0.00    +0.000 A 
ATOM     20  O   UNL     1      49.709   4.413  16.948  0.00  0.00    +0.000 OA
ATOM     21  C   UNL     1      48.838   6.185  18.259  0.00  0.00    +0.000 A 
ATOM     22  H   UNL     1      49.513   3.047  18.974  0.00  0.00    +0.000 HD
ENDBRANCH   9  12
ENDBRANCH   7  10
ENDBRANCH   1   7
BRANCH   4  23
ATOM     23  C   UNL     1      43.496   5.256  11.025  0.00  0.00    +0.000 C 
BRANCH  23  24
ATOM     24  N   UNL     1      43.696   4.516   9.799  0.00  0.00    +0.000 N 
ATOM     25  C   UNL     1      44.224   3.235   9.830  0.00  0.00    +0.000 C 
ATOM     26  O   UNL     1      44.496   2.658  10.879  0.00  0.00    +0.000 OA
ATOM     27  H   UNL     1      43.614   4.997   8.912  0.00  0.00    +0.000 HD
BRANCH  25  28
ATOM     28  C   UNL     1      44.443   2.620   8.428  0.00  0.00    +0.000 C 
ATOM     29  C   UNL     1      44.934   3.615   7.388  0.00  0.00    +0.000 C 
ATOM     30  C   UNL     1      46.435   3.632   7.590  0.00  0.00    +0.000 C 
ATOM     31  C   UNL     1      46.767   2.233   8.079  0.00  0.00    +0.000 C 
ATOM     32  N   UNL     1      45.507   1.589   8.473  0.00  0.00    +0.000 NA
ATOM     33  H   UNL     1      45.593   1.209   9.415  0.00  0.00    +0.000 HD
ENDBRANCH  25  28
ENDBRANCH  23  24
ENDBRANCH   4  23
TORSDOF 6
ENDMDL
MODEL 9
REMARK VINA RESULT:    -6.433      2.165      3.034
REMARK INTER + INTRA:          -9.977
REMARK INTER:                  -8.995
REMARK INTRA:                  -0.982
REMARK UNBOUND:                -1.287
REMARK  Name = 
REMARK  6 active torsions:
REMARK  status: ('A' for Active; 'I' for Inactive)
REMARK    1  A    between atoms: C_2  and  C_20
REMARK    2  A    between atoms: N_3  and  C_4
REMARK    3  A    between atoms: C_4  and  C_5
REMARK    4  A    between atoms: C_8  and  C_9
REMARK    5  A    between atoms: C_9  and  N_10
REMARK    6  A    between atoms: C_11  and  C_13
REMARK                            x       y       z     vdW  Elec       q    Type
REMARK                         _______ _______ _______ _____ _____    ______ ____
ROOT
ATOM      1  C   UNL     1      48.064   7.273  12.659  0.00  0.00    +0.000 A 
ATOM      2  C   UNL     1      47.019   7.691  11.823  0.00  0.00    +0.000 A 
ATOM      3  C   UNL     1      45.789   7.021  11.822  0.00  0.00    +0.000 A 
ATOM      4  C   UNL     1      45.567   5.933  12.674  0.00  0.00    +0.000 A 
ATOM      5  C   UNL     1      46.603   5.530  13.529  0.00  0.00    +0.000 A 
ATOM      6  C   UNL     1      47.834   6.200  13.528  0.00  0.00    +0.000 A 
ENDROOT
BRANCH   1   7
ATOM      7  C   UNL     1      49.392   7.992  12.654  0.00  0.00    +0.000 C 
BRANCH   7  10
ATOM      8  O   UNL     1      49.965   8.948  15.223  0.00  0.00    +0.000 OA
ATOM      9  C   UNL     1      50.473   7.891  14.858  0.00  0.00    +0.000 C 
ATOM     10  N   UNL     1      50.307   7.394  13.590  0.00  0.00    +0.000 N 
ATOM     11  H   UNL     1      50.557   6.429  13.408  0.00  0.00    +0.000 HD
BRANCH   9  12
ATOM     12  C   UNL     1      51.334   7.104  15.746  0.00  0.00    +0.000 A 
ATOM     13  C   UNL     1      52.718   7.220  15.674  0.00  0.00    +0.000 A 
ATOM     14  S   UNL     1      53.546   6.204  16.768  0.00  0.00    +0.000 S 
ATOM     15  C   UNL     1      52.087   5.612  17.412  0.00  0.00    +0.000 A 
ATOM     16  N   UNL     1      52.081   4.707  18.429  0.00  0.00    +0.000 NA
ATOM     17  C   UNL     1      50.904   4.371  18.838  0.00  0.00    +0.000 A 
ATOM     18  N   UNL     1      49.729   4.854  18.320  0.00  0.00    +0.000 N 
ATOM     19  C   UNL     1      49.686   5.742  17.277  0.00  0.00    +0.000 A 
ATOM     20  O   UNL     1      48.615   6.111  16.806  0.00  0.00    +0.000 OA
ATOM     21  C   UNL     1      50.984   6.165  16.787  0.00  0.00    +0.000 A 
ATOM     22  H   UNL     1      48.837   4.541  18.676  0.00  0.00    +0.000 HD
ENDBRANCH   9  12
ENDBRANCH   7  10
ENDBRANCH   1   7
BRANCH   4  23
ATOM     23  C   UNL     1      44.243   5.210  12.679  0.00  0.00    +0.000 C 
BRANCH  23  24
ATOM     24  N   UNL     1      43.924   4.629  11.395  0.00  0.00    +0.000 N 
ATOM     25  C   UNL     1      44.514   3.442  10.993  0.00  0.00    +0.000 C 
ATOM     26  O   UNL     1      45.285   2.813  11.713  0.00  0.00    +0.000 OA
ATOM     27  H   UNL     1      43.403   5.177  10.720  0.00  0.00    +0.000 HD
BRANCH  25  28
ATOM     28  C   UNL     1      44.120   3.004   9.564  0.00  0.00    +0.000 C 
ATOM     29  C   UNL     1      44.544   3.982   8.480  0.00  0.00    +0.000 C 
ATOM     30  C   UNL     1      45.976   3.585   8.182  0.00  0.00    +0.000 C 
ATOM     31  C   UNL     1      46.020   2.091   8.454  0.00  0.00    +0.000 C 
ATOM     32  N   UNL     1      44.804   1.741   9.200  0.00  0.00    +0.000 NA
ATOM     33  H   UNL     1      45.052   1.217  10.038  0.00  0.00    +0.000 HD
ENDBRANCH  25  28
ENDBRANCH  23  24
ENDBRANCH   4  23
TORSDOF 6
ENDMDL
