MODEL 1
REMARK VINA RESULT:    -8.626      0.000      0.000
REMARK INTER + INTRA:         -13.664
REMARK INTER:                 -12.156
REMARK INTRA:                  -1.508
REMARK UNBOUND:                -1.508
REMARK  Name = 
REMARK  8 active torsions:
REMARK  status: ('A' for Active; 'I' for Inactive)
REMARK    1  A    between atoms: C_1  and  C_2
REMARK    2  A    between atoms: C_2  and  N_3
REMARK    3  A    between atoms: C_2  and  C_25
REMARK    4  A    between atoms: N_3  and  C_4
REMARK    5  A    between atoms: C_4  and  C_5
REMARK    6  A    between atoms: C_8  and  C_9
REMARK    7  A    between atoms: C_9  and  N_10
REMARK    8  A    between atoms: C_11  and  C_13
REMARK                            x       y       z     vdW  Elec       q    Type
REMARK                         _______ _______ _______ _____ _____    ______ ____
ROOT
ATOM      1  C   UNL     1      44.539   5.671  10.977  0.00  0.00    +0.000 A 
ATOM      2  C   UNL     1      45.872   5.840  10.574  0.00  0.00    +0.000 A 
ATOM      3  C   UNL     1      46.755   6.614  11.334  0.00  0.00    +0.000 A 
ATOM      4  C   UNL     1      46.325   7.236  12.511  0.00  0.00    +0.000 A 
ATOM      5  C   UNL     1      44.985   7.101  12.894  0.00  0.00    +0.000 A 
ATOM      6  C   UNL     1      44.104   6.319  12.141  0.00  0.00    +0.000 A 
ENDROOT
BRANCH   1   7
ATOM      7  C   UNL     1      43.584   4.809  10.177  0.00  0.00    +0.000 C 
BRANCH   7   8
ATOM      8  N   UNL     1      44.202   4.361   8.933  0.00  0.00    +0.000 NA
ATOM      9  H   UNL     1      43.625   4.663   8.149  0.00  0.00    +0.000 HD
BRANCH   8  11
ATOM     10  C   UNL     1      44.478   2.217  10.191  0.00  0.00    +0.000 C 
ATOM     11  C   UNL     1      44.383   2.908   8.825  0.00  0.00    +0.000 C 
BRANCH  11  12
ATOM     12  C   UNL     1      45.645   2.635   8.012  0.00  0.00    +0.000 A 
ATOM     13  C   UNL     1      46.265   1.378   8.042  0.00  0.00    +0.000 A 
ATOM     14  C   UNL     1      47.390   1.124   7.256  0.00  0.00    +0.000 A 
ATOM     15  C   UNL     1      47.912   2.120   6.431  0.00  0.00    +0.000 A 
ATOM     16  C   UNL     1      47.314   3.377   6.399  0.00  0.00    +0.000 A 
ATOM     17  C   UNL     1      46.189   3.632   7.183  0.00  0.00    +0.000 A 
ENDBRANCH  11  12
ENDBRANCH   8  11
ENDBRANCH   7   8
ENDBRANCH   1   7
BRANCH   4  18
ATOM     18  C   UNL     1      47.269   8.074  13.330  0.00  0.00    +0.000 C 
BRANCH  18  19
ATOM     19  N   UNL     1      47.618   7.405  14.557  0.00  0.00    +0.000 N 
ATOM     20  C   UNL     1      48.858   6.850  14.734  0.00  0.00    +0.000 C 
ATOM     21  O   UNL     1      49.738   6.938  13.880  0.00  0.00    +0.000 OA
ATOM     22  H   UNL     1      46.855   7.137  15.169  0.00  0.00    +0.000 HD
BRANCH  20  23
ATOM     23  C   UNL     1      49.108   6.195  16.023  0.00  0.00    +0.000 A 
ATOM     24  C   UNL     1      50.122   6.667  16.846  0.00  0.00    +0.000 A 
ATOM     25  S   UNL     1      50.248   5.831  18.326  0.00  0.00    +0.000 S 
ATOM     26  C   UNL     1      48.984   4.775  17.898  0.00  0.00    +0.000 A 
ATOM     27  N   UNL     1      48.597   3.777  18.737  0.00  0.00    +0.000 NA
ATOM     28  C   UNL     1      47.648   3.032  18.279  0.00  0.00    +0.000 A 
ATOM     29  N   UNL     1      47.047   3.200  17.057  0.00  0.00    +0.000 N 
ATOM     30  C   UNL     1      47.389   4.207  16.187  0.00  0.00    +0.000 A 
ATOM     31  O   UNL     1      46.807   4.347  15.117  0.00  0.00    +0.000 OA
ATOM     32  C   UNL     1      48.460   5.068  16.652  0.00  0.00    +0.000 A 
ATOM     33  H   UNL     1      46.305   2.585  16.759  0.00  0.00    +0.000 HD
ENDBRANCH  20  23
ENDBRANCH  18  19
ENDBRANCH   4  18
TORSDOF 7
ENDMDL
MODEL 2
REMARK VINA RESULT:    -7.970      1.479      1.941
REMARK INTER + INTRA:         -12.739
REMARK INTER:                 -11.692
REMARK INTRA:                  -1.047
REMARK UNBOUND:                -1.508
REMARK  Name = 
REMARK  8 active torsions:
REMARK  status: ('A' for Active; 'I' for Inactive)
REMARK    1  A    between atoms: C_1  and  C_2
REMARK    2  A    between atoms: C_2  and  N_3
REMARK    3  A    between atoms: C_2  and  C_25
REMARK    4  A    between atoms: N_3  and  C_4
REMARK    5  A    between atoms: C_4  and  C_5
REMARK    6  A    between atoms: C_8  and  C_9
REMARK    7  A    between atoms: C_9  and  N_10
REMARK    8  A    between atoms: C_11  and  C_13
REMARK                            x       y       z     vdW  Elec       q    Type
REMARK                         _______ _______ _______ _____ _____    ______ ____
ROOT
ATOM      1  C   UNL     1      45.048   5.943  11.529  0.00  0.00    +0.000 A 
ATOM      2  C   UNL     1      45.184   7.339  11.479  0.00  0.00    +0.000 A 
ATOM      3  C   UNL     1      46.216   7.980  12.172  0.00  0.00    +0.000 A 
ATOM      4  C   UNL     1      47.131   7.243  12.930  0.00  0.00    +0.000 A 
ATOM      5  C   UNL     1      46.973   5.854  13.013  0.00  0.00    +0.000 A 
ATOM      6  C   UNL     1      45.949   5.210  12.313  0.00  0.00    +0.000 A 
ENDROOT
BRANCH   1   7
ATOM      7  C   UNL     1      43.953   5.237  10.756  0.00  0.00    +0.000 C 
BRANCH   7   8
ATOM      8  N   UNL     1      44.446   4.763   9.467  0.00  0.00    +0.000 NA
ATOM      9  H   UNL     1      43.971   5.274   8.724  0.00  0.00    +0.000 HD
BRANCH   8  11
ATOM     10  C   UNL     1      44.153   2.513  10.518  0.00  0.00    +0.000 C 
ATOM     11  C   UNL     1      44.250   3.328   9.224  0.00  0.00    +0.000 C 
BRANCH  11  12
ATOM     12  C   UNL     1      45.407   2.819   8.370  0.00  0.00    +0.000 A 
ATOM     13  C   UNL     1      46.138   3.691   7.551  0.00  0.00    +0.000 A 
ATOM     14  C   UNL     1      47.227   3.225   6.812  0.00  0.00    +0.000 A 
ATOM     15  C   UNL     1      47.599   1.883   6.879  0.00  0.00    +0.000 A 
ATOM     16  C   UNL     1      46.876   1.002   7.679  0.00  0.00    +0.000 A 
ATOM     17  C   UNL     1      45.789   1.466   8.418  0.00  0.00    +0.000 A 
ENDBRANCH  11  12
ENDBRANCH   8  11
ENDBRANCH   7   8
ENDBRANCH   1   7
BRANCH   4  18
ATOM     18  C   UNL     1      48.240   7.928  13.681  0.00  0.00    +0.000 C 
BRANCH  18  19
ATOM     19  N   UNL     1      48.081   7.755  15.103  0.00  0.00    +0.000 N 
ATOM     20  C   UNL     1      49.039   7.123  15.851  0.00  0.00    +0.000 C 
ATOM     21  O   UNL     1      50.090   6.720  15.357  0.00  0.00    +0.000 OA
ATOM     22  H   UNL     1      47.149   7.881  15.481  0.00  0.00    +0.000 HD
BRANCH  20  23
ATOM     23  C   UNL     1      48.776   7.003  17.290  0.00  0.00    +0.000 A 
ATOM     24  C   UNL     1      48.429   8.134  18.019  0.00  0.00    +0.000 A 
ATOM     25  S   UNL     1      48.107   7.817  19.662  0.00  0.00    +0.000 S 
ATOM     26  C   UNL     1      48.470   6.165  19.470  0.00  0.00    +0.000 A 
ATOM     27  N   UNL     1      48.413   5.313  20.528  0.00  0.00    +0.000 NA
ATOM     28  C   UNL     1      48.740   4.096  20.251  0.00  0.00    +0.000 A 
ATOM     29  N   UNL     1      49.113   3.653  19.007  0.00  0.00    +0.000 N 
ATOM     30  C   UNL     1      49.161   4.472  17.905  0.00  0.00    +0.000 A 
ATOM     31  O   UNL     1      49.467   4.035  16.801  0.00  0.00    +0.000 OA
ATOM     32  C   UNL     1      48.813   5.856  18.166  0.00  0.00    +0.000 A 
ATOM     33  H   UNL     1      49.352   2.685  18.855  0.00  0.00    +0.000 HD
ENDBRANCH  20  23
ENDBRANCH  18  19
ENDBRANCH   4  18
TORSDOF 7
ENDMDL
MODEL 3
REMARK VINA RESULT:    -7.870      2.112      2.666
REMARK INTER + INTRA:         -12.598
REMARK INTER:                 -11.397
REMARK INTRA:                  -1.201
REMARK UNBOUND:                -1.508
REMARK  Name = 
REMARK  8 active torsions:
REMARK  status: ('A' for Active; 'I' for Inactive)
REMARK    1  A    between atoms: C_1  and  C_2
REMARK    2  A    between atoms: C_2  and  N_3
REMARK    3  A    between atoms: C_2  and  C_25
REMARK    4  A    between atoms: N_3  and  C_4
REMARK    5  A    between atoms: C_4  and  C_5
REMARK    6  A    between atoms: C_8  and  C_9
REMARK    7  A    between atoms: C_9  and  N_10
REMARK    8  A    between atoms: C_11  and  C_13
REMARK                            x       y       z     vdW  Elec       q    Type
REMARK                         _______ _______ _______ _____ _____    ______ ____
ROOT
ATOM      1  C   UNL     1      45.171   5.924  11.580  0.00  0.00    +0.000 A 
ATOM      2  C   UNL     1      45.379   7.312  11.565  0.00  0.00    +0.000 A 
ATOM      3  C   UNL     1      46.349   7.896  12.387  0.00  0.00    +0.000 A 
ATOM      4  C   UNL     1      47.128   7.109  13.241  0.00  0.00    +0.000 A 
ATOM      5  C   UNL     1      46.893   5.729  13.286  0.00  0.00    +0.000 A 
ATOM      6  C   UNL     1      45.933   5.142  12.458  0.00  0.00    +0.000 A 
ENDROOT
BRANCH   1   7
ATOM      7  C   UNL     1      44.145   5.279  10.671  0.00  0.00    +0.000 C 
BRANCH   7   8
ATOM      8  N   UNL     1      44.765   4.806   9.438  0.00  0.00    +0.000 NA
ATOM      9  H   UNL     1      44.491   5.421   8.672  0.00  0.00    +0.000 HD
BRANCH   8  11
ATOM     10  C   UNL     1      44.188   2.520  10.271  0.00  0.00    +0.000 C 
ATOM     11  C   UNL     1      44.410   3.432   9.059  0.00  0.00    +0.000 C 
BRANCH  11  12
ATOM     12  C   UNL     1      45.522   2.869   8.178  0.00  0.00    +0.000 A 
ATOM     13  C   UNL     1      46.156   3.670   7.218  0.00  0.00    +0.000 A 
ATOM     14  C   UNL     1      47.206   3.161   6.452  0.00  0.00    +0.000 A 
ATOM     15  C   UNL     1      47.636   1.846   6.632  0.00  0.00    +0.000 A 
ATOM     16  C   UNL     1      47.009   1.035   7.574  0.00  0.00    +0.000 A 
ATOM     17  C   UNL     1      45.960   1.543   8.341  0.00  0.00    +0.000 A 
ENDBRANCH  11  12
ENDBRANCH   8  11
ENDBRANCH   7   8
ENDBRANCH   1   7
BRANCH   4  18
ATOM     18  C   UNL     1      48.168   7.732  14.131  0.00  0.00    +0.000 C 
BRANCH  18  19
ATOM     19  N   UNL     1      48.036   7.262  15.485  0.00  0.00    +0.000 N 
ATOM     20  C   UNL     1      49.054   6.586  16.105  0.00  0.00    +0.000 C 
ATOM     21  O   UNL     1      50.136   6.393  15.554  0.00  0.00    +0.000 OA
ATOM     22  H   UNL     1      47.097   7.219  15.869  0.00  0.00    +0.000 HD
BRANCH  20  23
ATOM     23  C   UNL     1      48.812   6.154  17.486  0.00  0.00    +0.000 A 
ATOM     24  C   UNL     1      49.078   4.840  17.849  0.00  0.00    +0.000 A 
ATOM     25  S   UNL     1      48.792   4.514  19.497  0.00  0.00    +0.000 S 
ATOM     26  C   UNL     1      48.253   6.104  19.774  0.00  0.00    +0.000 A 
ATOM     27  N   UNL     1      47.825   6.489  21.006  0.00  0.00    +0.000 NA
ATOM     28  C   UNL     1      47.417   7.712  21.071  0.00  0.00    +0.000 A 
ATOM     29  N   UNL     1      47.404   8.586  20.014  0.00  0.00    +0.000 N 
ATOM     30  C   UNL     1      47.848   8.248  18.758  0.00  0.00    +0.000 A 
ATOM     31  O   UNL     1      47.853   9.066  17.844  0.00  0.00    +0.000 OA
ATOM     32  C   UNL     1      48.309   6.879  18.629  0.00  0.00    +0.000 A 
ATOM     33  H   UNL     1      47.076   9.533  20.133  0.00  0.00    +0.000 HD
ENDBRANCH  20  23
ENDBRANCH  18  19
ENDBRANCH   4  18
TORSDOF 7
ENDMDL
MODEL 4
REMARK VINA RESULT:    -7.459      1.778      2.484
REMARK INTER + INTRA:         -12.020
REMARK INTER:                 -11.005
REMARK INTRA:                  -1.015
REMARK UNBOUND:                -1.508
REMARK  Name = 
REMARK  8 active torsions:
REMARK  status: ('A' for Active; 'I' for Inactive)
REMARK    1  A    between atoms: C_1  and  C_2
REMARK    2  A    between atoms: C_2  and  N_3
REMARK    3  A    between atoms: C_2  and  C_25
REMARK    4  A    between atoms: N_3  and  C_4
REMARK    5  A    between atoms: C_4  and  C_5
REMARK    6  A    between atoms: C_8  and  C_9
REMARK    7  A    between atoms: C_9  and  N_10
REMARK    8  A    between atoms: C_11  and  C_13
REMARK                            x       y       z     vdW  Elec       q    Type
REMARK                         _______ _______ _______ _____ _____    ______ ____
ROOT
ATOM      1  C   UNL     1      44.830   5.710  11.442  0.00  0.00    +0.000 A 
ATOM      2  C   UNL     1      45.012   7.101  11.411  0.00  0.00    +0.000 A 
ATOM      3  C   UNL     1      45.994   7.710  12.198  0.00  0.00    +0.000 A 
ATOM      4  C   UNL     1      46.813   6.944  13.034  0.00  0.00    +0.000 A 
ATOM      5  C   UNL     1      46.607   5.560  13.097  0.00  0.00    +0.000 A 
ATOM      6  C   UNL     1      45.633   4.949  12.302  0.00  0.00    +0.000 A 
ENDROOT
BRANCH   1   7
ATOM      7  C   UNL     1      43.790   5.038  10.569  0.00  0.00    +0.000 C 
BRANCH   7   8
ATOM      8  N   UNL     1      44.363   4.638   9.288  0.00  0.00    +0.000 NA
ATOM      9  H   UNL     1      43.876   5.129   8.540  0.00  0.00    +0.000 HD
BRANCH   8  11
ATOM     10  C   UNL     1      44.229   2.344  10.275  0.00  0.00    +0.000 C 
ATOM     11  C   UNL     1      44.289   3.199   9.004  0.00  0.00    +0.000 C 
BRANCH  11  12
ATOM     12  C   UNL     1      45.503   2.807   8.167  0.00  0.00    +0.000 A 
ATOM     13  C   UNL     1      46.059   1.524   8.260  0.00  0.00    +0.000 A 
ATOM     14  C   UNL     1      47.138   1.159   7.453  0.00  0.00    +0.000 A 
ATOM     15  C   UNL     1      47.676   2.069   6.544  0.00  0.00    +0.000 A 
ATOM     16  C   UNL     1      47.141   3.351   6.447  0.00  0.00    +0.000 A 
ATOM     17  C   UNL     1      46.063   3.716   7.252  0.00  0.00    +0.000 A 
ENDBRANCH  11  12
ENDBRANCH   8  11
ENDBRANCH   7   8
ENDBRANCH   1   7
BRANCH   4  18
ATOM     18  C   UNL     1      47.868   7.594  13.887  0.00  0.00    +0.000 C 
BRANCH  18  19
ATOM     19  N   UNL     1      48.365   6.676  14.880  0.00  0.00    +0.000 N 
ATOM     20  C   UNL     1      48.767   7.114  16.114  0.00  0.00    +0.000 C 
ATOM     21  O   UNL     1      48.680   8.295  16.445  0.00  0.00    +0.000 OA
ATOM     22  H   UNL     1      48.643   5.755  14.557  0.00  0.00    +0.000 HD
BRANCH  20  23
ATOM     23  C   UNL     1      49.254   6.092  17.048  0.00  0.00    +0.000 A 
ATOM     24  C   UNL     1      48.350   5.426  17.865  0.00  0.00    +0.000 A 
ATOM     25  S   UNL     1      49.068   4.237  18.853  0.00  0.00    +0.000 S 
ATOM     26  C   UNL     1      50.621   4.606  18.261  0.00  0.00    +0.000 A 
ATOM     27  N   UNL     1      51.717   3.950  18.726  0.00  0.00    +0.000 NA
ATOM     28  C   UNL     1      52.833   4.346  18.214  0.00  0.00    +0.000 A 
ATOM     29  N   UNL     1      52.951   5.337  17.273  0.00  0.00    +0.000 N 
ATOM     30  C   UNL     1      51.870   6.010  16.757  0.00  0.00    +0.000 A 
ATOM     31  O   UNL     1      52.009   6.868  15.892  0.00  0.00    +0.000 OA
ATOM     32  C   UNL     1      50.589   5.608  17.308  0.00  0.00    +0.000 A 
ATOM     33  H   UNL     1      53.855   5.596  16.909  0.00  0.00    +0.000 HD
ENDBRANCH  20  23
ENDBRANCH  18  19
ENDBRANCH   4  18
TORSDOF 7
ENDMDL
MODEL 5
REMARK VINA RESULT:    -7.297      2.959      8.460
REMARK INTER + INTRA:         -11.791
REMARK INTER:                  -9.766
REMARK INTRA:                  -2.025
REMARK UNBOUND:                -1.508
REMARK  Name = 
REMARK  8 active torsions:
REMARK  status: ('A' for Active; 'I' for Inactive)
REMARK    1  A    between atoms: C_1  and  C_2
REMARK    2  A    between atoms: C_2  and  N_3
REMARK    3  A    between atoms: C_2  and  C_25
REMARK    4  A    between atoms: N_3  and  C_4
REMARK    5  A    between atoms: C_4  and  C_5
REMARK    6  A    between atoms: C_8  and  C_9
REMARK    7  A    between atoms: C_9  and  N_10
REMARK    8  A    between atoms: C_11  and  C_13
REMARK                            x       y       z     vdW  Elec       q    Type
REMARK                         _______ _______ _______ _____ _____    ______ ____
ROOT
ATOM      1  C   UNL     1      48.934   7.913  16.256  0.00  0.00    +0.000 A 
ATOM      2  C   UNL     1      48.258   8.996  15.674  0.00  0.00    +0.000 A 
ATOM      3  C   UNL     1      47.826   8.937  14.345  0.00  0.00    +0.000 A 
ATOM      4  C   UNL     1      48.061   7.797  13.570  0.00  0.00    +0.000 A 
ATOM      5  C   UNL     1      48.771   6.731  14.136  0.00  0.00    +0.000 A 
ATOM      6  C   UNL     1      49.194   6.784  15.467  0.00  0.00    +0.000 A 
ENDROOT
BRANCH   1   7
ATOM      7  C   UNL     1      49.378   7.956  17.704  0.00  0.00    +0.000 C 
BRANCH   7   8
ATOM      8  N   UNL     1      48.319   7.481  18.588  0.00  0.00    +0.000 NA
ATOM      9  H   UNL     1      48.061   8.231  19.228  0.00  0.00    +0.000 HD
BRANCH   8  11
ATOM     10  C   UNL     1      50.094   6.379  19.963  0.00  0.00    +0.000 C 
ATOM     11  C   UNL     1      48.672   6.305  19.394  0.00  0.00    +0.000 C 
BRANCH  11  12
ATOM     12  C   UNL     1      48.520   5.059  18.527  0.00  0.00    +0.000 A 
ATOM     13  C   UNL     1      47.296   4.748  17.919  0.00  0.00    +0.000 A 
ATOM     14  C   UNL     1      47.180   3.634  17.086  0.00  0.00    +0.000 A 
ATOM     15  C   UNL     1      48.284   2.814  16.851  0.00  0.00    +0.000 A 
ATOM     16  C   UNL     1      49.504   3.104  17.455  0.00  0.00    +0.000 A 
ATOM     17  C   UNL     1      49.621   4.217  18.286  0.00  0.00    +0.000 A 
ENDBRANCH  11  12
ENDBRANCH   8  11
ENDBRANCH   7   8
ENDBRANCH   1   7
BRANCH   4  18
ATOM     18  C   UNL     1      47.604   7.730  12.138  0.00  0.00    +0.000 C 
BRANCH  18  19
ATOM     19  N   UNL     1      46.909   6.495  11.877  0.00  0.00    +0.000 N 
ATOM     20  C   UNL     1      45.541   6.435  11.886  0.00  0.00    +0.000 C 
ATOM     21  O   UNL     1      44.847   7.433  12.068  0.00  0.00    +0.000 OA
ATOM     22  H   UNL     1      47.451   5.639  11.941  0.00  0.00    +0.000 HD
BRANCH  20  23
ATOM     23  C   UNL     1      44.938   5.126  11.605  0.00  0.00    +0.000 A 
ATOM     24  C   UNL     1      44.242   4.464  12.608  0.00  0.00    +0.000 A 
ATOM     25  S   UNL     1      43.562   2.984  12.107  0.00  0.00    +0.000 S 
ATOM     26  C   UNL     1      44.217   3.150  10.545  0.00  0.00    +0.000 A 
ATOM     27  N   UNL     1      44.025   2.188   9.604  0.00  0.00    +0.000 NA
ATOM     28  C   UNL     1      44.599   2.426   8.473  0.00  0.00    +0.000 A 
ATOM     29  N   UNL     1      45.345   3.544   8.197  0.00  0.00    +0.000 N 
ATOM     30  C   UNL     1      45.546   4.552   9.108  0.00  0.00    +0.000 A 
ATOM     31  O   UNL     1      46.190   5.554   8.817  0.00  0.00    +0.000 OA
ATOM     32  C   UNL     1      44.928   4.328  10.402  0.00  0.00    +0.000 A 
ATOM     33  H   UNL     1      45.764   3.672   7.289  0.00  0.00    +0.000 HD
ENDBRANCH  20  23
ENDBRANCH  18  19
ENDBRANCH   4  18
TORSDOF 7
ENDMDL
MODEL 6
REMARK VINA RESULT:    -6.997      2.136      3.643
REMARK INTER + INTRA:         -11.368
REMARK INTER:                 -10.515
REMARK INTRA:                  -0.853
REMARK UNBOUND:                -1.508
REMARK  Name = 
REMARK  8 active torsions:
REMARK  status: ('A' for Active; 'I' for Inactive)
REMARK    1  A    between atoms: C_1  and  C_2
REMARK    2  A    between atoms: C_2  and  N_3
REMARK    3  A    between atoms: C_2  and  C_25
REMARK    4  A    between atoms: N_3  and  C_4
REMARK    5  A    between atoms: C_4  and  C_5
REMARK    6  A    between atoms: C_8  and  C_9
REMARK    7  A    between atoms: C_9  and  N_10
REMARK    8  A    between atoms: C_11  and  C_13
REMARK                            x       y       z     vdW  Elec       q    Type
REMARK                         _______ _______ _______ _____ _____    ______ ____
ROOT
ATOM      1  C   UNL     1      44.907   4.797  11.556  0.00  0.00    +0.000 A 
ATOM      2  C   UNL     1      45.318   5.976  12.195  0.00  0.00    +0.000 A 
ATOM      3  C   UNL     1      46.105   5.925  13.351  0.00  0.00    +0.000 A 
ATOM      4  C   UNL     1      46.496   4.696  13.892  0.00  0.00    +0.000 A 
ATOM      5  C   UNL     1      46.054   3.518  13.279  0.00  0.00    +0.000 A 
ATOM      6  C   UNL     1      45.277   3.567  12.118  0.00  0.00    +0.000 A 
ENDROOT
BRANCH   1   7
ATOM      7  C   UNL     1      44.082   4.843  10.287  0.00  0.00    +0.000 C 
BRANCH   7   8
ATOM      8  N   UNL     1      44.896   4.512   9.122  0.00  0.00    +0.000 NA
ATOM      9  H   UNL     1      44.787   5.245   8.423  0.00  0.00    +0.000 HD
BRANCH   8  11
ATOM     10  C   UNL     1      44.162   2.150   9.496  0.00  0.00    +0.000 C 
ATOM     11  C   UNL     1      44.565   3.230   8.485  0.00  0.00    +0.000 C 
BRANCH  11  12
ATOM     12  C   UNL     1      45.772   2.765   7.676  0.00  0.00    +0.000 A 
ATOM     13  C   UNL     1      46.432   1.567   7.988  0.00  0.00    +0.000 A 
ATOM     14  C   UNL     1      47.503   1.125   7.211  0.00  0.00    +0.000 A 
ATOM     15  C   UNL     1      47.932   1.872   6.114  0.00  0.00    +0.000 A 
ATOM     16  C   UNL     1      47.294   3.069   5.798  0.00  0.00    +0.000 A 
ATOM     17  C   UNL     1      46.223   3.511   6.573  0.00  0.00    +0.000 A 
ENDBRANCH  11  12
ENDBRANCH   8  11
ENDBRANCH   7   8
ENDBRANCH   1   7
BRANCH   4  18
ATOM     18  C   UNL     1      47.338   4.635  15.138  0.00  0.00    +0.000 C 
BRANCH  18  19
ATOM     19  N   UNL     1      47.904   5.924  15.440  0.00  0.00    +0.000 N 
ATOM     20  C   UNL     1      48.982   6.047  16.276  0.00  0.00    +0.000 C 
ATOM     21  O   UNL     1      49.541   5.068  16.765  0.00  0.00    +0.000 OA
ATOM     22  H   UNL     1      47.336   6.738  15.228  0.00  0.00    +0.000 HD
BRANCH  20  23
ATOM     23  C   UNL     1      49.478   7.408  16.513  0.00  0.00    +0.000 A 
ATOM     24  C   UNL     1      49.546   7.896  17.812  0.00  0.00    +0.000 A 
ATOM     25  S   UNL     1      50.190   9.470  17.920  0.00  0.00    +0.000 S 
ATOM     26  C   UNL     1      50.354   9.577  16.229  0.00  0.00    +0.000 A 
ATOM     27  N   UNL     1      50.837  10.706  15.647  0.00  0.00    +0.000 NA
ATOM     28  C   UNL     1      50.883  10.665  14.358  0.00  0.00    +0.000 A 
ATOM     29  N   UNL     1      50.494   9.591  13.599  0.00  0.00    +0.000 N 
ATOM     30  C   UNL     1      50.023   8.421  14.144  0.00  0.00    +0.000 A 
ATOM     31  O   UNL     1      49.715   7.468  13.436  0.00  0.00    +0.000 OA
ATOM     32  C   UNL     1      49.942   8.420  15.593  0.00  0.00    +0.000 A 
ATOM     33  H   UNL     1      50.560   9.620  12.593  0.00  0.00    +0.000 HD
ENDBRANCH  20  23
ENDBRANCH  18  19
ENDBRANCH   4  18
TORSDOF 7
ENDMDL
MODEL 7
REMARK VINA RESULT:    -6.719      3.756      5.223
REMARK INTER + INTRA:         -10.976
REMARK INTER:                  -9.687
REMARK INTRA:                  -1.289
REMARK UNBOUND:                -1.508
REMARK  Name = 
REMARK  8 active torsions:
REMARK  status: ('A' for Active; 'I' for Inactive)
REMARK    1  A    between atoms: C_1  and  C_2
REMARK    2  A    between atoms: C_2  and  N_3
REMARK    3  A    between atoms: C_2  and  C_25
REMARK    4  A    between atoms: N_3  and  C_4
REMARK    5  A    between atoms: C_4  and  C_5
REMARK    6  A    between atoms: C_8  and  C_9
REMARK    7  A    between atoms: C_9  and  N_10
REMARK    8  A    between atoms: C_11  and  C_13
REMARK                            x       y       z     vdW  Elec       q    Type
REMARK                         _______ _______ _______ _____ _____    ______ ____
ROOT
ATOM      1  C   UNL     1      45.470   5.674  11.679  0.00  0.00    +0.000 A 
ATOM      2  C   UNL     1      44.856   6.914  11.447  0.00  0.00    +0.000 A 
ATOM      3  C   UNL     1      45.394   8.088  11.986  0.00  0.00    +0.000 A 
ATOM      4  C   UNL     1      46.553   8.048  12.767  0.00  0.00    +0.000 A 
ATOM      5  C   UNL     1      47.145   6.807  13.033  0.00  0.00    +0.000 A 
ATOM      6  C   UNL     1      46.615   5.634  12.487  0.00  0.00    +0.000 A 
ENDROOT
BRANCH   1   7
ATOM      7  C   UNL     1      44.914   4.402  11.074  0.00  0.00    +0.000 C 
BRANCH   7   8
ATOM      8  N   UNL     1      44.969   4.449   9.617  0.00  0.00    +0.000 NA
ATOM      9  H   UNL     1      44.375   5.209   9.288  0.00  0.00    +0.000 HD
BRANCH   8  11
ATOM     10  C   UNL     1      44.216   2.085   9.927  0.00  0.00    +0.000 C 
ATOM     11  C   UNL     1      44.536   3.217   8.945  0.00  0.00    +0.000 C 
BRANCH  11  12
ATOM     12  C   UNL     1      45.634   2.779   7.981  0.00  0.00    +0.000 A 
ATOM     13  C   UNL     1      46.076   3.628   6.957  0.00  0.00    +0.000 A 
ATOM     14  C   UNL     1      47.117   3.237   6.112  0.00  0.00    +0.000 A 
ATOM     15  C   UNL     1      47.728   1.994   6.277  0.00  0.00    +0.000 A 
ATOM     16  C   UNL     1      47.292   1.136   7.282  0.00  0.00    +0.000 A 
ATOM     17  C   UNL     1      46.254   1.525   8.127  0.00  0.00    +0.000 A 
ENDBRANCH  11  12
ENDBRANCH   8  11
ENDBRANCH   7   8
ENDBRANCH   1   7
BRANCH   4  18
ATOM     18  C   UNL     1      47.132   9.307  13.353  0.00  0.00    +0.000 C 
BRANCH  18  19
ATOM     19  N   UNL     1      48.510   9.469  12.965  0.00  0.00    +0.000 N 
ATOM     20  C   UNL     1      48.851  10.153  11.828  0.00  0.00    +0.000 C 
ATOM     21  O   UNL     1      48.007  10.696  11.118  0.00  0.00    +0.000 OA
ATOM     22  H   UNL     1      49.188   8.857  13.406  0.00  0.00    +0.000 HD
BRANCH  20  23
ATOM     23  C   UNL     1      50.284  10.259  11.529  0.00  0.00    +0.000 A 
ATOM     24  C   UNL     1      50.878  11.512  11.462  0.00  0.00    +0.000 A 
ATOM     25  S   UNL     1      52.554  11.459  11.157  0.00  0.00    +0.000 S 
ATOM     26  C   UNL     1      52.536   9.761  11.052  0.00  0.00    +0.000 A 
ATOM     27  N   UNL     1      53.674   9.068  10.778  0.00  0.00    +0.000 NA
ATOM     28  C   UNL     1      53.514   7.790  10.698  0.00  0.00    +0.000 A 
ATOM     29  N   UNL     1      52.319   7.141  10.874  0.00  0.00    +0.000 N 
ATOM     30  C   UNL     1      51.150   7.797  11.175  0.00  0.00    +0.000 A 
ATOM     31  O   UNL     1      50.104   7.182  11.359  0.00  0.00    +0.000 OA
ATOM     32  C   UNL     1      51.273   9.240  11.266  0.00  0.00    +0.000 A 
ATOM     33  H   UNL     1      52.263   6.137  10.803  0.00  0.00    +0.000 HD
ENDBRANCH  20  23
ENDBRANCH  18  19
ENDBRANCH   4  18
TORSDOF 7
ENDMDL
MODEL 8
REMARK VINA RESULT:    -6.711      3.306      8.134
REMARK INTER + INTRA:         -10.966
REMARK INTER:                  -9.281
REMARK INTRA:                  -1.684
REMARK UNBOUND:                -1.508
REMARK  Name = 
REMARK  8 active torsions:
REMARK  status: ('A' for Active; 'I' for Inactive)
REMARK    1  A    between atoms: C_1  and  C_2
REMARK    2  A    between atoms: C_2  and  N_3
REMARK    3  A    between atoms: C_2  and  C_25
REMARK    4  A    between atoms: N_3  and  C_4
REMARK    5  A    between atoms: C_4  and  C_5
REMARK    6  A    between atoms: C_8  and  C_9
REMARK    7  A    between atoms: C_9  and  N_10
REMARK    8  A    between atoms: C_11  and  C_13
REMARK                            x       y       z     vdW  Elec       q    Type
REMARK                         _______ _______ _______ _____ _____    ______ ____
ROOT
ATOM      1  C   UNL     1      50.236   7.265  15.780  0.00  0.00    +0.000 A 
ATOM      2  C   UNL     1      48.939   6.790  15.531  0.00  0.00    +0.000 A 
ATOM      3  C   UNL     1      48.287   7.091  14.331  0.00  0.00    +0.000 A 
ATOM      4  C   UNL     1      48.914   7.873  13.356  0.00  0.00    +0.000 A 
ATOM      5  C   UNL     1      50.193   8.381  13.619  0.00  0.00    +0.000 A 
ATOM      6  C   UNL     1      50.850   8.072  14.813  0.00  0.00    +0.000 A 
ENDROOT
BRANCH   1   7
ATOM      7  C   UNL     1      50.962   6.918  17.063  0.00  0.00    +0.000 C 
BRANCH   7   8
ATOM      8  N   UNL     1      50.018   6.564  18.118  0.00  0.00    +0.000 NA
ATOM      9  H   UNL     1      49.997   7.314  18.808  0.00  0.00    +0.000 HD
BRANCH   8  11
ATOM     10  C   UNL     1      51.831   5.066  18.969  0.00  0.00    +0.000 C 
ATOM     11  C   UNL     1      50.325   5.312  18.823  0.00  0.00    +0.000 C 
BRANCH  11  12
ATOM     12  C   UNL     1      49.677   4.158  18.065  0.00  0.00    +0.000 A 
ATOM     13  C   UNL     1      48.293   4.129  17.841  0.00  0.00    +0.000 A 
ATOM     14  C   UNL     1      47.716   3.094  17.103  0.00  0.00    +0.000 A 
ATOM     15  C   UNL     1      48.512   2.074  16.580  0.00  0.00    +0.000 A 
ATOM     16  C   UNL     1      49.886   2.083  16.804  0.00  0.00    +0.000 A 
ATOM     17  C   UNL     1      50.463   3.117  17.540  0.00  0.00    +0.000 A 
ENDBRANCH  11  12
ENDBRANCH   8  11
ENDBRANCH   7   8
ENDBRANCH   1   7
BRANCH   4  18
ATOM     18  C   UNL     1      48.215   8.204  12.065  0.00  0.00    +0.000 C 
BRANCH  18  19
ATOM     19  N   UNL     1      47.543   7.047  11.533  0.00  0.00    +0.000 N 
ATOM     20  C   UNL     1      46.185   7.036  11.351  0.00  0.00    +0.000 C 
ATOM     21  O   UNL     1      45.490   8.022  11.588  0.00  0.00    +0.000 OA
ATOM     22  H   UNL     1      48.056   6.172  11.538  0.00  0.00    +0.000 HD
BRANCH  20  23
ATOM     23  C   UNL     1      45.605   5.806  10.800  0.00  0.00    +0.000 A 
ATOM     24  C   UNL     1      45.772   5.514   9.452  0.00  0.00    +0.000 A 
ATOM     25  S   UNL     1      45.083   4.028   8.983  0.00  0.00    +0.000 S 
ATOM     26  C   UNL     1      44.492   3.744  10.554  0.00  0.00    +0.000 A 
ATOM     27  N   UNL     1      43.770   2.627  10.835  0.00  0.00    +0.000 NA
ATOM     28  C   UNL     1      43.358   2.551  12.055  0.00  0.00    +0.000 A 
ATOM     29  N   UNL     1      43.610   3.490  13.023  0.00  0.00    +0.000 N 
ATOM     30  C   UNL     1      44.354   4.621  12.791  0.00  0.00    +0.000 A 
ATOM     31  O   UNL     1      44.587   5.424  13.689  0.00  0.00    +0.000 OA
ATOM     32  C   UNL     1      44.832   4.760  11.429  0.00  0.00    +0.000 A 
ATOM     33  H   UNL     1      43.263   3.367  13.962  0.00  0.00    +0.000 HD
ENDBRANCH  20  23
ENDBRANCH  18  19
ENDBRANCH   4  18
TORSDOF 7
ENDMDL
MODEL 9
REMARK VINA RESULT:    -6.427      4.705      7.663
REMARK INTER + INTRA:         -10.565
REMARK INTER:                  -9.353
REMARK INTRA:                  -1.213
REMARK UNBOUND:                -1.508
REMARK  Name = 
REMARK  8 active torsions:
REMARK  status: ('A' for Active; 'I' for Inactive)
REMARK    1  A    between atoms: C_1  and  C_2
REMARK    2  A    between atoms: C_2  and  N_3
REMARK    3  A    between atoms: C_2  and  C_25
REMARK    4  A    between atoms: N_3  and  C_4
REMARK    5  A    between atoms: C_4  and  C_5
REMARK    6  A    between atoms: C_8  and  C_9
REMARK    7  A    between atoms: C_9  and  N_10
REMARK    8  A    between atoms: C_11  and  C_13
REMARK                            x       y       z     vdW  Elec       q    Type
REMARK                         _______ _______ _______ _____ _____    ______ ____
ROOT
ATOM      1  C   UNL     1      50.306   8.826  11.937  0.00  0.00    +0.000 A 
ATOM      2  C   UNL     1      49.535   9.807  12.578  0.00  0.00    +0.000 A 
ATOM      3  C   UNL     1      48.185   9.580  12.865  0.00  0.00    +0.000 A 
ATOM      4  C   UNL     1      47.578   8.369  12.517  0.00  0.00    +0.000 A 
ATOM      5  C   UNL     1      48.335   7.403  11.842  0.00  0.00    +0.000 A 
ATOM      6  C   UNL     1      49.687   7.625  11.565  0.00  0.00    +0.000 A 
ENDROOT
BRANCH   1   7
ATOM      7  C   UNL     1      51.777   9.051  11.651  0.00  0.00    +0.000 C 
BRANCH   7   8
ATOM      8  N   UNL     1      52.507   7.788  11.644  0.00  0.00    +0.000 NA
ATOM      9  H   UNL     1      52.757   7.545  12.602  0.00  0.00    +0.000 HD
BRANCH   8  11
ATOM     10  C   UNL     1      54.184   9.207  10.449  0.00  0.00    +0.000 C 
ATOM     11  C   UNL     1      53.739   7.794  10.845  0.00  0.00    +0.000 C 
BRANCH  11  12
ATOM     12  C   UNL     1      53.512   6.948   9.596  0.00  0.00    +0.000 A 
ATOM     13  C   UNL     1      52.446   7.217   8.727  0.00  0.00    +0.000 A 
ATOM     14  C   UNL     1      52.276   6.469   7.560  0.00  0.00    +0.000 A 
ATOM     15  C   UNL     1      53.166   5.442   7.248  0.00  0.00    +0.000 A 
ATOM     16  C   UNL     1      54.223   5.155   8.107  0.00  0.00    +0.000 A 
ATOM     17  C   UNL     1      54.394   5.902   9.272  0.00  0.00    +0.000 A 
ENDBRANCH  11  12
ENDBRANCH   8  11
ENDBRANCH   7   8
ENDBRANCH   1   7
BRANCH   4  18
ATOM     18  C   UNL     1      46.125   8.120  12.818  0.00  0.00    +0.000 C 
BRANCH  18  19
ATOM     19  N   UNL     1      45.751   6.773  12.473  0.00  0.00    +0.000 N 
ATOM     20  C   UNL     1      44.672   6.521  11.667  0.00  0.00    +0.000 C 
ATOM     21  O   UNL     1      44.007   7.426  11.168  0.00  0.00    +0.000 OA
ATOM     22  H   UNL     1      46.143   6.026  13.037  0.00  0.00    +0.000 HD
BRANCH  20  23
ATOM     23  C   UNL     1      44.383   5.111  11.377  0.00  0.00    +0.000 A 
ATOM     24  C   UNL     1      43.610   4.375  12.266  0.00  0.00    +0.000 A 
ATOM     25  S   UNL     1      43.325   2.772  11.759  0.00  0.00    +0.000 S 
ATOM     26  C   UNL     1      44.267   2.990  10.359  0.00  0.00    +0.000 A 
ATOM     27  N   UNL     1      44.456   1.969   9.482  0.00  0.00    +0.000 NA
ATOM     28  C   UNL     1      45.214   2.260   8.479  0.00  0.00    +0.000 A 
ATOM     29  N   UNL     1      45.795   3.485   8.271  0.00  0.00    +0.000 N 
ATOM     30  C   UNL     1      45.613   4.553   9.118  0.00  0.00    +0.000 A 
ATOM     31  O   UNL     1      46.122   5.644   8.884  0.00  0.00    +0.000 OA
ATOM     32  C   UNL     1      44.776   4.274  10.269  0.00  0.00    +0.000 A 
ATOM     33  H   UNL     1      46.374   3.650   7.462  0.00  0.00    +0.000 HD
ENDBRANCH  20  23
ENDBRANCH  18  19
ENDBRANCH   4  18
TORSDOF 7
ENDMDL
