MODEL 1
REMARK VINA RESULT:    -8.275      0.000      0.000
REMARK INTER + INTRA:         -12.151
REMARK INTER:                 -11.420
REMARK INTRA:                  -0.731
REMARK UNBOUND:                -0.731
REMARK  Name = 
REMARK  8 active torsions:
REMARK  status: ('A' for Active; 'I' for Inactive)
REMARK    1  A    between atoms: C_1  and  C_2
REMARK    2  A    between atoms: C_2  and  C_3
REMARK    3  A    between atoms: C_5  and  C_6
REMARK    4  A    between atoms: C_11  and  N_12
REMARK    5  A    between atoms: N_12  and  C_13
REMARK    6  A    between atoms: C_13  and  C_14
REMARK    7  A    between atoms: C_17  and  C_18
REMARK    8  A    between atoms: C_18  and  N_19
REMARK                            x       y       z     vdW  Elec       q    Type
REMARK                         _______ _______ _______ _____ _____    ______ ____
ROOT
ATOM      1  C   UNL     1      46.463   6.035  12.085  0.00  0.00    +0.000 A 
ATOM      2  C   UNL     1      47.126   5.533  13.226  0.00  0.00    +0.000 A 
ATOM      3  C   UNL     1      46.536   4.547  13.998  0.00  0.00    +0.000 A 
ATOM      4  N   UNL     1      45.325   4.012  13.725  0.00  0.00    +0.000 NA
ATOM      5  C   UNL     1      44.718   4.490  12.609  0.00  0.00    +0.000 A 
ATOM      6  C   UNL     1      45.200   5.496  11.739  0.00  0.00    +0.000 A 
ENDROOT
BRANCH   3   7
ATOM      7  C   UNL     1      47.259   4.028  15.208  0.00  0.00    +0.000 C 
ATOM      8  N   UNL     1      47.202   4.831  16.312  0.00  0.00    +0.000 N 
ATOM      9  O   UNL     1      47.859   2.963  15.218  0.00  0.00    +0.000 OA
ATOM     10  H   UNL     1      46.682   5.701  16.269  0.00  0.00    +0.000 HD
ATOM     11  H   UNL     1      47.649   4.537  17.168  0.00  0.00    +0.000 HD
ENDBRANCH   3   7
BRANCH   1  13
ATOM     12  C   UNL     1      48.610   7.394  11.925  0.00  0.00    +0.000 C 
ATOM     13  C   UNL     1      47.207   7.152  11.385  0.00  0.00    +0.000 C 
ENDBRANCH   1  13
BRANCH   6  14
ATOM     14  N   UNL     1      44.437   5.737  10.580  0.00  0.00    +0.000 N 
ATOM     15  H   UNL     1      44.813   6.502  10.023  0.00  0.00    +0.000 HD
BRANCH  14  16
ATOM     16  C   UNL     1      43.916   4.662   9.765  0.00  0.00    +0.000 C 
BRANCH  16  17
ATOM     17  C   UNL     1      44.938   3.859   8.995  0.00  0.00    +0.000 A 
ATOM     18  C   UNL     1      44.917   2.467   9.197  0.00  0.00    +0.000 A 
ATOM     19  C   UNL     1      45.767   1.617   8.493  0.00  0.00    +0.000 A 
ATOM     20  C   UNL     1      46.662   2.136   7.556  0.00  0.00    +0.000 A 
ATOM     21  C   UNL     1      46.669   3.524   7.328  0.00  0.00    +0.000 A 
ATOM     22  C   UNL     1      45.809   4.380   8.033  0.00  0.00    +0.000 A 
BRANCH  20  23
ATOM     23  C   UNL     1      47.613   1.215   6.835  0.00  0.00    +0.000 C 
BRANCH  23  24
ATOM     24  N   UNL     1      48.396   1.914   5.824  0.00  0.00    +0.000 NA
ATOM     25  H   UNL     1      49.062   1.259   5.417  0.00  0.00    +0.000 HD
ATOM     26  H   UNL     1      48.949   2.638   6.279  0.00  0.00    +0.000 HD
ENDBRANCH  23  24
ENDBRANCH  20  23
ENDBRANCH  16  17
ENDBRANCH  14  16
ENDBRANCH   6  14
TORSDOF 7
ENDMDL
MODEL 2
REMARK VINA RESULT:    -7.752      1.222      1.644
REMARK INTER + INTRA:         -11.428
REMARK INTER:                 -10.962
REMARK INTRA:                  -0.466
REMARK UNBOUND:                -0.731
REMARK  Name = 
REMARK  8 active torsions:
REMARK  status: ('A' for Active; 'I' for Inactive)
REMARK    1  A    between atoms: C_1  and  C_2
REMARK    2  A    between atoms: C_2  and  C_3
REMARK    3  A    between atoms: C_5  and  C_6
REMARK    4  A    between atoms: C_11  and  N_12
REMARK    5  A    between atoms: N_12  and  C_13
REMARK    6  A    between atoms: C_13  and  C_14
REMARK    7  A    between atoms: C_17  and  C_18
REMARK    8  A    between atoms: C_18  and  N_19
REMARK                            x       y       z     vdW  Elec       q    Type
REMARK                         _______ _______ _______ _____ _____    ______ ____
ROOT
ATOM      1  C   UNL     1      45.404   6.332  12.120  0.00  0.00    +0.000 A 
ATOM      2  C   UNL     1      46.224   6.162  13.256  0.00  0.00    +0.000 A 
ATOM      3  C   UNL     1      46.452   4.897  13.769  0.00  0.00    +0.000 A 
ATOM      4  N   UNL     1      45.927   3.772  13.236  0.00  0.00    +0.000 NA
ATOM      5  C   UNL     1      45.164   3.956  12.128  0.00  0.00    +0.000 A 
ATOM      6  C   UNL     1      44.843   5.185  11.507  0.00  0.00    +0.000 A 
ENDROOT
BRANCH   3   7
ATOM      7  C   UNL     1      47.327   4.739  14.979  0.00  0.00    +0.000 C 
ATOM      8  N   UNL     1      46.937   3.770  15.861  0.00  0.00    +0.000 N 
ATOM      9  O   UNL     1      48.322   5.423  15.175  0.00  0.00    +0.000 OA
ATOM     10  H   UNL     1      46.114   3.215  15.656  0.00  0.00    +0.000 HD
ATOM     11  H   UNL     1      47.488   3.595  16.687  0.00  0.00    +0.000 HD
ENDBRANCH   3   7
BRANCH   1  13
ATOM     12  C   UNL     1      45.575   8.778  12.807  0.00  0.00    +0.000 C 
ATOM     13  C   UNL     1      45.199   7.778  11.722  0.00  0.00    +0.000 C 
ENDBRANCH   1  13
BRANCH   6  14
ATOM     14  N   UNL     1      44.128   5.105  10.297  0.00  0.00    +0.000 N 
ATOM     15  H   UNL     1      44.414   5.820   9.631  0.00  0.00    +0.000 HD
BRANCH  14  16
ATOM     16  C   UNL     1      43.833   3.840   9.660  0.00  0.00    +0.000 C 
BRANCH  16  17
ATOM     17  C   UNL     1      44.933   3.255   8.806  0.00  0.00    +0.000 A 
ATOM     18  C   UNL     1      45.706   4.173   8.072  0.00  0.00    +0.000 A 
ATOM     19  C   UNL     1      46.789   3.757   7.300  0.00  0.00    +0.000 A 
ATOM     20  C   UNL     1      47.136   2.406   7.246  0.00  0.00    +0.000 A 
ATOM     21  C   UNL     1      46.385   1.487   8.000  0.00  0.00    +0.000 A 
ATOM     22  C   UNL     1      45.297   1.905   8.782  0.00  0.00    +0.000 A 
BRANCH  20  23
ATOM     23  C   UNL     1      48.277   1.959   6.369  0.00  0.00    +0.000 C 
BRANCH  23  24
ATOM     24  N   UNL     1      48.211   2.546   5.037  0.00  0.00    +0.000 NA
ATOM     25  H   UNL     1      48.769   3.399   5.028  0.00  0.00    +0.000 HD
ATOM     26  H   UNL     1      47.252   2.829   4.850  0.00  0.00    +0.000 HD
ENDBRANCH  23  24
ENDBRANCH  20  23
ENDBRANCH  16  17
ENDBRANCH  14  16
ENDBRANCH   6  14
TORSDOF 7
ENDMDL
MODEL 3
REMARK VINA RESULT:    -7.415      2.216      2.969
REMARK INTER + INTRA:         -10.964
REMARK INTER:                 -10.316
REMARK INTRA:                  -0.648
REMARK UNBOUND:                -0.731
REMARK  Name = 
REMARK  8 active torsions:
REMARK  status: ('A' for Active; 'I' for Inactive)
REMARK    1  A    between atoms: C_1  and  C_2
REMARK    2  A    between atoms: C_2  and  C_3
REMARK    3  A    between atoms: C_5  and  C_6
REMARK    4  A    between atoms: C_11  and  N_12
REMARK    5  A    between atoms: N_12  and  C_13
REMARK    6  A    between atoms: C_13  and  C_14
REMARK    7  A    between atoms: C_17  and  C_18
REMARK    8  A    between atoms: C_18  and  N_19
REMARK                            x       y       z     vdW  Elec       q    Type
REMARK                         _______ _______ _______ _____ _____    ______ ____
ROOT
ATOM      1  C   UNL     1      46.114   5.307  12.948  0.00  0.00    +0.000 A 
ATOM      2  C   UNL     1      46.745   6.511  13.329  0.00  0.00    +0.000 A 
ATOM      3  C   UNL     1      46.343   7.715  12.777  0.00  0.00    +0.000 A 
ATOM      4  N   UNL     1      45.350   7.821  11.867  0.00  0.00    +0.000 NA
ATOM      5  C   UNL     1      44.739   6.655  11.535  0.00  0.00    +0.000 A 
ATOM      6  C   UNL     1      45.053   5.361  12.012  0.00  0.00    +0.000 A 
ENDROOT
BRANCH   3   7
ATOM      7  C   UNL     1      47.029   8.983  13.196  0.00  0.00    +0.000 C 
ATOM      8  N   UNL     1      47.202   9.136  14.543  0.00  0.00    +0.000 N 
ATOM      9  O   UNL     1      47.410   9.828  12.400  0.00  0.00    +0.000 OA
ATOM     10  H   UNL     1      46.884   8.407  15.171  0.00  0.00    +0.000 HD
ATOM     11  H   UNL     1      47.673   9.955  14.897  0.00  0.00    +0.000 HD
ENDBRANCH   3   7
BRANCH   1  13
ATOM     12  C   UNL     1      47.117   4.266  15.044  0.00  0.00    +0.000 C 
ATOM     13  C   UNL     1      46.710   4.072  13.590  0.00  0.00    +0.000 C 
ENDBRANCH   1  13
BRANCH   6  14
ATOM     14  N   UNL     1      44.196   4.321  11.604  0.00  0.00    +0.000 N 
ATOM     15  H   UNL     1      43.428   4.177  12.257  0.00  0.00    +0.000 HD
BRANCH  14  16
ATOM     16  C   UNL     1      43.790   4.154  10.226  0.00  0.00    +0.000 C 
BRANCH  16  17
ATOM     17  C   UNL     1      44.841   3.610   9.287  0.00  0.00    +0.000 A 
ATOM     18  C   UNL     1      44.993   2.211   9.266  0.00  0.00    +0.000 A 
ATOM     19  C   UNL     1      45.884   1.590   8.394  0.00  0.00    +0.000 A 
ATOM     20  C   UNL     1      46.646   2.352   7.507  0.00  0.00    +0.000 A 
ATOM     21  C   UNL     1      46.479   3.748   7.503  0.00  0.00    +0.000 A 
ATOM     22  C   UNL     1      45.578   4.374   8.377  0.00  0.00    +0.000 A 
BRANCH  20  23
ATOM     23  C   UNL     1      47.644   1.676   6.601  0.00  0.00    +0.000 C 
BRANCH  23  24
ATOM     24  N   UNL     1      48.749   2.557   6.245  0.00  0.00    +0.000 NA
ATOM     25  H   UNL     1      49.450   2.014   5.742  0.00  0.00    +0.000 HD
ATOM     26  H   UNL     1      49.197   2.883   7.098  0.00  0.00    +0.000 HD
ENDBRANCH  23  24
ENDBRANCH  20  23
ENDBRANCH  16  17
ENDBRANCH  14  16
ENDBRANCH   6  14
TORSDOF 7
ENDMDL
MODEL 4
REMARK VINA RESULT:    -7.358      1.835      2.104
REMARK INTER + INTRA:         -10.885
REMARK INTER:                 -10.167
REMARK INTRA:                  -0.718
REMARK UNBOUND:                -0.731
REMARK  Name = 
REMARK  8 active torsions:
REMARK  status: ('A' for Active; 'I' for Inactive)
REMARK    1  A    between atoms: C_1  and  C_2
REMARK    2  A    between atoms: C_2  and  C_3
REMARK    3  A    between atoms: C_5  and  C_6
REMARK    4  A    between atoms: C_11  and  N_12
REMARK    5  A    between atoms: N_12  and  C_13
REMARK    6  A    between atoms: C_13  and  C_14
REMARK    7  A    between atoms: C_17  and  C_18
REMARK    8  A    between atoms: C_18  and  N_19
REMARK                            x       y       z     vdW  Elec       q    Type
REMARK                         _______ _______ _______ _____ _____    ______ ____
ROOT
ATOM      1  C   UNL     1      45.519   6.583  12.036  0.00  0.00    +0.000 A 
ATOM      2  C   UNL     1      46.759   7.030  12.541  0.00  0.00    +0.000 A 
ATOM      3  C   UNL     1      47.607   6.149  13.188  0.00  0.00    +0.000 A 
ATOM      4  N   UNL     1      47.322   4.841  13.375  0.00  0.00    +0.000 NA
ATOM      5  C   UNL     1      46.137   4.426  12.857  0.00  0.00    +0.000 A 
ATOM      6  C   UNL     1      45.175   5.217  12.184  0.00  0.00    +0.000 A 
ENDROOT
BRANCH   3   7
ATOM      7  C   UNL     1      48.921   6.646  13.719  0.00  0.00    +0.000 C 
ATOM      8  N   UNL     1      49.762   7.185  12.786  0.00  0.00    +0.000 N 
ATOM      9  O   UNL     1      49.229   6.581  14.900  0.00  0.00    +0.000 OA
ATOM     10  H   UNL     1      49.465   7.234  11.818  0.00  0.00    +0.000 HD
ATOM     11  H   UNL     1      50.655   7.557  13.074  0.00  0.00    +0.000 HD
ENDBRANCH   3   7
BRANCH   1  13
ATOM     12  C   UNL     1      45.079   9.083  11.842  0.00  0.00    +0.000 C 
ATOM     13  C   UNL     1      44.679   7.678  11.414  0.00  0.00    +0.000 C 
ENDBRANCH   1  13
BRANCH   6  14
ATOM     14  N   UNL     1      44.076   4.530  11.637  0.00  0.00    +0.000 N 
ATOM     15  H   UNL     1      43.234   4.638  12.200  0.00  0.00    +0.000 HD
BRANCH  14  16
ATOM     16  C   UNL     1      43.797   4.530  10.218  0.00  0.00    +0.000 C 
BRANCH  16  17
ATOM     17  C   UNL     1      44.821   3.850   9.340  0.00  0.00    +0.000 A 
ATOM     18  C   UNL     1      44.872   2.446   9.416  0.00  0.00    +0.000 A 
ATOM     19  C   UNL     1      45.730   1.705   8.606  0.00  0.00    +0.000 A 
ATOM     20  C   UNL     1      46.561   2.349   7.688  0.00  0.00    +0.000 A 
ATOM     21  C   UNL     1      46.496   3.750   7.588  0.00  0.00    +0.000 A 
ATOM     22  C   UNL     1      45.628   4.497   8.399  0.00  0.00    +0.000 A 
BRANCH  20  23
ATOM     23  C   UNL     1      47.523   1.543   6.852  0.00  0.00    +0.000 C 
BRANCH  23  24
ATOM     24  N   UNL     1      48.475   2.387   6.141  0.00  0.00    +0.000 NA
ATOM     25  H   UNL     1      49.081   2.842   6.823  0.00  0.00    +0.000 HD
ATOM     26  H   UNL     1      47.966   3.132   5.670  0.00  0.00    +0.000 HD
ENDBRANCH  23  24
ENDBRANCH  20  23
ENDBRANCH  16  17
ENDBRANCH  14  16
ENDBRANCH   6  14
TORSDOF 7
ENDMDL
MODEL 5
REMARK VINA RESULT:    -6.705      2.286      6.735
REMARK INTER + INTRA:          -9.983
REMARK INTER:                  -9.897
REMARK INTRA:                  -0.086
REMARK UNBOUND:                -0.731
REMARK  Name = 
REMARK  8 active torsions:
REMARK  status: ('A' for Active; 'I' for Inactive)
REMARK    1  A    between atoms: C_1  and  C_2
REMARK    2  A    between atoms: C_2  and  C_3
REMARK    3  A    between atoms: C_5  and  C_6
REMARK    4  A    between atoms: C_11  and  N_12
REMARK    5  A    between atoms: N_12  and  C_13
REMARK    6  A    between atoms: C_13  and  C_14
REMARK    7  A    between atoms: C_17  and  C_18
REMARK    8  A    between atoms: C_18  and  N_19
REMARK                            x       y       z     vdW  Elec       q    Type
REMARK                         _______ _______ _______ _____ _____    ______ ____
ROOT
ATOM      1  C   UNL     1      45.025   2.976   9.466  0.00  0.00    +0.000 A 
ATOM      2  C   UNL     1      45.768   2.153   8.592  0.00  0.00    +0.000 A 
ATOM      3  C   UNL     1      46.594   2.717   7.635  0.00  0.00    +0.000 A 
ATOM      4  N   UNL     1      46.745   4.050   7.475  0.00  0.00    +0.000 NA
ATOM      5  C   UNL     1      46.043   4.823   8.343  0.00  0.00    +0.000 A 
ATOM      6  C   UNL     1      45.161   4.382   9.357  0.00  0.00    +0.000 A 
ENDROOT
BRANCH   3   7
ATOM      7  C   UNL     1      47.373   1.822   6.715  0.00  0.00    +0.000 C 
ATOM      8  N   UNL     1      48.381   2.432   6.021  0.00  0.00    +0.000 N 
ATOM      9  O   UNL     1      47.135   0.630   6.587  0.00  0.00    +0.000 OA
ATOM     10  H   UNL     1      48.556   3.420   6.165  0.00  0.00    +0.000 HD
ATOM     11  H   UNL     1      48.959   1.888   5.399  0.00  0.00    +0.000 HD
ENDBRANCH   3   7
BRANCH   1  13
ATOM     12  C   UNL     1      43.280   3.101  11.315  0.00  0.00    +0.000 C 
ATOM     13  C   UNL     1      44.122   2.212  10.410  0.00  0.00    +0.000 C 
ENDBRANCH   1  13
BRANCH   6  14
ATOM     14  N   UNL     1      44.640   5.377  10.206  0.00  0.00    +0.000 N 
ATOM     15  H   UNL     1      43.942   5.008  10.849  0.00  0.00    +0.000 HD
BRANCH  14  16
ATOM     16  C   UNL     1      45.479   6.384  10.816  0.00  0.00    +0.000 C 
BRANCH  16  17
ATOM     17  C   UNL     1      46.097   6.018  12.145  0.00  0.00    +0.000 A 
ATOM     18  C   UNL     1      45.480   4.969  12.850  0.00  0.00    +0.000 A 
ATOM     19  C   UNL     1      45.998   4.499  14.055  0.00  0.00    +0.000 A 
ATOM     20  C   UNL     1      47.158   5.063  14.588  0.00  0.00    +0.000 A 
ATOM     21  C   UNL     1      47.796   6.093  13.875  0.00  0.00    +0.000 A 
ATOM     22  C   UNL     1      47.277   6.563  12.658  0.00  0.00    +0.000 A 
BRANCH  20  23
ATOM     23  C   UNL     1      47.684   4.583  15.917  0.00  0.00    +0.000 C 
BRANCH  23  24
ATOM     24  N   UNL     1      46.744   3.699  16.594  0.00  0.00    +0.000 NA
ATOM     25  H   UNL     1      46.496   2.940  15.961  0.00  0.00    +0.000 HD
ATOM     26  H   UNL     1      45.884   4.212  16.777  0.00  0.00    +0.000 HD
ENDBRANCH  23  24
ENDBRANCH  20  23
ENDBRANCH  16  17
ENDBRANCH  14  16
ENDBRANCH   6  14
TORSDOF 7
ENDMDL
MODEL 6
REMARK VINA RESULT:    -6.667      2.619      6.200
REMARK INTER + INTRA:          -9.932
REMARK INTER:                  -8.696
REMARK INTRA:                  -1.235
REMARK UNBOUND:                -0.731
REMARK  Name = 
REMARK  8 active torsions:
REMARK  status: ('A' for Active; 'I' for Inactive)
REMARK    1  A    between atoms: C_1  and  C_2
REMARK    2  A    between atoms: C_2  and  C_3
REMARK    3  A    between atoms: C_5  and  C_6
REMARK    4  A    between atoms: C_11  and  N_12
REMARK    5  A    between atoms: N_12  and  C_13
REMARK    6  A    between atoms: C_13  and  C_14
REMARK    7  A    between atoms: C_17  and  C_18
REMARK    8  A    between atoms: C_18  and  N_19
REMARK                            x       y       z     vdW  Elec       q    Type
REMARK                         _______ _______ _______ _____ _____    ______ ____
ROOT
ATOM      1  C   UNL     1      45.232   4.059   9.087  0.00  0.00    +0.000 A 
ATOM      2  C   UNL     1      46.162   3.818   8.052  0.00  0.00    +0.000 A 
ATOM      3  C   UNL     1      46.434   2.523   7.646  0.00  0.00    +0.000 A 
ATOM      4  N   UNL     1      45.849   1.433   8.191  0.00  0.00    +0.000 NA
ATOM      5  C   UNL     1      44.938   1.690   9.165  0.00  0.00    +0.000 A 
ATOM      6  C   UNL     1      44.572   2.955   9.680  0.00  0.00    +0.000 A 
ENDROOT
BRANCH   3   7
ATOM      7  C   UNL     1      47.428   2.290   6.545  0.00  0.00    +0.000 C 
ATOM      8  N   UNL     1      47.303   3.113   5.461  0.00  0.00    +0.000 N 
ATOM      9  O   UNL     1      48.293   1.427   6.600  0.00  0.00    +0.000 OA
ATOM     10  H   UNL     1      46.582   3.826   5.459  0.00  0.00    +0.000 HD
ATOM     11  H   UNL     1      47.949   3.027   4.691  0.00  0.00    +0.000 HD
ENDBRANCH   3   7
BRANCH   1  13
ATOM     12  C   UNL     1      46.392   6.167   9.921  0.00  0.00    +0.000 C 
ATOM     13  C   UNL     1      45.093   5.520   9.459  0.00  0.00    +0.000 C 
ENDBRANCH   1  13
BRANCH   6  14
ATOM     14  N   UNL     1      43.516   2.968  10.611  0.00  0.00    +0.000 N 
ATOM     15  H   UNL     1      42.711   2.434  10.288  0.00  0.00    +0.000 HD
BRANCH  14  16
ATOM     16  C   UNL     1      43.741   2.827  12.032  0.00  0.00    +0.000 C 
BRANCH  16  17
ATOM     17  C   UNL     1      44.741   3.780  12.644  0.00  0.00    +0.000 A 
ATOM     18  C   UNL     1      46.023   3.259  12.896  0.00  0.00    +0.000 A 
ATOM     19  C   UNL     1      47.047   4.060  13.398  0.00  0.00    +0.000 A 
ATOM     20  C   UNL     1      46.819   5.412  13.655  0.00  0.00    +0.000 A 
ATOM     21  C   UNL     1      45.548   5.946  13.379  0.00  0.00    +0.000 A 
ATOM     22  C   UNL     1      44.518   5.141  12.869  0.00  0.00    +0.000 A 
BRANCH  20  23
ATOM     23  C   UNL     1      47.918   6.260  14.245  0.00  0.00    +0.000 C 
BRANCH  23  24
ATOM     24  N   UNL     1      49.052   6.398  13.341  0.00  0.00    +0.000 NA
ATOM     25  H   UNL     1      49.190   7.388  13.138  0.00  0.00    +0.000 HD
ATOM     26  H   UNL     1      48.822   5.954  12.454  0.00  0.00    +0.000 HD
ENDBRANCH  23  24
ENDBRANCH  20  23
ENDBRANCH  16  17
ENDBRANCH  14  16
ENDBRANCH   6  14
TORSDOF 7
ENDMDL
MODEL 7
REMARK VINA RESULT:    -6.325      3.321      7.286
REMARK INTER + INTRA:          -9.459
REMARK INTER:                  -8.977
REMARK INTRA:                  -0.482
REMARK UNBOUND:                -0.731
REMARK  Name = 
REMARK  8 active torsions:
REMARK  status: ('A' for Active; 'I' for Inactive)
REMARK    1  A    between atoms: C_1  and  C_2
REMARK    2  A    between atoms: C_2  and  C_3
REMARK    3  A    between atoms: C_5  and  C_6
REMARK    4  A    between atoms: C_11  and  N_12
REMARK    5  A    between atoms: N_12  and  C_13
REMARK    6  A    between atoms: C_13  and  C_14
REMARK    7  A    between atoms: C_17  and  C_18
REMARK    8  A    between atoms: C_18  and  N_19
REMARK                            x       y       z     vdW  Elec       q    Type
REMARK                         _______ _______ _______ _____ _____    ______ ____
ROOT
ATOM      1  C   UNL     1      46.389   5.996  12.898  0.00  0.00    +0.000 A 
ATOM      2  C   UNL     1      45.653   5.507  11.796  0.00  0.00    +0.000 A 
ATOM      3  C   UNL     1      45.310   4.169  11.725  0.00  0.00    +0.000 A 
ATOM      4  N   UNL     1      45.640   3.264  12.673  0.00  0.00    +0.000 NA
ATOM      5  C   UNL     1      46.323   3.760  13.736  0.00  0.00    +0.000 A 
ATOM      6  C   UNL     1      46.745   5.096  13.932  0.00  0.00    +0.000 A 
ENDROOT
BRANCH   3   7
ATOM      7  C   UNL     1      44.528   3.671  10.543  0.00  0.00    +0.000 C 
ATOM      8  N   UNL     1      44.691   2.346  10.250  0.00  0.00    +0.000 N 
ATOM      9  O   UNL     1      43.792   4.389   9.881  0.00  0.00    +0.000 OA
ATOM     10  H   UNL     1      45.298   1.780  10.832  0.00  0.00    +0.000 HD
ATOM     11  H   UNL     1      44.181   1.938   9.481  0.00  0.00    +0.000 HD
ENDBRANCH   3   7
BRANCH   1  13
ATOM     12  C   UNL     1      45.538   8.395  12.853  0.00  0.00    +0.000 C 
ATOM     13  C   UNL     1      46.742   7.464  12.798  0.00  0.00    +0.000 C 
ENDBRANCH   1  13
BRANCH   6  14
ATOM     14  N   UNL     1      47.339   5.386  15.175  0.00  0.00    +0.000 N 
ATOM     15  H   UNL     1      47.224   6.363  15.438  0.00  0.00    +0.000 HD
BRANCH  14  16
ATOM     16  C   UNL     1      47.234   4.491  16.305  0.00  0.00    +0.000 C 
BRANCH  16  17
ATOM     17  C   UNL     1      48.518   3.829  16.749  0.00  0.00    +0.000 A 
ATOM     18  C   UNL     1      48.661   2.468  16.425  0.00  0.00    +0.000 A 
ATOM     19  C   UNL     1      49.828   1.768  16.725  0.00  0.00    +0.000 A 
ATOM     20  C   UNL     1      50.893   2.414  17.354  0.00  0.00    +0.000 A 
ATOM     21  C   UNL     1      50.768   3.782  17.655  0.00  0.00    +0.000 A 
ATOM     22  C   UNL     1      49.595   4.489  17.349  0.00  0.00    +0.000 A 
BRANCH  20  23
ATOM     23  C   UNL     1      52.132   1.637  17.719  0.00  0.00    +0.000 C 
BRANCH  23  24
ATOM     24  N   UNL     1      51.826   0.271  18.124  0.00  0.00    +0.000 NA
ATOM     25  H   UNL     1      52.604  -0.087  18.677  0.00  0.00    +0.000 HD
ATOM     26  H   UNL     1      51.773  -0.314  17.293  0.00  0.00    +0.000 HD
ENDBRANCH  23  24
ENDBRANCH  20  23
ENDBRANCH  16  17
ENDBRANCH  14  16
ENDBRANCH   6  14
TORSDOF 7
ENDMDL
MODEL 8
REMARK VINA RESULT:    -5.630      3.351      6.306
REMARK INTER + INTRA:          -8.500
REMARK INTER:                  -7.605
REMARK INTRA:                  -0.895
REMARK UNBOUND:                -0.731
REMARK  Name = 
REMARK  8 active torsions:
REMARK  status: ('A' for Active; 'I' for Inactive)
REMARK    1  A    between atoms: C_1  and  C_2
REMARK    2  A    between atoms: C_2  and  C_3
REMARK    3  A    between atoms: C_5  and  C_6
REMARK    4  A    between atoms: C_11  and  N_12
REMARK    5  A    between atoms: N_12  and  C_13
REMARK    6  A    between atoms: C_13  and  C_14
REMARK    7  A    between atoms: C_17  and  C_18
REMARK    8  A    between atoms: C_18  and  N_19
REMARK                            x       y       z     vdW  Elec       q    Type
REMARK                         _______ _______ _______ _____ _____    ______ ____
ROOT
ATOM      1  C   UNL     1      46.025   5.285  13.013  0.00  0.00    +0.000 A 
ATOM      2  C   UNL     1      45.539   4.088  12.444  0.00  0.00    +0.000 A 
ATOM      3  C   UNL     1      44.354   4.085  11.730  0.00  0.00    +0.000 A 
ATOM      4  N   UNL     1      43.603   5.191  11.530  0.00  0.00    +0.000 NA
ATOM      5  C   UNL     1      44.102   6.336  12.062  0.00  0.00    +0.000 A 
ATOM      6  C   UNL     1      45.289   6.479  12.818  0.00  0.00    +0.000 A 
ENDROOT
BRANCH   3   7
ATOM      7  C   UNL     1      43.855   2.800  11.135  0.00  0.00    +0.000 C 
ATOM      8  N   UNL     1      44.562   2.341  10.059  0.00  0.00    +0.000 N 
ATOM      9  O   UNL     1      42.886   2.195  11.572  0.00  0.00    +0.000 OA
ATOM     10  H   UNL     1      45.368   2.863   9.734  0.00  0.00    +0.000 HD
ATOM     11  H   UNL     1      44.296   1.473   9.619  0.00  0.00    +0.000 HD
ENDBRANCH   3   7
BRANCH   1  13
ATOM     12  C   UNL     1      47.083   4.472  15.181  0.00  0.00    +0.000 C 
ATOM     13  C   UNL     1      47.297   5.111  13.816  0.00  0.00    +0.000 C 
ENDBRANCH   1  13
BRANCH   6  14
ATOM     14  N   UNL     1      45.654   7.795  13.162  0.00  0.00    +0.000 N 
ATOM     15  H   UNL     1      46.025   7.857  14.108  0.00  0.00    +0.000 HD
BRANCH  14  16
ATOM     16  C   UNL     1      46.343   8.668  12.238  0.00  0.00    +0.000 C 
BRANCH  16  17
ATOM     17  C   UNL     1      47.853   8.605  12.265  0.00  0.00    +0.000 A 
ATOM     18  C   UNL     1      48.494   9.433  13.203  0.00  0.00    +0.000 A 
ATOM     19  C   UNL     1      49.878   9.412  13.366  0.00  0.00    +0.000 A 
ATOM     20  C   UNL     1      50.663   8.553  12.595  0.00  0.00    +0.000 A 
ATOM     21  C   UNL     1      50.026   7.702  11.675  0.00  0.00    +0.000 A 
ATOM     22  C   UNL     1      48.632   7.718  11.515  0.00  0.00    +0.000 A 
BRANCH  20  23
ATOM     23  C   UNL     1      52.163   8.573  12.741  0.00  0.00    +0.000 C 
BRANCH  23  24
ATOM     24  N   UNL     1      52.611   7.840  13.918  0.00  0.00    +0.000 NA
ATOM     25  H   UNL     1      52.742   8.500  14.684  0.00  0.00    +0.000 HD
ATOM     26  H   UNL     1      53.527   7.440  13.726  0.00  0.00    +0.000 HD
ENDBRANCH  23  24
ENDBRANCH  20  23
ENDBRANCH  16  17
ENDBRANCH  14  16
ENDBRANCH   6  14
TORSDOF 7
ENDMDL
MODEL 9
REMARK VINA RESULT:    -5.606      3.119      6.455
REMARK INTER + INTRA:          -8.467
REMARK INTER:                  -7.363
REMARK INTRA:                  -1.104
REMARK UNBOUND:                -0.731
REMARK  Name = 
REMARK  8 active torsions:
REMARK  status: ('A' for Active; 'I' for Inactive)
REMARK    1  A    between atoms: C_1  and  C_2
REMARK    2  A    between atoms: C_2  and  C_3
REMARK    3  A    between atoms: C_5  and  C_6
REMARK    4  A    between atoms: C_11  and  N_12
REMARK    5  A    between atoms: N_12  and  C_13
REMARK    6  A    between atoms: C_13  and  C_14
REMARK    7  A    between atoms: C_17  and  C_18
REMARK    8  A    between atoms: C_18  and  N_19
REMARK                            x       y       z     vdW  Elec       q    Type
REMARK                         _______ _______ _______ _____ _____    ______ ____
ROOT
ATOM      1  C   UNL     1      45.951   6.142  12.279  0.00  0.00    +0.000 A 
ATOM      2  C   UNL     1      45.173   5.252  11.507  0.00  0.00    +0.000 A 
ATOM      3  C   UNL     1      45.076   3.919  11.866  0.00  0.00    +0.000 A 
ATOM      4  N   UNL     1      45.695   3.391  12.945  0.00  0.00    +0.000 NA
ATOM      5  C   UNL     1      46.415   4.270  13.689  0.00  0.00    +0.000 A 
ATOM      6  C   UNL     1      46.606   5.648  13.434  0.00  0.00    +0.000 A 
ENDROOT
BRANCH   3   7
ATOM      7  C   UNL     1      44.244   2.990  11.029  0.00  0.00    +0.000 C 
ATOM      8  N   UNL     1      44.906   2.376  10.003  0.00  0.00    +0.000 N 
ATOM      9  O   UNL     1      43.057   2.788  11.240  0.00  0.00    +0.000 OA
ATOM     10  H   UNL     1      45.894   2.559   9.869  0.00  0.00    +0.000 HD
ATOM     11  H   UNL     1      44.415   1.723   9.411  0.00  0.00    +0.000 HD
ENDBRANCH   3   7
BRANCH   1  13
ATOM     12  C   UNL     1      45.311   8.587  12.589  0.00  0.00    +0.000 C 
ATOM     13  C   UNL     1      46.010   7.548  11.722  0.00  0.00    +0.000 C 
ENDBRANCH   1  13
BRANCH   6  14
ATOM     14  N   UNL     1      47.303   6.373  14.419  0.00  0.00    +0.000 N 
ATOM     15  H   UNL     1      47.037   6.095  15.362  0.00  0.00    +0.000 HD
BRANCH  14  16
ATOM     16  C   UNL     1      48.714   6.667  14.305  0.00  0.00    +0.000 C 
BRANCH  16  17
ATOM     17  C   UNL     1      49.088   7.753  13.323  0.00  0.00    +0.000 A 
ATOM     18  C   UNL     1      48.795   9.072  13.712  0.00  0.00    +0.000 A 
ATOM     19  C   UNL     1      49.153  10.161  12.919  0.00  0.00    +0.000 A 
ATOM     20  C   UNL     1      49.823   9.960  11.712  0.00  0.00    +0.000 A 
ATOM     21  C   UNL     1      50.144   8.645  11.330  0.00  0.00    +0.000 A 
ATOM     22  C   UNL     1      49.789   7.549  12.130  0.00  0.00    +0.000 A 
BRANCH  20  23
ATOM     23  C   UNL     1      50.162  11.139  10.836  0.00  0.00    +0.000 C 
BRANCH  23  24
ATOM     24  N   UNL     1      51.343  10.897  10.018  0.00  0.00    +0.000 NA
ATOM     25  H   UNL     1      51.992  10.313  10.546  0.00  0.00    +0.000 HD
ATOM     26  H   UNL     1      51.820  11.782   9.859  0.00  0.00    +0.000 HD
ENDBRANCH  23  24
ENDBRANCH  20  23
ENDBRANCH  16  17
ENDBRANCH  14  16
ENDBRANCH   6  14
TORSDOF 7
ENDMDL
