MODEL 1
REMARK VINA RESULT:    -7.800      0.000      0.000
REMARK INTER + INTRA:         -12.006
REMARK INTER:                 -10.764
REMARK INTRA:                  -1.242
REMARK UNBOUND:                -1.242
REMARK  Name = 
REMARK  8 active torsions:
REMARK  status: ('A' for Active; 'I' for Inactive)
REMARK    1  A    between atoms: C_1  and  N_2
REMARK    2  A    between atoms: N_2  and  C_3
REMARK    3  A    between atoms: C_3  and  C_4
REMARK    4  A    between atoms: C_7  and  C_8
REMARK    5  A    between atoms: C_8  and  O_9
REMARK    6  A    between atoms: C_8  and  C_10
REMARK    7  A    between atoms: C_10  and  C_11
REMARK    8  A    between atoms: C_18  and  C_20
REMARK                            x       y       z     vdW  Elec       q    Type
REMARK                         _______ _______ _______ _____ _____    ______ ____
ROOT
ATOM      1  C   UNL     1      47.529   6.531  12.350  0.00  0.00    +0.000 C 
ENDROOT
BRANCH   1   2
ATOM      2  C   UNL     1      47.492   5.771  13.649  0.00  0.00    +0.000 A 
ATOM      3  C   UNL     1      48.173   6.257  14.775  0.00  0.00    +0.000 A 
ATOM      4  C   UNL     1      48.264   5.484  15.930  0.00  0.00    +0.000 A 
ATOM      5  C   UNL     1      47.678   4.211  15.983  0.00  0.00    +0.000 A 
ATOM      6  C   UNL     1      46.929   3.767  14.882  0.00  0.00    +0.000 A 
ATOM      7  C   UNL     1      46.840   4.537  13.724  0.00  0.00    +0.000 A 
BRANCH   5   8
ATOM      8  C   UNL     1      47.942   3.316  17.180  0.00  0.00    +0.000 C 
BRANCH   8   9
ATOM      9  O   UNL     1      46.702   2.836  17.711  0.00  0.00    +0.000 OA
ATOM     10  H   UNL     1      46.704   1.868  17.646  0.00  0.00    +0.000 HD
ENDBRANCH   8   9
BRANCH   8  11
ATOM     11  C   UNL     1      48.820   2.112  16.831  0.00  0.00    +0.000 C 
BRANCH  11  12
ATOM     12  C   UNL     1      50.219   2.250  17.367  0.00  0.00    +0.000 C 
ATOM     13  N   UNL     1      51.160   1.389  17.072  0.00  0.00    +0.000 NA
ATOM     14  C   UNL     1      52.367   1.928  17.768  0.00  0.00    +0.000 C 
ATOM     15  C   UNL     1      52.033   3.377  18.137  0.00  0.00    +0.000 C 
ATOM     16  N   UNL     1      50.591   3.323  18.139  0.00  0.00    +0.000 N 
ATOM     17  H   UNL     1      50.078   4.190  18.050  0.00  0.00    +0.000 HD
ENDBRANCH  11  12
ENDBRANCH   8  11
ENDBRANCH   5   8
ENDBRANCH   1   2
BRANCH   1  19
ATOM     18  C   UNL     1      46.543   8.806  12.900  0.00  0.00    +0.000 C 
ATOM     19  N   UNL     1      46.494   7.554  12.147  0.00  0.00    +0.000 N 
ATOM     20  C   UNL     1      45.286   7.317  11.460  0.00  0.00    +0.000 C 
ATOM     21  O   UNL     1      44.390   8.162  11.452  0.00  0.00    +0.000 OA
BRANCH  20  22
ATOM     22  C   UNL     1      45.067   6.040  10.761  0.00  0.00    +0.000 A 
ATOM     23  C   UNL     1      45.641   5.683   9.552  0.00  0.00    +0.000 A 
ATOM     24  S   UNL     1      45.223   4.114   9.024  0.00  0.00    +0.000 S 
ATOM     25  C   UNL     1      44.410   3.788  10.479  0.00  0.00    +0.000 A 
ATOM     26  N   UNL     1      43.905   2.552  10.733  0.00  0.00    +0.000 NA
ATOM     27  C   UNL     1      43.384   2.427  11.909  0.00  0.00    +0.000 A 
ATOM     28  N   UNL     1      43.293   3.432  12.834  0.00  0.00    +0.000 N 
ATOM     29  C   UNL     1      43.668   4.735  12.569  0.00  0.00    +0.000 A 
ATOM     30  O   UNL     1      43.359   5.643  13.330  0.00  0.00    +0.000 OA
ATOM     31  C   UNL     1      44.367   4.895  11.306  0.00  0.00    +0.000 A 
ATOM     32  H   UNL     1      42.820   3.282  13.712  0.00  0.00    +0.000 HD
ENDBRANCH  20  22
ENDBRANCH   1  19
TORSDOF 7
ENDMDL
MODEL 2
REMARK VINA RESULT:    -7.557      1.450      2.088
REMARK INTER + INTRA:         -11.671
REMARK INTER:                 -10.550
REMARK INTRA:                  -1.121
REMARK UNBOUND:                -1.242
REMARK  Name = 
REMARK  8 active torsions:
REMARK  status: ('A' for Active; 'I' for Inactive)
REMARK    1  A    between atoms: C_1  and  N_2
REMARK    2  A    between atoms: N_2  and  C_3
REMARK    3  A    between atoms: C_3  and  C_4
REMARK    4  A    between atoms: C_7  and  C_8
REMARK    5  A    between atoms: C_8  and  O_9
REMARK    6  A    between atoms: C_8  and  C_10
REMARK    7  A    between atoms: C_10  and  C_11
REMARK    8  A    between atoms: C_18  and  C_20
REMARK                            x       y       z     vdW  Elec       q    Type
REMARK                         _______ _______ _______ _____ _____    ______ ____
ROOT
ATOM      1  C   UNL     1      47.402   6.259  12.220  0.00  0.00    +0.000 C 
ENDROOT
BRANCH   1   2
ATOM      2  C   UNL     1      47.522   5.872  13.670  0.00  0.00    +0.000 A 
ATOM      3  C   UNL     1      48.306   6.638  14.546  0.00  0.00    +0.000 A 
ATOM      4  C   UNL     1      48.539   6.199  15.848  0.00  0.00    +0.000 A 
ATOM      5  C   UNL     1      47.995   4.988  16.299  0.00  0.00    +0.000 A 
ATOM      6  C   UNL     1      47.146   4.270  15.443  0.00  0.00    +0.000 A 
ATOM      7  C   UNL     1      46.914   4.705  14.139  0.00  0.00    +0.000 A 
BRANCH   5   8
ATOM      8  C   UNL     1      48.407   4.442  17.653  0.00  0.00    +0.000 C 
BRANCH   8   9
ATOM      9  O   UNL     1      47.402   4.747  18.627  0.00  0.00    +0.000 OA
ATOM     10  H   UNL     1      47.444   4.071  19.321  0.00  0.00    +0.000 HD
ENDBRANCH   8   9
BRANCH   8  11
ATOM     11  C   UNL     1      48.624   2.927  17.636  0.00  0.00    +0.000 C 
BRANCH  11  12
ATOM     12  C   UNL     1      50.078   2.555  17.728  0.00  0.00    +0.000 C 
ATOM     13  N   UNL     1      50.563   1.506  17.114  0.00  0.00    +0.000 NA
ATOM     14  C   UNL     1      52.021   1.546  17.439  0.00  0.00    +0.000 C 
ATOM     15  C   UNL     1      52.299   2.955  17.971  0.00  0.00    +0.000 C 
ATOM     16  N   UNL     1      50.979   3.338  18.407  0.00  0.00    +0.000 N 
ATOM     17  H   UNL     1      50.779   4.323  18.526  0.00  0.00    +0.000 HD
ENDBRANCH  11  12
ENDBRANCH   8  11
ENDBRANCH   5   8
ENDBRANCH   1   2
BRANCH   1  19
ATOM     18  C   UNL     1      46.550   8.646  12.047  0.00  0.00    +0.000 C 
ATOM     19  N   UNL     1      46.337   7.210  11.871  0.00  0.00    +0.000 N 
ATOM     20  C   UNL     1      45.004   6.831  11.616  0.00  0.00    +0.000 C 
ATOM     21  O   UNL     1      44.123   7.681  11.480  0.00  0.00    +0.000 OA
BRANCH  20  22
ATOM     22  C   UNL     1      44.639   5.407  11.536  0.00  0.00    +0.000 A 
ATOM     23  C   UNL     1      43.873   4.725  12.467  0.00  0.00    +0.000 A 
ATOM     24  S   UNL     1      43.589   3.090  12.066  0.00  0.00    +0.000 S 
ATOM     25  C   UNL     1      44.322   3.286  10.546  0.00  0.00    +0.000 A 
ATOM     26  N   UNL     1      44.313   2.278   9.635  0.00  0.00    +0.000 NA
ATOM     27  C   UNL     1      44.835   2.593   8.495  0.00  0.00    +0.000 A 
ATOM     28  N   UNL     1      45.394   3.809   8.202  0.00  0.00    +0.000 N 
ATOM     29  C   UNL     1      45.547   4.812   9.138  0.00  0.00    +0.000 A 
ATOM     30  O   UNL     1      46.253   5.785   8.904  0.00  0.00    +0.000 OA
ATOM     31  C   UNL     1      44.868   4.546  10.394  0.00  0.00    +0.000 A 
ATOM     32  H   UNL     1      45.838   3.969   7.310  0.00  0.00    +0.000 HD
ENDBRANCH  20  22
ENDBRANCH   1  19
TORSDOF 7
ENDMDL
MODEL 3
REMARK VINA RESULT:    -7.463      2.730      7.719
REMARK INTER + INTRA:         -11.541
REMARK INTER:                 -10.378
REMARK INTRA:                  -1.163
REMARK UNBOUND:                -1.242
REMARK  Name = 
REMARK  8 active torsions:
REMARK  status: ('A' for Active; 'I' for Inactive)
REMARK    1  A    between atoms: C_1  and  N_2
REMARK    2  A    between atoms: N_2  and  C_3
REMARK    3  A    between atoms: C_3  and  C_4
REMARK    4  A    between atoms: C_7  and  C_8
REMARK    5  A    between atoms: C_8  and  O_9
REMARK    6  A    between atoms: C_8  and  C_10
REMARK    7  A    between atoms: C_10  and  C_11
REMARK    8  A    between atoms: C_18  and  C_20
REMARK                            x       y       z     vdW  Elec       q    Type
REMARK                         _______ _______ _______ _____ _____    ______ ____
ROOT
ATOM      1  C   UNL     1      48.786   6.593  14.514  0.00  0.00    +0.000 C 
ENDROOT
BRANCH   1   2
ATOM      2  C   UNL     1      47.509   6.146  13.853  0.00  0.00    +0.000 A 
ATOM      3  C   UNL     1      46.644   7.086  13.273  0.00  0.00    +0.000 A 
ATOM      4  C   UNL     1      45.395   6.693  12.797  0.00  0.00    +0.000 A 
ATOM      5  C   UNL     1      44.986   5.354  12.892  0.00  0.00    +0.000 A 
ATOM      6  C   UNL     1      45.890   4.408  13.399  0.00  0.00    +0.000 A 
ATOM      7  C   UNL     1      47.138   4.799  13.879  0.00  0.00    +0.000 A 
BRANCH   5   8
ATOM      8  C   UNL     1      43.559   4.983  12.535  0.00  0.00    +0.000 C 
BRANCH   8   9
ATOM      9  O   UNL     1      42.645   5.744  13.331  0.00  0.00    +0.000 OA
ATOM     10  H   UNL     1      43.135   6.106  14.086  0.00  0.00    +0.000 HD
ENDBRANCH   8   9
BRANCH   8  11
ATOM     11  C   UNL     1      43.239   5.229  11.059  0.00  0.00    +0.000 C 
BRANCH  11  12
ATOM     12  C   UNL     1      43.957   4.270  10.149  0.00  0.00    +0.000 C 
ATOM     13  N   UNL     1      43.853   2.973  10.291  0.00  0.00    +0.000 NA
ATOM     14  C   UNL     1      44.678   2.425   9.172  0.00  0.00    +0.000 C 
ATOM     15  C   UNL     1      44.904   3.589   8.202  0.00  0.00    +0.000 C 
ATOM     16  N   UNL     1      44.705   4.712   9.085  0.00  0.00    +0.000 N 
ATOM     17  H   UNL     1      44.490   5.612   8.677  0.00  0.00    +0.000 HD
ENDBRANCH  11  12
ENDBRANCH   8  11
ENDBRANCH   5   8
ENDBRANCH   1   2
BRANCH   1  19
ATOM     18  C   UNL     1      48.832   8.873  15.633  0.00  0.00    +0.000 C 
ATOM     19  N   UNL     1      48.657   7.424  15.719  0.00  0.00    +0.000 N 
ATOM     20  C   UNL     1      48.631   6.903  17.028  0.00  0.00    +0.000 C 
ATOM     21  O   UNL     1      48.676   7.651  18.005  0.00  0.00    +0.000 OA
BRANCH  20  22
ATOM     22  C   UNL     1      48.577   5.448  17.247  0.00  0.00    +0.000 A 
ATOM     23  C   UNL     1      47.431   4.672  17.181  0.00  0.00    +0.000 A 
ATOM     24  S   UNL     1      47.706   3.007  17.440  0.00  0.00    +0.000 S 
ATOM     25  C   UNL     1      49.388   3.240  17.468  0.00  0.00    +0.000 A 
ATOM     26  N   UNL     1      50.236   2.180  17.542  0.00  0.00    +0.000 NA
ATOM     27  C   UNL     1      51.487   2.500  17.473  0.00  0.00    +0.000 A 
ATOM     28  N   UNL     1      51.961   3.781  17.373  0.00  0.00    +0.000 N 
ATOM     29  C   UNL     1      51.144   4.893  17.433  0.00  0.00    +0.000 A 
ATOM     30  O   UNL     1      51.618   6.012  17.574  0.00  0.00    +0.000 OA
ATOM     31  C   UNL     1      49.726   4.578  17.388  0.00  0.00    +0.000 A 
ATOM     32  H   UNL     1      52.953   3.964  17.384  0.00  0.00    +0.000 HD
ENDBRANCH  20  22
ENDBRANCH   1  19
TORSDOF 7
ENDMDL
MODEL 4
REMARK VINA RESULT:    -7.031      3.475      7.559
REMARK INTER + INTRA:         -10.946
REMARK INTER:                  -9.714
REMARK INTRA:                  -1.232
REMARK UNBOUND:                -1.242
REMARK  Name = 
REMARK  8 active torsions:
REMARK  status: ('A' for Active; 'I' for Inactive)
REMARK    1  A    between atoms: C_1  and  N_2
REMARK    2  A    between atoms: N_2  and  C_3
REMARK    3  A    between atoms: C_3  and  C_4
REMARK    4  A    between atoms: C_7  and  C_8
REMARK    5  A    between atoms: C_8  and  O_9
REMARK    6  A    between atoms: C_8  and  C_10
REMARK    7  A    between atoms: C_10  and  C_11
REMARK    8  A    between atoms: C_18  and  C_20
REMARK                            x       y       z     vdW  Elec       q    Type
REMARK                         _______ _______ _______ _____ _____    ______ ____
ROOT
ATOM      1  C   UNL     1      47.658   7.887  13.705  0.00  0.00    +0.000 C 
ENDROOT
BRANCH   1   2
ATOM      2  C   UNL     1      46.973   6.664  13.157  0.00  0.00    +0.000 A 
ATOM      3  C   UNL     1      46.092   6.770  12.070  0.00  0.00    +0.000 A 
ATOM      4  C   UNL     1      45.345   5.669  11.659  0.00  0.00    +0.000 A 
ATOM      5  C   UNL     1      45.463   4.440  12.325  0.00  0.00    +0.000 A 
ATOM      6  C   UNL     1      46.406   4.321  13.357  0.00  0.00    +0.000 A 
ATOM      7  C   UNL     1      47.152   5.422  13.773  0.00  0.00    +0.000 A 
BRANCH   5   8
ATOM      8  C   UNL     1      44.513   3.309  11.979  0.00  0.00    +0.000 C 
BRANCH   8   9
ATOM      9  O   UNL     1      43.548   3.147  13.025  0.00  0.00    +0.000 OA
ATOM     10  H   UNL     1      43.350   4.025  13.388  0.00  0.00    +0.000 HD
ENDBRANCH   8   9
BRANCH   8  11
ATOM     11  C   UNL     1      43.767   3.549  10.665  0.00  0.00    +0.000 C 
BRANCH  11  12
ATOM     12  C   UNL     1      44.554   3.090   9.468  0.00  0.00    +0.000 C 
ATOM     13  N   UNL     1      44.934   3.922   8.531  0.00  0.00    +0.000 NA
ATOM     14  C   UNL     1      45.707   3.062   7.584  0.00  0.00    +0.000 C 
ATOM     15  C   UNL     1      46.012   1.765   8.341  0.00  0.00    +0.000 C 
ATOM     16  N   UNL     1      44.967   1.787   9.335  0.00  0.00    +0.000 N 
ATOM     17  H   UNL     1      45.084   1.224  10.168  0.00  0.00    +0.000 HD
ENDBRANCH  11  12
ENDBRANCH   8  11
ENDBRANCH   5   8
ENDBRANCH   1   2
BRANCH   1  19
ATOM     18  C   UNL     1      49.850   7.483  12.486  0.00  0.00    +0.000 C 
ATOM     19  N   UNL     1      49.128   7.889  13.691  0.00  0.00    +0.000 N 
ATOM     20  C   UNL     1      49.920   8.006  14.851  0.00  0.00    +0.000 C 
ATOM     21  O   UNL     1      51.140   7.848  14.800  0.00  0.00    +0.000 OA
BRANCH  20  22
ATOM     22  C   UNL     1      49.293   8.294  16.152  0.00  0.00    +0.000 A 
ATOM     23  C   UNL     1      48.922   9.552  16.599  0.00  0.00    +0.000 A 
ATOM     24  S   UNL     1      48.178   9.550  18.135  0.00  0.00    +0.000 S 
ATOM     25  C   UNL     1      48.159   7.852  18.177  0.00  0.00    +0.000 A 
ATOM     26  N   UNL     1      47.543   7.187  19.190  0.00  0.00    +0.000 NA
ATOM     27  C   UNL     1      47.537   5.902  19.050  0.00  0.00    +0.000 A 
ATOM     28  N   UNL     1      48.122   5.227  18.012  0.00  0.00    +0.000 N 
ATOM     29  C   UNL     1      48.875   5.851  17.037  0.00  0.00    +0.000 A 
ATOM     30  O   UNL     1      49.568   5.199  16.267  0.00  0.00    +0.000 OA
ATOM     31  C   UNL     1      48.806   7.301  17.087  0.00  0.00    +0.000 A 
ATOM     32  H   UNL     1      48.132   4.218  17.996  0.00  0.00    +0.000 HD
ENDBRANCH  20  22
ENDBRANCH   1  19
TORSDOF 7
ENDMDL
MODEL 5
REMARK VINA RESULT:    -6.706      4.150      5.533
REMARK INTER + INTRA:         -10.497
REMARK INTER:                  -8.918
REMARK INTRA:                  -1.579
REMARK UNBOUND:                -1.242
REMARK  Name = 
REMARK  8 active torsions:
REMARK  status: ('A' for Active; 'I' for Inactive)
REMARK    1  A    between atoms: C_1  and  N_2
REMARK    2  A    between atoms: N_2  and  C_3
REMARK    3  A    between atoms: C_3  and  C_4
REMARK    4  A    between atoms: C_7  and  C_8
REMARK    5  A    between atoms: C_8  and  O_9
REMARK    6  A    between atoms: C_8  and  C_10
REMARK    7  A    between atoms: C_10  and  C_11
REMARK    8  A    between atoms: C_18  and  C_20
REMARK                            x       y       z     vdW  Elec       q    Type
REMARK                         _______ _______ _______ _____ _____    ______ ____
ROOT
ATOM      1  C   UNL     1      46.336   6.311  12.930  0.00  0.00    +0.000 C 
ENDROOT
BRANCH   1   2
ATOM      2  C   UNL     1      47.763   6.783  12.843  0.00  0.00    +0.000 A 
ATOM      3  C   UNL     1      48.536   6.920  14.005  0.00  0.00    +0.000 A 
ATOM      4  C   UNL     1      49.803   7.498  13.943  0.00  0.00    +0.000 A 
ATOM      5  C   UNL     1      50.321   7.948  12.720  0.00  0.00    +0.000 A 
ATOM      6  C   UNL     1      49.575   7.732  11.552  0.00  0.00    +0.000 A 
ATOM      7  C   UNL     1      48.306   7.159  11.612  0.00  0.00    +0.000 A 
BRANCH   5   8
ATOM      8  C   UNL     1      51.619   8.733  12.703  0.00  0.00    +0.000 C 
BRANCH   8   9
ATOM      9  O   UNL     1      52.656   7.972  13.333  0.00  0.00    +0.000 OA
ATOM     10  H   UNL     1      53.027   7.367  12.671  0.00  0.00    +0.000 HD
ENDBRANCH   8   9
BRANCH   8  11
ATOM     11  C   UNL     1      52.072   9.091  11.286  0.00  0.00    +0.000 C 
BRANCH  11  12
ATOM     12  C   UNL     1      53.185   8.204  10.799  0.00  0.00    +0.000 C 
ATOM     13  N   UNL     1      54.419   8.630  10.708  0.00  0.00    +0.000 NA
ATOM     14  C   UNL     1      55.175   7.432  10.235  0.00  0.00    +0.000 C 
ATOM     15  C   UNL     1      54.254   6.230  10.464  0.00  0.00    +0.000 C 
ATOM     16  N   UNL     1      52.968   6.884  10.489  0.00  0.00    +0.000 N 
ATOM     17  H   UNL     1      52.191   6.401  10.922  0.00  0.00    +0.000 HD
ENDBRANCH  11  12
ENDBRANCH   8  11
ENDBRANCH   5   8
ENDBRANCH   1   2
BRANCH   1  19
ATOM     18  C   UNL     1      45.258   8.557  12.433  0.00  0.00    +0.000 C 
ATOM     19  N   UNL     1      45.326   7.112  12.223  0.00  0.00    +0.000 N 
ATOM     20  C   UNL     1      44.227   6.556  11.539  0.00  0.00    +0.000 C 
ATOM     21  O   UNL     1      43.331   7.275  11.096  0.00  0.00    +0.000 OA
BRANCH  20  22
ATOM     22  C   UNL     1      44.120   5.097  11.366  0.00  0.00    +0.000 A 
ATOM     23  C   UNL     1      43.329   4.258  12.135  0.00  0.00    +0.000 A 
ATOM     24  S   UNL     1      43.389   2.621  11.657  0.00  0.00    +0.000 S 
ATOM     25  C   UNL     1      44.327   3.003  10.294  0.00  0.00    +0.000 A 
ATOM     26  N   UNL     1      44.639   2.051   9.375  0.00  0.00    +0.000 NA
ATOM     27  C   UNL     1      45.288   2.500   8.351  0.00  0.00    +0.000 A 
ATOM     28  N   UNL     1      45.681   3.802   8.185  0.00  0.00    +0.000 N 
ATOM     29  C   UNL     1      45.507   4.770   9.153  0.00  0.00    +0.000 A 
ATOM     30  O   UNL     1      46.073   5.852   9.067  0.00  0.00    +0.000 OA
ATOM     31  C   UNL     1      44.677   4.340  10.266  0.00  0.00    +0.000 A 
ATOM     32  H   UNL     1      46.238   4.073   7.389  0.00  0.00    +0.000 HD
ENDBRANCH  20  22
ENDBRANCH   1  19
TORSDOF 7
ENDMDL
MODEL 6
REMARK VINA RESULT:    -6.440      3.115      7.530
REMARK INTER + INTRA:         -10.130
REMARK INTER:                  -8.054
REMARK INTRA:                  -2.077
REMARK UNBOUND:                -1.242
REMARK  Name = 
REMARK  8 active torsions:
REMARK  status: ('A' for Active; 'I' for Inactive)
REMARK    1  A    between atoms: C_1  and  N_2
REMARK    2  A    between atoms: N_2  and  C_3
REMARK    3  A    between atoms: C_3  and  C_4
REMARK    4  A    between atoms: C_7  and  C_8
REMARK    5  A    between atoms: C_8  and  O_9
REMARK    6  A    between atoms: C_8  and  C_10
REMARK    7  A    between atoms: C_10  and  C_11
REMARK    8  A    between atoms: C_18  and  C_20
REMARK                            x       y       z     vdW  Elec       q    Type
REMARK                         _______ _______ _______ _____ _____    ______ ____
ROOT
ATOM      1  C   UNL     1      49.387   8.331  16.285  0.00  0.00    +0.000 C 
ENDROOT
BRANCH   1   2
ATOM      2  C   UNL     1      48.587   8.015  15.049  0.00  0.00    +0.000 A 
ATOM      3  C   UNL     1      47.828   9.014  14.421  0.00  0.00    +0.000 A 
ATOM      4  C   UNL     1      46.971   8.691  13.371  0.00  0.00    +0.000 A 
ATOM      5  C   UNL     1      46.856   7.365  12.928  0.00  0.00    +0.000 A 
ATOM      6  C   UNL     1      47.679   6.387  13.507  0.00  0.00    +0.000 A 
ATOM      7  C   UNL     1      48.534   6.707  14.561  0.00  0.00    +0.000 A 
BRANCH   5   8
ATOM      8  C   UNL     1      45.789   7.008  11.910  0.00  0.00    +0.000 C 
BRANCH   8   9
ATOM      9  O   UNL     1      46.256   5.948  11.068  0.00  0.00    +0.000 OA
ATOM     10  H   UNL     1      45.521   5.673  10.497  0.00  0.00    +0.000 HD
ENDBRANCH   8   9
BRANCH   8  11
ATOM     11  C   UNL     1      44.477   6.566  12.563  0.00  0.00    +0.000 C 
BRANCH  11  12
ATOM     12  C   UNL     1      44.150   5.127  12.274  0.00  0.00    +0.000 C 
ATOM     13  N   UNL     1      43.408   4.779  11.253  0.00  0.00    +0.000 NA
ATOM     14  C   UNL     1      43.381   3.286  11.325  0.00  0.00    +0.000 C 
ATOM     15  C   UNL     1      44.515   2.887  12.274  0.00  0.00    +0.000 C 
ATOM     16  N   UNL     1      44.668   4.106  13.031  0.00  0.00    +0.000 N 
ATOM     17  H   UNL     1      45.537   4.257  13.527  0.00  0.00    +0.000 HD
ENDBRANCH  11  12
ENDBRANCH   8  11
ENDBRANCH   5   8
ENDBRANCH   1   2
BRANCH   1  19
ATOM     18  C   UNL     1      47.874   9.201  18.131  0.00  0.00    +0.000 C 
ATOM     19  N   UNL     1      48.717   8.140  17.579  0.00  0.00    +0.000 N 
ATOM     20  C   UNL     1      49.030   7.099  18.475  0.00  0.00    +0.000 C 
ATOM     21  O   UNL     1      48.547   7.076  19.607  0.00  0.00    +0.000 OA
BRANCH  20  22
ATOM     22  C   UNL     1      49.964   6.033  18.077  0.00  0.00    +0.000 A 
ATOM     23  C   UNL     1      51.336   6.059  18.273  0.00  0.00    +0.000 A 
ATOM     24  S   UNL     1      52.138   4.650  17.739  0.00  0.00    +0.000 S 
ATOM     25  C   UNL     1      50.662   3.881  17.397  0.00  0.00    +0.000 A 
ATOM     26  N   UNL     1      50.630   2.579  17.007  0.00  0.00    +0.000 NA
ATOM     27  C   UNL     1      49.437   2.103  16.859  0.00  0.00    +0.000 A 
ATOM     28  N   UNL     1      48.283   2.820  17.031  0.00  0.00    +0.000 N 
ATOM     29  C   UNL     1      48.271   4.176  17.293  0.00  0.00    +0.000 A 
ATOM     30  O   UNL     1      47.235   4.821  17.210  0.00  0.00    +0.000 OA
ATOM     31  C   UNL     1      49.584   4.725  17.586  0.00  0.00    +0.000 A 
ATOM     32  H   UNL     1      47.385   2.402  16.841  0.00  0.00    +0.000 HD
ENDBRANCH  20  22
ENDBRANCH   1  19
TORSDOF 7
ENDMDL
MODEL 7
REMARK VINA RESULT:    -6.345      2.987      8.378
REMARK INTER + INTRA:          -9.999
REMARK INTER:                  -8.846
REMARK INTRA:                  -1.153
REMARK UNBOUND:                -1.242
REMARK  Name = 
REMARK  8 active torsions:
REMARK  status: ('A' for Active; 'I' for Inactive)
REMARK    1  A    between atoms: C_1  and  N_2
REMARK    2  A    between atoms: N_2  and  C_3
REMARK    3  A    between atoms: C_3  and  C_4
REMARK    4  A    between atoms: C_7  and  C_8
REMARK    5  A    between atoms: C_8  and  O_9
REMARK    6  A    between atoms: C_8  and  C_10
REMARK    7  A    between atoms: C_10  and  C_11
REMARK    8  A    between atoms: C_18  and  C_20
REMARK                            x       y       z     vdW  Elec       q    Type
REMARK                         _______ _______ _______ _____ _____    ______ ____
ROOT
ATOM      1  C   UNL     1      49.447   6.586  16.334  0.00  0.00    +0.000 C 
ENDROOT
BRANCH   1   2
ATOM      2  C   UNL     1      48.497   6.212  15.228  0.00  0.00    +0.000 A 
ATOM      3  C   UNL     1      48.308   7.072  14.135  0.00  0.00    +0.000 A 
ATOM      4  C   UNL     1      47.321   6.800  13.189  0.00  0.00    +0.000 A 
ATOM      5  C   UNL     1      46.505   5.667  13.317  0.00  0.00    +0.000 A 
ATOM      6  C   UNL     1      46.756   4.770  14.367  0.00  0.00    +0.000 A 
ATOM      7  C   UNL     1      47.739   5.041  15.316  0.00  0.00    +0.000 A 
BRANCH   5   8
ATOM      8  C   UNL     1      45.324   5.488  12.381  0.00  0.00    +0.000 C 
BRANCH   8   9
ATOM      9  O   UNL     1      44.203   6.236  12.864  0.00  0.00    +0.000 OA
ATOM     10  H   UNL     1      43.497   6.178  12.201  0.00  0.00    +0.000 HD
ENDBRANCH   8   9
BRANCH   8  11
ATOM     11  C   UNL     1      45.632   5.942  10.952  0.00  0.00    +0.000 C 
BRANCH  11  12
ATOM     12  C   UNL     1      45.279   4.897   9.930  0.00  0.00    +0.000 C 
ATOM     13  N   UNL     1      45.752   4.936   8.710  0.00  0.00    +0.000 NA
ATOM     14  C   UNL     1      45.189   3.708   8.070  0.00  0.00    +0.000 C 
ATOM     15  C   UNL     1      44.686   2.825   9.217  0.00  0.00    +0.000 C 
ATOM     16  N   UNL     1      44.496   3.815  10.249  0.00  0.00    +0.000 N 
ATOM     17  H   UNL     1      44.459   3.505  11.211  0.00  0.00    +0.000 HD
ENDBRANCH  11  12
ENDBRANCH   8  11
ENDBRANCH   5   8
ENDBRANCH   1   2
BRANCH   1  19
ATOM     18  C   UNL     1      47.803   7.125  18.194  0.00  0.00    +0.000 C 
ATOM     19  N   UNL     1      48.973   6.392  17.712  0.00  0.00    +0.000 N 
ATOM     20  C   UNL     1      49.722   5.738  18.711  0.00  0.00    +0.000 C 
ATOM     21  O   UNL     1      49.344   5.739  19.883  0.00  0.00    +0.000 OA
BRANCH  20  22
ATOM     22  C   UNL     1      50.986   5.064  18.371  0.00  0.00    +0.000 A 
ATOM     23  C   UNL     1      52.250   5.606  18.538  0.00  0.00    +0.000 A 
ATOM     24  S   UNL     1      53.518   4.556  18.088  0.00  0.00    +0.000 S 
ATOM     25  C   UNL     1      52.431   3.276  17.829  0.00  0.00    +0.000 A 
ATOM     26  N   UNL     1      52.883   2.029  17.531  0.00  0.00    +0.000 NA
ATOM     27  C   UNL     1      51.951   1.139  17.441  0.00  0.00    +0.000 A 
ATOM     28  N   UNL     1      50.613   1.392  17.585  0.00  0.00    +0.000 N 
ATOM     29  C   UNL     1      50.100   2.664  17.751  0.00  0.00    +0.000 A 
ATOM     30  O   UNL     1      48.900   2.875  17.643  0.00  0.00    +0.000 OA
ATOM     31  C   UNL     1      51.117   3.676  17.979  0.00  0.00    +0.000 A 
ATOM     32  H   UNL     1      49.933   0.661  17.442  0.00  0.00    +0.000 HD
ENDBRANCH  20  22
ENDBRANCH   1  19
TORSDOF 7
ENDMDL
MODEL 8
REMARK VINA RESULT:    -6.115      3.177      8.486
REMARK INTER + INTRA:          -9.682
REMARK INTER:                  -8.125
REMARK INTRA:                  -1.556
REMARK UNBOUND:                -1.242
REMARK  Name = 
REMARK  8 active torsions:
REMARK  status: ('A' for Active; 'I' for Inactive)
REMARK    1  A    between atoms: C_1  and  N_2
REMARK    2  A    between atoms: N_2  and  C_3
REMARK    3  A    between atoms: C_3  and  C_4
REMARK    4  A    between atoms: C_7  and  C_8
REMARK    5  A    between atoms: C_8  and  O_9
REMARK    6  A    between atoms: C_8  and  C_10
REMARK    7  A    between atoms: C_10  and  C_11
REMARK    8  A    between atoms: C_18  and  C_20
REMARK                            x       y       z     vdW  Elec       q    Type
REMARK                         _______ _______ _______ _____ _____    ______ ____
ROOT
ATOM      1  C   UNL     1      49.965   6.950  16.867  0.00  0.00    +0.000 C 
ENDROOT
BRANCH   1   2
ATOM      2  C   UNL     1      49.254   6.948  15.540  0.00  0.00    +0.000 A 
ATOM      3  C   UNL     1      49.409   8.021  14.650  0.00  0.00    +0.000 A 
ATOM      4  C   UNL     1      48.637   8.091  13.492  0.00  0.00    +0.000 A 
ATOM      5  C   UNL     1      47.697   7.092  13.201  0.00  0.00    +0.000 A 
ATOM      6  C   UNL     1      47.607   5.982  14.054  0.00  0.00    +0.000 A 
ATOM      7  C   UNL     1      48.375   5.911  15.215  0.00  0.00    +0.000 A 
BRANCH   5   8
ATOM      8  C   UNL     1      46.745   7.280  12.034  0.00  0.00    +0.000 C 
BRANCH   8   9
ATOM      9  O   UNL     1      46.615   6.051  11.311  0.00  0.00    +0.000 OA
ATOM     10  H   UNL     1      45.739   6.040  10.893  0.00  0.00    +0.000 HD
ENDBRANCH   8   9
BRANCH   8  11
ATOM     11  C   UNL     1      45.352   7.731  12.478  0.00  0.00    +0.000 C 
BRANCH  11  12
ATOM     12  C   UNL     1      44.328   6.636  12.354  0.00  0.00    +0.000 C 
ATOM     13  N   UNL     1      44.226   5.682  13.244  0.00  0.00    +0.000 NA
ATOM     14  C   UNL     1      43.077   4.860  12.755  0.00  0.00    +0.000 C 
ATOM     15  C   UNL     1      42.350   5.723  11.719  0.00  0.00    +0.000 C 
ATOM     16  N   UNL     1      43.409   6.623  11.334  0.00  0.00    +0.000 N 
ATOM     17  H   UNL     1      43.159   7.498  10.891  0.00  0.00    +0.000 HD
ENDBRANCH  11  12
ENDBRANCH   8  11
ENDBRANCH   5   8
ENDBRANCH   1   2
BRANCH   1  19
ATOM     18  C   UNL     1      47.976   7.164  18.433  0.00  0.00    +0.000 C 
ATOM     19  N   UNL     1      49.203   6.477  18.031  0.00  0.00    +0.000 N 
ATOM     20  C   UNL     1      49.704   5.553  18.970  0.00  0.00    +0.000 C 
ATOM     21  O   UNL     1      49.084   5.309  20.006  0.00  0.00    +0.000 OA
BRANCH  20  22
ATOM     22  C   UNL     1      50.993   4.882  18.737  0.00  0.00    +0.000 A 
ATOM     23  C   UNL     1      52.217   5.315  19.220  0.00  0.00    +0.000 A 
ATOM     24  S   UNL     1      53.523   4.295  18.812  0.00  0.00    +0.000 S 
ATOM     25  C   UNL     1      52.474   3.144  18.133  0.00  0.00    +0.000 A 
ATOM     26  N   UNL     1      52.945   1.947  17.692  0.00  0.00    +0.000 NA
ATOM     27  C   UNL     1      52.026   1.140  17.275  0.00  0.00    +0.000 A 
ATOM     28  N   UNL     1      50.690   1.437  17.228  0.00  0.00    +0.000 N 
ATOM     29  C   UNL     1      50.184   2.684  17.536  0.00  0.00    +0.000 A 
ATOM     30  O   UNL     1      49.028   2.977  17.261  0.00  0.00    +0.000 OA
ATOM     31  C   UNL     1      51.164   3.582  18.123  0.00  0.00    +0.000 A 
ATOM     32  H   UNL     1      50.031   0.782  16.834  0.00  0.00    +0.000 HD
ENDBRANCH  20  22
ENDBRANCH   1  19
TORSDOF 7
ENDMDL
MODEL 9
REMARK VINA RESULT:    -6.028      2.888      8.048
REMARK INTER + INTRA:          -9.561
REMARK INTER:                  -8.219
REMARK INTRA:                  -1.342
REMARK UNBOUND:                -1.242
REMARK  Name = 
REMARK  8 active torsions:
REMARK  status: ('A' for Active; 'I' for Inactive)
REMARK    1  A    between atoms: C_1  and  N_2
REMARK    2  A    between atoms: N_2  and  C_3
REMARK    3  A    between atoms: C_3  and  C_4
REMARK    4  A    between atoms: C_7  and  C_8
REMARK    5  A    between atoms: C_8  and  O_9
REMARK    6  A    between atoms: C_8  and  C_10
REMARK    7  A    between atoms: C_10  and  C_11
REMARK    8  A    between atoms: C_18  and  C_20
REMARK                            x       y       z     vdW  Elec       q    Type
REMARK                         _______ _______ _______ _____ _____    ______ ____
ROOT
ATOM      1  C   UNL     1      50.290   7.134  16.508  0.00  0.00    +0.000 C 
ENDROOT
BRANCH   1   2
ATOM      2  C   UNL     1      49.268   7.407  15.437  0.00  0.00    +0.000 A 
ATOM      3  C   UNL     1      48.742   8.697  15.270  0.00  0.00    +0.000 A 
ATOM      4  C   UNL     1      47.690   8.919  14.384  0.00  0.00    +0.000 A 
ATOM      5  C   UNL     1      47.143   7.858  13.648  0.00  0.00    +0.000 A 
ATOM      6  C   UNL     1      47.729   6.588  13.760  0.00  0.00    +0.000 A 
ATOM      7  C   UNL     1      48.778   6.362  14.648  0.00  0.00    +0.000 A 
BRANCH   5   8
ATOM      8  C   UNL     1      45.887   8.088  12.829  0.00  0.00    +0.000 C 
BRANCH   8   9
ATOM      9  O   UNL     1      45.888   9.418  12.299  0.00  0.00    +0.000 OA
ATOM     10  H   UNL     1      46.805   9.657  12.091  0.00  0.00    +0.000 HD
ENDBRANCH   8   9
BRANCH   8  11
ATOM     11  C   UNL     1      45.755   7.102  11.665  0.00  0.00    +0.000 C 
BRANCH  11  12
ATOM     12  C   UNL     1      44.547   6.216  11.798  0.00  0.00    +0.000 C 
ATOM     13  N   UNL     1      44.223   5.346  10.876  0.00  0.00    +0.000 NA
ATOM     14  C   UNL     1      43.011   4.672  11.432  0.00  0.00    +0.000 C 
ATOM     15  C   UNL     1      42.974   5.027  12.922  0.00  0.00    +0.000 C 
ATOM     16  N   UNL     1      43.763   6.234  12.926  0.00  0.00    +0.000 N 
ATOM     17  H   UNL     1      44.172   6.539  13.800  0.00  0.00    +0.000 HD
ENDBRANCH  11  12
ENDBRANCH   8  11
ENDBRANCH   5   8
ENDBRANCH   1   2
BRANCH   1  19
ATOM     18  C   UNL     1      50.263   8.593  18.587  0.00  0.00    +0.000 C 
ATOM     19  N   UNL     1      49.874   7.363  17.899  0.00  0.00    +0.000 N 
ATOM     20  C   UNL     1      49.336   6.359  18.728  0.00  0.00    +0.000 C 
ATOM     21  O   UNL     1      49.149   6.566  19.928  0.00  0.00    +0.000 OA
BRANCH  20  22
ATOM     22  C   UNL     1      49.014   5.032  18.176  0.00  0.00    +0.000 A 
ATOM     23  C   UNL     1      47.817   4.689  17.569  0.00  0.00    +0.000 A 
ATOM     24  S   UNL     1      47.769   3.083  16.992  0.00  0.00    +0.000 S 
ATOM     25  C   UNL     1      49.409   2.848  17.367  0.00  0.00    +0.000 A 
ATOM     26  N   UNL     1      50.045   1.700  17.016  0.00  0.00    +0.000 NA
ATOM     27  C   UNL     1      51.308   1.691  17.292  0.00  0.00    +0.000 A 
ATOM     28  N   UNL     1      51.977   2.710  17.917  0.00  0.00    +0.000 N 
ATOM     29  C   UNL     1      51.346   3.833  18.413  0.00  0.00    +0.000 A 
ATOM     30  O   UNL     1      51.932   4.602  19.163  0.00  0.00    +0.000 OA
ATOM     31  C   UNL     1      49.951   3.939  18.019  0.00  0.00    +0.000 A 
ATOM     32  H   UNL     1      52.952   2.613  18.157  0.00  0.00    +0.000 HD
ENDBRANCH  20  22
ENDBRANCH   1  19
TORSDOF 7
ENDMDL
