MODEL 1
REMARK VINA RESULT:    -9.804      0.000      0.000
REMARK INTER + INTRA:         -14.408
REMARK INTER:                 -13.243
REMARK INTRA:                  -1.165
REMARK UNBOUND:                -1.165
REMARK  Name = 
REMARK  6 active torsions:
REMARK  status: ('A' for Active; 'I' for Inactive)
REMARK    1  A    between atoms: C_2  and  C_4
REMARK    2  A    between atoms: N_8  and  C_9
REMARK    3  A    between atoms: C_9  and  C_10
REMARK    4  A    between atoms: C_10  and  C_13
REMARK    5  A    between atoms: C_17  and  O_18
REMARK    6  A    between atoms: O_18  and  C_19
REMARK                            x       y       z     vdW  Elec       q    Type
REMARK                         _______ _______ _______ _____ _____    ______ ____
ROOT
ATOM      1  C   UNL     1      43.665   4.657  12.494  0.00  0.00    +0.000 C 
ATOM      2  F   UNL     1      42.753   5.547  12.982  0.00  0.00    +0.000 F 
ATOM      3  F   UNL     1      43.489   3.515  13.221  0.00  0.00    +0.000 F 
ENDROOT
BRANCH   1   4
ATOM      4  C   UNL     1      45.088   5.181  12.569  0.00  0.00    +0.000 A 
ATOM      5  C   UNL     1      45.542   6.142  11.657  0.00  0.00    +0.000 A 
ATOM      6  C   UNL     1      46.788   6.746  11.837  0.00  0.00    +0.000 A 
ATOM      7  C   UNL     1      47.599   6.388  12.919  0.00  0.00    +0.000 A 
ATOM      8  C   UNL     1      47.177   5.403  13.811  0.00  0.00    +0.000 A 
ATOM      9  C   UNL     1      45.925   4.807  13.634  0.00  0.00    +0.000 A 
BRANCH   8  10
ATOM     10  O   UNL     1      47.861   4.989  14.925  0.00  0.00    +0.000 OA
BRANCH  10  11
ATOM     11  C   UNL     1      47.253   4.036  15.823  0.00  0.00    +0.000 C 
ATOM     12  C   UNL     1      47.224   4.403  17.320  0.00  0.00    +0.000 C 
ATOM     13  C   UNL     1      47.682   2.972  17.647  0.00  0.00    +0.000 C 
ATOM     14  F   UNL     1      48.639   2.866  18.595  0.00  0.00    +0.000 F 
ATOM     15  F   UNL     1      46.693   2.118  17.998  0.00  0.00    +0.000 F 
ATOM     16  C   UNL     1      48.167   2.844  16.195  0.00  0.00    +0.000 C 
ENDBRANCH  10  11
ENDBRANCH   8  10
ENDBRANCH   1   4
BRANCH   1  17
ATOM     17  C   UNL     1      43.347   4.365  11.008  0.00  0.00    +0.000 C 
BRANCH  17  22
ATOM     18  C   UNL     1      46.552   2.608   7.424  0.00  0.00    +0.000 A 
ATOM     19  C   UNL     1      46.124   3.895   7.723  0.00  0.00    +0.000 A 
ATOM     20  C   UNL     1      45.207   4.076   8.757  0.00  0.00    +0.000 A 
ATOM     21  C   UNL     1      44.732   2.978   9.473  0.00  0.00    +0.000 A 
ATOM     22  N   UNL     1      43.840   3.090  10.505  0.00  0.00    +0.000 N 
ATOM     23  N   UNL     1      45.127   1.727   9.172  0.00  0.00    +0.000 NA
ATOM     24  C   UNL     1      46.013   1.561   8.155  0.00  0.00    +0.000 A 
ATOM     25  H   UNL     1      43.578   2.219  10.953  0.00  0.00    +0.000 HD
BRANCH  18  27
ATOM     26  N   UNL     1      47.549   3.176   5.287  0.00  0.00    +0.000 N 
ATOM     27  C   UNL     1      47.536   2.324   6.362  0.00  0.00    +0.000 C 
ATOM     28  O   UNL     1      48.332   1.401   6.452  0.00  0.00    +0.000 OA
ATOM     29  H   UNL     1      48.299   3.042   4.623  0.00  0.00    +0.000 HD
ATOM     30  H   UNL     1      47.097   4.079   5.308  0.00  0.00    +0.000 HD
ENDBRANCH  18  27
ENDBRANCH  17  22
ENDBRANCH   1  17
TORSDOF 6
ENDMDL
MODEL 2
REMARK VINA RESULT:    -8.443      2.996      4.407
REMARK INTER + INTRA:         -12.570
REMARK INTER:                 -11.546
REMARK INTRA:                  -1.024
REMARK UNBOUND:                -1.165
REMARK  Name = 
REMARK  6 active torsions:
REMARK  status: ('A' for Active; 'I' for Inactive)
REMARK    1  A    between atoms: C_2  and  C_4
REMARK    2  A    between atoms: N_8  and  C_9
REMARK    3  A    between atoms: C_9  and  C_10
REMARK    4  A    between atoms: C_10  and  C_13
REMARK    5  A    between atoms: C_17  and  O_18
REMARK    6  A    between atoms: O_18  and  C_19
REMARK                            x       y       z     vdW  Elec       q    Type
REMARK                         _______ _______ _______ _____ _____    ______ ____
ROOT
ATOM      1  C   UNL     1      43.450   4.796  12.571  0.00  0.00    +0.000 C 
ATOM      2  F   UNL     1      42.530   5.728  12.954  0.00  0.00    +0.000 F 
ATOM      3  F   UNL     1      43.105   3.649  13.226  0.00  0.00    +0.000 F 
ENDROOT
BRANCH   1   4
ATOM      4  C   UNL     1      44.875   5.229  12.867  0.00  0.00    +0.000 A 
ATOM      5  C   UNL     1      45.734   4.401  13.600  0.00  0.00    +0.000 A 
ATOM      6  C   UNL     1      47.087   4.724  13.718  0.00  0.00    +0.000 A 
ATOM      7  C   UNL     1      47.594   5.883  13.119  0.00  0.00    +0.000 A 
ATOM      8  C   UNL     1      46.741   6.737  12.422  0.00  0.00    +0.000 A 
ATOM      9  C   UNL     1      45.389   6.406  12.297  0.00  0.00    +0.000 A 
BRANCH   8  10
ATOM     10  O   UNL     1      47.120   7.880  11.765  0.00  0.00    +0.000 OA
BRANCH  10  11
ATOM     11  C   UNL     1      48.173   8.702  12.311  0.00  0.00    +0.000 C 
ATOM     12  C   UNL     1      48.255  10.159  11.813  0.00  0.00    +0.000 C 
ATOM     13  C   UNL     1      49.777   9.987  11.663  0.00  0.00    +0.000 C 
ATOM     14  F   UNL     1      50.314  10.499  10.533  0.00  0.00    +0.000 F 
ATOM     15  F   UNL     1      50.513  10.463  12.693  0.00  0.00    +0.000 F 
ATOM     16  C   UNL     1      49.559   8.466  11.666  0.00  0.00    +0.000 C 
ENDBRANCH  10  11
ENDBRANCH   8  10
ENDBRANCH   1   4
BRANCH   1  17
ATOM     17  C   UNL     1      43.335   4.563  11.045  0.00  0.00    +0.000 C 
BRANCH  17  22
ATOM     18  C   UNL     1      46.543   2.716   7.509  0.00  0.00    +0.000 A 
ATOM     19  C   UNL     1      46.116   4.010   7.777  0.00  0.00    +0.000 A 
ATOM     20  C   UNL     1      45.198   4.218   8.805  0.00  0.00    +0.000 A 
ATOM     21  C   UNL     1      44.720   3.138   9.546  0.00  0.00    +0.000 A 
ATOM     22  N   UNL     1      43.827   3.276  10.574  0.00  0.00    +0.000 N 
ATOM     23  N   UNL     1      45.113   1.879   9.276  0.00  0.00    +0.000 NA
ATOM     24  C   UNL     1      46.001   1.688   8.264  0.00  0.00    +0.000 A 
ATOM     25  H   UNL     1      43.563   2.416  11.043  0.00  0.00    +0.000 HD
BRANCH  18  27
ATOM     26  N   UNL     1      47.500   3.191   5.332  0.00  0.00    +0.000 N 
ATOM     27  C   UNL     1      47.528   2.405   6.456  0.00  0.00    +0.000 C 
ATOM     28  O   UNL     1      48.358   1.520   6.593  0.00  0.00    +0.000 OA
ATOM     29  H   UNL     1      48.249   3.045   4.669  0.00  0.00    +0.000 HD
ATOM     30  H   UNL     1      47.014   4.076   5.303  0.00  0.00    +0.000 HD
ENDBRANCH  18  27
ENDBRANCH  17  22
ENDBRANCH   1  17
TORSDOF 6
ENDMDL
MODEL 3
REMARK VINA RESULT:    -8.311      3.019      4.111
REMARK INTER + INTRA:         -12.391
REMARK INTER:                 -11.707
REMARK INTRA:                  -0.684
REMARK UNBOUND:                -1.165
REMARK  Name = 
REMARK  6 active torsions:
REMARK  status: ('A' for Active; 'I' for Inactive)
REMARK    1  A    between atoms: C_2  and  C_4
REMARK    2  A    between atoms: N_8  and  C_9
REMARK    3  A    between atoms: C_9  and  C_10
REMARK    4  A    between atoms: C_10  and  C_13
REMARK    5  A    between atoms: C_17  and  O_18
REMARK    6  A    between atoms: O_18  and  C_19
REMARK                            x       y       z     vdW  Elec       q    Type
REMARK                         _______ _______ _______ _____ _____    ______ ____
ROOT
ATOM      1  C   UNL     1      43.682   5.082  12.292  0.00  0.00    +0.000 C 
ATOM      2  F   UNL     1      42.576   5.258  13.073  0.00  0.00    +0.000 F 
ATOM      3  F   UNL     1      44.354   4.028  12.839  0.00  0.00    +0.000 F 
ENDROOT
BRANCH   1   4
ATOM      4  C   UNL     1      44.535   6.335  12.201  0.00  0.00    +0.000 A 
ATOM      5  C   UNL     1      44.022   7.508  11.635  0.00  0.00    +0.000 A 
ATOM      6  C   UNL     1      44.746   8.699  11.713  0.00  0.00    +0.000 A 
ATOM      7  C   UNL     1      45.995   8.729  12.343  0.00  0.00    +0.000 A 
ATOM      8  C   UNL     1      46.536   7.559  12.874  0.00  0.00    +0.000 A 
ATOM      9  C   UNL     1      45.805   6.370  12.803  0.00  0.00    +0.000 A 
BRANCH   8  10
ATOM     10  O   UNL     1      47.730   7.464  13.542  0.00  0.00    +0.000 OA
BRANCH  10  11
ATOM     11  C   UNL     1      48.937   7.170  12.808  0.00  0.00    +0.000 C 
ATOM     12  C   UNL     1      50.165   8.058  13.093  0.00  0.00    +0.000 C 
ATOM     13  C   UNL     1      50.409   8.152  11.577  0.00  0.00    +0.000 C 
ATOM     14  F   UNL     1      50.731   9.380  11.111  0.00  0.00    +0.000 F 
ATOM     15  F   UNL     1      51.337   7.297  11.090  0.00  0.00    +0.000 F 
ATOM     16  C   UNL     1      48.950   7.721  11.363  0.00  0.00    +0.000 C 
ENDBRANCH  10  11
ENDBRANCH   8  10
ENDBRANCH   1   4
BRANCH   1  17
ATOM     17  C   UNL     1      43.237   4.710  10.856  0.00  0.00    +0.000 C 
BRANCH  17  22
ATOM     18  C   UNL     1      46.445   2.296   7.680  0.00  0.00    +0.000 A 
ATOM     19  C   UNL     1      45.640   1.823   8.709  0.00  0.00    +0.000 A 
ATOM     20  C   UNL     1      44.876   2.732   9.438  0.00  0.00    +0.000 A 
ATOM     21  C   UNL     1      44.926   4.092   9.136  0.00  0.00    +0.000 A 
ATOM     22  N   UNL     1      44.193   5.033   9.806  0.00  0.00    +0.000 N 
ATOM     23  N   UNL     1      45.721   4.558   8.154  0.00  0.00    +0.000 NA
ATOM     24  C   UNL     1      46.470   3.664   7.456  0.00  0.00    +0.000 A 
ATOM     25  H   UNL     1      44.308   5.988   9.485  0.00  0.00    +0.000 HD
BRANCH  18  27
ATOM     26  N   UNL     1      48.372   1.963   6.245  0.00  0.00    +0.000 N 
ATOM     27  C   UNL     1      47.270   1.405   6.842  0.00  0.00    +0.000 C 
ATOM     28  O   UNL     1      47.012   0.218   6.718  0.00  0.00    +0.000 OA
ATOM     29  H   UNL     1      48.991   1.322   5.768  0.00  0.00    +0.000 HD
ATOM     30  H   UNL     1      48.751   2.853   6.534  0.00  0.00    +0.000 HD
ENDBRANCH  18  27
ENDBRANCH  17  22
ENDBRANCH   1  17
TORSDOF 6
ENDMDL
MODEL 4
REMARK VINA RESULT:    -8.201      2.206      2.642
REMARK INTER + INTRA:         -12.242
REMARK INTER:                 -11.586
REMARK INTRA:                  -0.657
REMARK UNBOUND:                -1.165
REMARK  Name = 
REMARK  6 active torsions:
REMARK  status: ('A' for Active; 'I' for Inactive)
REMARK    1  A    between atoms: C_2  and  C_4
REMARK    2  A    between atoms: N_8  and  C_9
REMARK    3  A    between atoms: C_9  and  C_10
REMARK    4  A    between atoms: C_10  and  C_13
REMARK    5  A    between atoms: C_17  and  O_18
REMARK    6  A    between atoms: O_18  and  C_19
REMARK                            x       y       z     vdW  Elec       q    Type
REMARK                         _______ _______ _______ _____ _____    ______ ____
ROOT
ATOM      1  C   UNL     1      43.970   4.114  12.515  0.00  0.00    +0.000 C 
ATOM      2  F   UNL     1      42.935   4.723  13.162  0.00  0.00    +0.000 F 
ATOM      3  F   UNL     1      44.158   2.925  13.159  0.00  0.00    +0.000 F 
ENDROOT
BRANCH   1   4
ATOM      4  C   UNL     1      45.225   4.968  12.491  0.00  0.00    +0.000 A 
ATOM      5  C   UNL     1      45.415   5.927  11.488  0.00  0.00    +0.000 A 
ATOM      6  C   UNL     1      46.481   6.825  11.570  0.00  0.00    +0.000 A 
ATOM      7  C   UNL     1      47.376   6.766  12.644  0.00  0.00    +0.000 A 
ATOM      8  C   UNL     1      47.222   5.790  13.627  0.00  0.00    +0.000 A 
ATOM      9  C   UNL     1      46.148   4.899  13.548  0.00  0.00    +0.000 A 
BRANCH   8  10
ATOM     10  O   UNL     1      48.007   5.650  14.742  0.00  0.00    +0.000 OA
BRANCH  10  11
ATOM     11  C   UNL     1      48.739   6.787  15.247  0.00  0.00    +0.000 C 
ATOM     12  C   UNL     1      49.904   7.312  14.383  0.00  0.00    +0.000 C 
ATOM     13  C   UNL     1      50.762   7.407  15.656  0.00  0.00    +0.000 C 
ATOM     14  F   UNL     1      52.035   6.967  15.539  0.00  0.00    +0.000 F 
ATOM     15  F   UNL     1      50.828   8.638  16.214  0.00  0.00    +0.000 F 
ATOM     16  C   UNL     1      49.782   6.437  16.335  0.00  0.00    +0.000 C 
ENDBRANCH  10  11
ENDBRANCH   8  10
ENDBRANCH   1   4
BRANCH   1  17
ATOM     17  C   UNL     1      43.560   3.836  11.048  0.00  0.00    +0.000 C 
BRANCH  17  22
ATOM     18  C   UNL     1      46.662   2.502   7.201  0.00  0.00    +0.000 A 
ATOM     19  C   UNL     1      46.146   3.734   7.580  0.00  0.00    +0.000 A 
ATOM     20  C   UNL     1      45.287   3.796   8.676  0.00  0.00    +0.000 A 
ATOM     21  C   UNL     1      44.955   2.635   9.373  0.00  0.00    +0.000 A 
ATOM     22  N   UNL     1      44.127   2.629  10.462  0.00  0.00    +0.000 N 
ATOM     23  N   UNL     1      45.436   1.435   8.996  0.00  0.00    +0.000 NA
ATOM     24  C   UNL     1      46.265   1.386   7.919  0.00  0.00    +0.000 A 
ATOM     25  H   UNL     1      43.971   1.722  10.889  0.00  0.00    +0.000 HD
BRANCH  18  27
ATOM     26  N   UNL     1      47.512   3.278   5.065  0.00  0.00    +0.000 N 
ATOM     27  C   UNL     1      47.595   2.346   6.068  0.00  0.00    +0.000 C 
ATOM     28  O   UNL     1      48.432   1.456   6.043  0.00  0.00    +0.000 OA
ATOM     29  H   UNL     1      48.227   3.229   4.353  0.00  0.00    +0.000 HD
ATOM     30  H   UNL     1      47.024   4.154   5.180  0.00  0.00    +0.000 HD
ENDBRANCH  18  27
ENDBRANCH  17  22
ENDBRANCH   1  17
TORSDOF 6
ENDMDL
MODEL 5
REMARK VINA RESULT:    -8.079      3.765      7.810
REMARK INTER + INTRA:         -12.078
REMARK INTER:                 -10.995
REMARK INTRA:                  -1.083
REMARK UNBOUND:                -1.165
REMARK  Name = 
REMARK  6 active torsions:
REMARK  status: ('A' for Active; 'I' for Inactive)
REMARK    1  A    between atoms: C_2  and  C_4
REMARK    2  A    between atoms: N_8  and  C_9
REMARK    3  A    between atoms: C_9  and  C_10
REMARK    4  A    between atoms: C_10  and  C_13
REMARK    5  A    between atoms: C_17  and  O_18
REMARK    6  A    between atoms: O_18  and  C_19
REMARK                            x       y       z     vdW  Elec       q    Type
REMARK                         _______ _______ _______ _____ _____    ______ ____
ROOT
ATOM      1  C   UNL     1      45.573   7.205  12.017  0.00  0.00    +0.000 C 
ATOM      2  F   UNL     1      45.271   7.853  13.180  0.00  0.00    +0.000 F 
ATOM      3  F   UNL     1      45.292   8.091  11.019  0.00  0.00    +0.000 F 
ENDROOT
BRANCH   1   4
ATOM      4  C   UNL     1      44.817   5.897  11.866  0.00  0.00    +0.000 A 
ATOM      5  C   UNL     1      43.867   5.509  12.818  0.00  0.00    +0.000 A 
ATOM      6  C   UNL     1      43.053   4.398  12.585  0.00  0.00    +0.000 A 
ATOM      7  C   UNL     1      43.189   3.656  11.407  0.00  0.00    +0.000 A 
ATOM      8  C   UNL     1      44.159   4.007  10.470  0.00  0.00    +0.000 A 
ATOM      9  C   UNL     1      44.966   5.125  10.701  0.00  0.00    +0.000 A 
BRANCH   8  10
ATOM     10  O   UNL     1      44.369   3.384   9.266  0.00  0.00    +0.000 OA
BRANCH  10  11
ATOM     11  C   UNL     1      45.717   3.179   8.793  0.00  0.00    +0.000 C 
ATOM     12  C   UNL     1      46.037   3.653   7.361  0.00  0.00    +0.000 C 
ATOM     13  C   UNL     1      46.775   2.324   7.121  0.00  0.00    +0.000 C 
ATOM     14  F   UNL     1      46.541   1.731   5.929  0.00  0.00    +0.000 F 
ATOM     15  F   UNL     1      48.118   2.378   7.271  0.00  0.00    +0.000 F 
ATOM     16  C   UNL     1      46.010   1.737   8.318  0.00  0.00    +0.000 C 
ENDBRANCH  10  11
ENDBRANCH   8  10
ENDBRANCH   1   4
BRANCH   1  17
ATOM     17  C   UNL     1      47.087   6.880  11.994  0.00  0.00    +0.000 C 
BRANCH  17  22
ATOM     18  C   UNL     1      47.885   4.179  16.269  0.00  0.00    +0.000 A 
ATOM     19  C   UNL     1      47.114   3.914  15.145  0.00  0.00    +0.000 A 
ATOM     20  C   UNL     1      47.062   4.863  14.126  0.00  0.00    +0.000 A 
ATOM     21  C   UNL     1      47.773   6.056  14.241  0.00  0.00    +0.000 A 
ATOM     22  N   UNL     1      47.773   7.022  13.271  0.00  0.00    +0.000 N 
ATOM     23  N   UNL     1      48.505   6.327  15.338  0.00  0.00    +0.000 NA
ATOM     24  C   UNL     1      48.540   5.399  16.331  0.00  0.00    +0.000 A 
ATOM     25  H   UNL     1      48.338   7.840  13.469  0.00  0.00    +0.000 HD
BRANCH  18  27
ATOM     26  N   UNL     1      46.865   2.620  17.822  0.00  0.00    +0.000 N 
ATOM     27  C   UNL     1      48.017   3.225  17.387  0.00  0.00    +0.000 C 
ATOM     28  O   UNL     1      49.103   2.951  17.874  0.00  0.00    +0.000 OA
ATOM     29  H   UNL     1      46.981   1.887  18.508  0.00  0.00    +0.000 HD
ATOM     30  H   UNL     1      46.013   2.625  17.280  0.00  0.00    +0.000 HD
ENDBRANCH  18  27
ENDBRANCH  17  22
ENDBRANCH   1  17
TORSDOF 6
ENDMDL
MODEL 6
REMARK VINA RESULT:    -7.926      2.111      2.598
REMARK INTER + INTRA:         -11.870
REMARK INTER:                 -10.981
REMARK INTRA:                  -0.889
REMARK UNBOUND:                -1.165
REMARK  Name = 
REMARK  6 active torsions:
REMARK  status: ('A' for Active; 'I' for Inactive)
REMARK    1  A    between atoms: C_2  and  C_4
REMARK    2  A    between atoms: N_8  and  C_9
REMARK    3  A    between atoms: C_9  and  C_10
REMARK    4  A    between atoms: C_10  and  C_13
REMARK    5  A    between atoms: C_17  and  O_18
REMARK    6  A    between atoms: O_18  and  C_19
REMARK                            x       y       z     vdW  Elec       q    Type
REMARK                         _______ _______ _______ _____ _____    ______ ____
ROOT
ATOM      1  C   UNL     1      44.175   5.297  12.388  0.00  0.00    +0.000 C 
ATOM      2  F   UNL     1      43.160   5.439  13.289  0.00  0.00    +0.000 F 
ATOM      3  F   UNL     1      44.762   4.100  12.681  0.00  0.00    +0.000 F 
ENDROOT
BRANCH   1   4
ATOM      4  C   UNL     1      45.158   6.454  12.432  0.00  0.00    +0.000 A 
ATOM      5  C   UNL     1      44.740   7.755  12.127  0.00  0.00    +0.000 A 
ATOM      6  C   UNL     1      45.601   8.835  12.337  0.00  0.00    +0.000 A 
ATOM      7  C   UNL     1      46.889   8.626  12.840  0.00  0.00    +0.000 A 
ATOM      8  C   UNL     1      47.331   7.332  13.109  0.00  0.00    +0.000 A 
ATOM      9  C   UNL     1      46.465   6.254  12.907  0.00  0.00    +0.000 A 
BRANCH   8  10
ATOM     10  O   UNL     1      48.554   6.999  13.634  0.00  0.00    +0.000 OA
BRANCH  10  11
ATOM     11  C   UNL     1      48.804   7.198  15.041  0.00  0.00    +0.000 C 
ATOM     12  C   UNL     1      50.250   6.986  15.533  0.00  0.00    +0.000 C 
ATOM     13  C   UNL     1      49.693   6.189  16.726  0.00  0.00    +0.000 C 
ATOM     14  F   UNL     1      50.358   5.052  17.031  0.00  0.00    +0.000 F 
ATOM     15  F   UNL     1      49.570   6.888  17.877  0.00  0.00    +0.000 F 
ATOM     16  C   UNL     1      48.389   6.005  15.934  0.00  0.00    +0.000 C 
ENDBRANCH  10  11
ENDBRANCH   8  10
ENDBRANCH   1   4
BRANCH   1  17
ATOM     17  C   UNL     1      43.583   5.235  10.959  0.00  0.00    +0.000 C 
BRANCH  17  22
ATOM     18  C   UNL     1      46.398   2.203   7.944  0.00  0.00    +0.000 A 
ATOM     19  C   UNL     1      45.559   1.914   9.012  0.00  0.00    +0.000 A 
ATOM     20  C   UNL     1      44.930   2.964   9.678  0.00  0.00    +0.000 A 
ATOM     21  C   UNL     1      45.147   4.281   9.274  0.00  0.00    +0.000 A 
ATOM     22  N   UNL     1      44.552   5.355   9.879  0.00  0.00    +0.000 N 
ATOM     23  N   UNL     1      45.977   4.568   8.254  0.00  0.00    +0.000 NA
ATOM     24  C   UNL     1      46.593   3.536   7.618  0.00  0.00    +0.000 A 
ATOM     25  H   UNL     1      44.782   6.261   9.486  0.00  0.00    +0.000 HD
BRANCH  18  27
ATOM     26  N   UNL     1      46.785  -0.147   7.481  0.00  0.00    +0.000 N 
ATOM     27  C   UNL     1      47.087   1.155   7.168  0.00  0.00    +0.000 C 
ATOM     28  O   UNL     1      47.858   1.428   6.260  0.00  0.00    +0.000 OA
ATOM     29  H   UNL     1      47.174  -0.852   6.870  0.00  0.00    +0.000 HD
ATOM     30  H   UNL     1      45.976  -0.396   8.030  0.00  0.00    +0.000 HD
ENDBRANCH  18  27
ENDBRANCH  17  22
ENDBRANCH   1  17
TORSDOF 6
ENDMDL
MODEL 7
REMARK VINA RESULT:    -7.691      4.298      8.286
REMARK INTER + INTRA:         -11.553
REMARK INTER:                 -10.979
REMARK INTRA:                  -0.574
REMARK UNBOUND:                -1.165
REMARK  Name = 
REMARK  6 active torsions:
REMARK  status: ('A' for Active; 'I' for Inactive)
REMARK    1  A    between atoms: C_2  and  C_4
REMARK    2  A    between atoms: N_8  and  C_9
REMARK    3  A    between atoms: C_9  and  C_10
REMARK    4  A    between atoms: C_10  and  C_13
REMARK    5  A    between atoms: C_17  and  O_18
REMARK    6  A    between atoms: O_18  and  C_19
REMARK                            x       y       z     vdW  Elec       q    Type
REMARK                         _______ _______ _______ _____ _____    ______ ____
ROOT
ATOM      1  C   UNL     1      46.724   4.423  13.592  0.00  0.00    +0.000 C 
ATOM      2  F   UNL     1      47.534   5.417  13.124  0.00  0.00    +0.000 F 
ATOM      3  F   UNL     1      47.429   3.266  13.427  0.00  0.00    +0.000 F 
ENDROOT
BRANCH   1   4
ATOM      4  C   UNL     1      45.378   4.390  12.890  0.00  0.00    +0.000 A 
ATOM      5  C   UNL     1      44.459   5.434  13.061  0.00  0.00    +0.000 A 
ATOM      6  C   UNL     1      43.302   5.484  12.281  0.00  0.00    +0.000 A 
ATOM      7  C   UNL     1      43.043   4.487  11.333  0.00  0.00    +0.000 A 
ATOM      8  C   UNL     1      43.929   3.421  11.183  0.00  0.00    +0.000 A 
ATOM      9  C   UNL     1      45.091   3.379  11.958  0.00  0.00    +0.000 A 
BRANCH   8  10
ATOM     10  O   UNL     1      43.805   2.404  10.271  0.00  0.00    +0.000 OA
BRANCH  10  11
ATOM     11  C   UNL     1      44.328   2.576   8.936  0.00  0.00    +0.000 C 
ATOM     12  C   UNL     1      45.856   2.467   8.762  0.00  0.00    +0.000 C 
ATOM     13  C   UNL     1      45.812   3.721   7.872  0.00  0.00    +0.000 C 
ATOM     14  F   UNL     1      46.787   4.630   8.094  0.00  0.00    +0.000 F 
ATOM     15  F   UNL     1      45.800   3.481   6.541  0.00  0.00    +0.000 F 
ATOM     16  C   UNL     1      44.442   4.051   8.486  0.00  0.00    +0.000 C 
ENDBRANCH  10  11
ENDBRANCH   8  10
ENDBRANCH   1   4
BRANCH   1  17
ATOM     17  C   UNL     1      46.463   4.647  15.101  0.00  0.00    +0.000 C 
BRANCH  17  22
ATOM     18  C   UNL     1      50.584   2.686  17.421  0.00  0.00    +0.000 A 
ATOM     19  C   UNL     1      49.511   2.077  16.782  0.00  0.00    +0.000 A 
ATOM     20  C   UNL     1      48.499   2.877  16.256  0.00  0.00    +0.000 A 
ATOM     21  C   UNL     1      48.568   4.264  16.374  0.00  0.00    +0.000 A 
ATOM     22  N   UNL     1      47.613   5.105  15.869  0.00  0.00    +0.000 N 
ATOM     23  N   UNL     1      49.595   4.858  17.011  0.00  0.00    +0.000 NA
ATOM     24  C   UNL     1      50.571   4.067  17.530  0.00  0.00    +0.000 A 
ATOM     25  H   UNL     1      47.783   6.095  16.010  0.00  0.00    +0.000 HD
BRANCH  18  27
ATOM     26  N   UNL     1      51.600   0.553  17.970  0.00  0.00    +0.000 N 
ATOM     27  C   UNL     1      51.711   1.920  17.988  0.00  0.00    +0.000 C 
ATOM     28  O   UNL     1      52.714   2.473  18.414  0.00  0.00    +0.000 OA
ATOM     29  H   UNL     1      52.422   0.038  18.255  0.00  0.00    +0.000 HD
ATOM     30  H   UNL     1      50.920   0.073  17.399  0.00  0.00    +0.000 HD
ENDBRANCH  18  27
ENDBRANCH  17  22
ENDBRANCH   1  17
TORSDOF 6
ENDMDL
MODEL 8
REMARK VINA RESULT:    -7.244      4.277      8.398
REMARK INTER + INTRA:         -10.950
REMARK INTER:                  -9.934
REMARK INTRA:                  -1.016
REMARK UNBOUND:                -1.165
REMARK  Name = 
REMARK  6 active torsions:
REMARK  status: ('A' for Active; 'I' for Inactive)
REMARK    1  A    between atoms: C_2  and  C_4
REMARK    2  A    between atoms: N_8  and  C_9
REMARK    3  A    between atoms: C_9  and  C_10
REMARK    4  A    between atoms: C_10  and  C_13
REMARK    5  A    between atoms: C_17  and  O_18
REMARK    6  A    between atoms: O_18  and  C_19
REMARK                            x       y       z     vdW  Elec       q    Type
REMARK                         _______ _______ _______ _____ _____    ______ ____
ROOT
ATOM      1  C   UNL     1      45.473   6.913  11.992  0.00  0.00    +0.000 C 
ATOM      2  F   UNL     1      45.122   7.533  13.156  0.00  0.00    +0.000 F 
ATOM      3  F   UNL     1      45.060   7.747  10.993  0.00  0.00    +0.000 F 
ENDROOT
BRANCH   1   4
ATOM      4  C   UNL     1      44.878   5.521  11.872  0.00  0.00    +0.000 A 
ATOM      5  C   UNL     1      44.052   5.010  12.881  0.00  0.00    +0.000 A 
ATOM      6  C   UNL     1      43.371   3.807  12.687  0.00  0.00    +0.000 A 
ATOM      7  C   UNL     1      43.516   3.096  11.491  0.00  0.00    +0.000 A 
ATOM      8  C   UNL     1      44.367   3.573  10.495  0.00  0.00    +0.000 A 
ATOM      9  C   UNL     1      45.041   4.783  10.688  0.00  0.00    +0.000 A 
BRANCH   8  10
ATOM     10  O   UNL     1      44.569   2.989   9.271  0.00  0.00    +0.000 OA
BRANCH  10  11
ATOM     11  C   UNL     1      45.898   2.947   8.710  0.00  0.00    +0.000 C 
ATOM     12  C   UNL     1      46.097   3.603   7.328  0.00  0.00    +0.000 C 
ATOM     13  C   UNL     1      46.915   2.373   6.899  0.00  0.00    +0.000 C 
ATOM     14  F   UNL     1      46.656   1.902   5.659  0.00  0.00    +0.000 F 
ATOM     15  F   UNL     1      48.258   2.516   6.986  0.00  0.00    +0.000 F 
ATOM     16  C   UNL     1      46.267   1.595   8.055  0.00  0.00    +0.000 C 
ENDBRANCH  10  11
ENDBRANCH   8  10
ENDBRANCH   1   4
BRANCH   1  17
ATOM     17  C   UNL     1      47.013   6.775  11.933  0.00  0.00    +0.000 C 
BRANCH  17  22
ATOM     18  C   UNL     1      49.116   7.679  16.512  0.00  0.00    +0.000 A 
ATOM     19  C   UNL     1      48.653   8.541  15.527  0.00  0.00    +0.000 A 
ATOM     20  C   UNL     1      48.145   8.003  14.345  0.00  0.00    +0.000 A 
ATOM     21  C   UNL     1      48.109   6.622  14.163  0.00  0.00    +0.000 A 
ATOM     22  N   UNL     1      47.614   6.031  13.032  0.00  0.00    +0.000 N 
ATOM     23  N   UNL     1      48.577   5.782  15.105  0.00  0.00    +0.000 NA
ATOM     24  C   UNL     1      49.080   6.318  16.249  0.00  0.00    +0.000 A 
ATOM     25  H   UNL     1      47.633   5.017  13.024  0.00  0.00    +0.000 HD
BRANCH  18  27
ATOM     26  N   UNL     1      50.727   7.481  18.315  0.00  0.00    +0.000 N 
ATOM     27  C   UNL     1      49.650   8.158  17.801  0.00  0.00    +0.000 C 
ATOM     28  O   UNL     1      49.184   9.135  18.367  0.00  0.00    +0.000 OA
ATOM     29  H   UNL     1      51.154   7.885  19.137  0.00  0.00    +0.000 HD
ATOM     30  H   UNL     1      51.286   6.852  17.757  0.00  0.00    +0.000 HD
ENDBRANCH  18  27
ENDBRANCH  17  22
ENDBRANCH   1  17
TORSDOF 6
ENDMDL
MODEL 9
REMARK VINA RESULT:    -6.936      3.355      4.811
REMARK INTER + INTRA:         -10.534
REMARK INTER:                  -9.410
REMARK INTRA:                  -1.124
REMARK UNBOUND:                -1.165
REMARK  Name = 
REMARK  6 active torsions:
REMARK  status: ('A' for Active; 'I' for Inactive)
REMARK    1  A    between atoms: C_2  and  C_4
REMARK    2  A    between atoms: N_8  and  C_9
REMARK    3  A    between atoms: C_9  and  C_10
REMARK    4  A    between atoms: C_10  and  C_13
REMARK    5  A    between atoms: C_17  and  O_18
REMARK    6  A    between atoms: O_18  and  C_19
REMARK                            x       y       z     vdW  Elec       q    Type
REMARK                         _______ _______ _______ _____ _____    ______ ____
ROOT
ATOM      1  C   UNL     1      48.536   8.185  12.758  0.00  0.00    +0.000 C 
ATOM      2  F   UNL     1      48.930   7.001  12.205  0.00  0.00    +0.000 F 
ATOM      3  F   UNL     1      49.242   9.150  12.099  0.00  0.00    +0.000 F 
ENDROOT
BRANCH   1   4
ATOM      4  C   UNL     1      48.753   8.227  14.260  0.00  0.00    +0.000 A 
ATOM      5  C   UNL     1      48.325   9.329  15.011  0.00  0.00    +0.000 A 
ATOM      6  C   UNL     1      48.368   9.286  16.406  0.00  0.00    +0.000 A 
ATOM      7  C   UNL     1      48.851   8.150  17.065  0.00  0.00    +0.000 A 
ATOM      8  C   UNL     1      49.319   7.063  16.328  0.00  0.00    +0.000 A 
ATOM      9  C   UNL     1      49.265   7.105  14.932  0.00  0.00    +0.000 A 
BRANCH   8  10
ATOM     10  O   UNL     1      49.783   5.885  16.853  0.00  0.00    +0.000 OA
BRANCH  10  11
ATOM     11  C   UNL     1      48.847   4.916  17.370  0.00  0.00    +0.000 C 
ATOM     12  C   UNL     1      49.391   3.504  17.669  0.00  0.00    +0.000 C 
ATOM     13  C   UNL     1      48.148   2.914  16.980  0.00  0.00    +0.000 C 
ATOM     14  F   UNL     1      48.378   1.870  16.154  0.00  0.00    +0.000 F 
ATOM     15  F   UNL     1      47.153   2.537  17.815  0.00  0.00    +0.000 F 
ATOM     16  C   UNL     1      47.941   4.273  16.293  0.00  0.00    +0.000 C 
ENDBRANCH  10  11
ENDBRANCH   8  10
ENDBRANCH   1   4
BRANCH   1  17
ATOM     17  C   UNL     1      47.025   8.393  12.492  0.00  0.00    +0.000 C 
BRANCH  17  22
ATOM     18  C   UNL     1      44.505   4.061  11.451  0.00  0.00    +0.000 A 
ATOM     19  C   UNL     1      45.264   4.900  10.644  0.00  0.00    +0.000 A 
ATOM     20  C   UNL     1      45.820   6.049  11.203  0.00  0.00    +0.000 A 
ATOM     21  C   UNL     1      45.613   6.344  12.550  0.00  0.00    +0.000 A 
ATOM     22  N   UNL     1      46.141   7.449  13.161  0.00  0.00    +0.000 N 
ATOM     23  N   UNL     1      44.861   5.546  13.330  0.00  0.00    +0.000 NA
ATOM     24  C   UNL     1      44.313   4.434  12.772  0.00  0.00    +0.000 A 
ATOM     25  H   UNL     1      45.927   7.548  14.148  0.00  0.00    +0.000 HD
BRANCH  18  27
ATOM     26  N   UNL     1      44.523   2.200   9.895  0.00  0.00    +0.000 N 
ATOM     27  C   UNL     1      43.896   2.814  10.950  0.00  0.00    +0.000 C 
ATOM     28  O   UNL     1      42.906   2.326  11.474  0.00  0.00    +0.000 OA
ATOM     29  H   UNL     1      44.165   1.291   9.635  0.00  0.00    +0.000 HD
ATOM     30  H   UNL     1      45.466   2.430   9.619  0.00  0.00    +0.000 HD
ENDBRANCH  18  27
ENDBRANCH  17  22
ENDBRANCH   1  17
TORSDOF 6
ENDMDL
