MODEL 1
REMARK VINA RESULT:    -8.985      0.000      0.000
REMARK INTER + INTRA:         -13.639
REMARK INTER:                 -12.662
REMARK INTRA:                  -0.976
REMARK UNBOUND:                -0.976
REMARK  Name = 
REMARK  7 active torsions:
REMARK  status: ('A' for Active; 'I' for Inactive)
REMARK    1  A    between atoms: C_2  and  C_20
REMARK    2  A    between atoms: N_3  and  C_4
REMARK    3  A    between atoms: C_4  and  C_5
REMARK    4  A    between atoms: C_8  and  C_9
REMARK    5  A    between atoms: C_9  and  N_10
REMARK    6  A    between atoms: N_10  and  C_11
REMARK    7  A    between atoms: C_11  and  C_12
REMARK                            x       y       z     vdW  Elec       q    Type
REMARK                         _______ _______ _______ _____ _____    ______ ____
ROOT
ATOM      1  C   UNL     1      45.942   4.455  14.614  0.00  0.00    +0.000 C 
ENDROOT
BRANCH   1   2
ATOM      2  C   UNL     1      46.041   5.026  13.192  0.00  0.00    +0.000 C 
ATOM      3  C   UNL     1      46.078   3.903  12.140  0.00  0.00    +0.000 C 
ATOM      4  C   UNL     1      44.743   3.169  12.058  0.00  0.00    +0.000 C 
ATOM      5  C   UNL     1      43.589   4.136  11.746  0.00  0.00    +0.000 C 
ATOM      6  C   UNL     1      43.533   5.267  12.775  0.00  0.00    +0.000 C 
ATOM      7  C   UNL     1      44.871   5.987  12.925  0.00  0.00    +0.000 C 
BRANCH   5   8
ATOM      8  C   UNL     1      43.649   4.702  10.310  0.00  0.00    +0.000 C 
BRANCH   8   9
ATOM      9  N   UNL     1      44.071   3.721   9.314  0.00  0.00    +0.000 NA
ATOM     10  H   UNL     1      43.281   3.463   8.723  0.00  0.00    +0.000 HD
BRANCH   9  11
ATOM     11  C   UNL     1      45.149   4.239   8.473  0.00  0.00    +0.000 C 
BRANCH  11  12
ATOM     12  C   UNL     1      45.926   3.123   7.841  0.00  0.00    +0.000 A 
ATOM     13  C   UNL     1      45.974   1.850   8.412  0.00  0.00    +0.000 A 
ATOM     14  C   UNL     1      46.707   0.866   7.765  0.00  0.00    +0.000 A 
ATOM     15  N   UNL     1      47.383   1.065   6.616  0.00  0.00    +0.000 NA
ATOM     16  C   UNL     1      47.327   2.307   6.088  0.00  0.00    +0.000 A 
ATOM     17  C   UNL     1      46.618   3.353   6.650  0.00  0.00    +0.000 A 
ENDBRANCH  11  12
ENDBRANCH   9  11
ENDBRANCH   8   9
ENDBRANCH   5   8
ENDBRANCH   1   2
BRANCH   1  20
ATOM     18  O   UNL     1      46.497   3.339  17.104  0.00  0.00    +0.000 OA
ATOM     19  C   UNL     1      47.350   4.058  16.568  0.00  0.00    +0.000 C 
ATOM     20  N   UNL     1      47.142   4.671  15.367  0.00  0.00    +0.000 N 
ATOM     21  H   UNL     1      47.946   4.980  14.832  0.00  0.00    +0.000 HD
BRANCH  19  22
ATOM     22  C   UNL     1      48.632   4.311  17.205  0.00  0.00    +0.000 A 
ATOM     23  C   UNL     1      48.892   5.504  17.868  0.00  0.00    +0.000 A 
ATOM     24  S   UNL     1      50.459   5.559  18.541  0.00  0.00    +0.000 S 
ATOM     25  C   UNL     1      50.818   3.993  17.983  0.00  0.00    +0.000 A 
ATOM     26  N   UNL     1      52.016   3.405  18.233  0.00  0.00    +0.000 NA
ATOM     27  C   UNL     1      52.129   2.203  17.770  0.00  0.00    +0.000 A 
ATOM     28  N   UNL     1      51.155   1.531  17.080  0.00  0.00    +0.000 N 
ATOM     29  C   UNL     1      49.958   2.103  16.754  0.00  0.00    +0.000 A 
ATOM     30  O   UNL     1      49.169   1.505  16.033  0.00  0.00    +0.000 OA
ATOM     31  C   UNL     1      49.765   3.439  17.277  0.00  0.00    +0.000 A 
ATOM     32  H   UNL     1      51.315   0.607  16.712  0.00  0.00    +0.000 HD
ENDBRANCH  19  22
ENDBRANCH   1  20
TORSDOF 7
ENDMDL
MODEL 2
REMARK VINA RESULT:    -8.463      1.967      2.692
REMARK INTER + INTRA:         -12.903
REMARK INTER:                 -11.637
REMARK INTRA:                  -1.265
REMARK UNBOUND:                -0.976
REMARK  Name = 
REMARK  7 active torsions:
REMARK  status: ('A' for Active; 'I' for Inactive)
REMARK    1  A    between atoms: C_2  and  C_20
REMARK    2  A    between atoms: N_3  and  C_4
REMARK    3  A    between atoms: C_4  and  C_5
REMARK    4  A    between atoms: C_8  and  C_9
REMARK    5  A    between atoms: C_9  and  N_10
REMARK    6  A    between atoms: N_10  and  C_11
REMARK    7  A    between atoms: C_11  and  C_12
REMARK                            x       y       z     vdW  Elec       q    Type
REMARK                         _______ _______ _______ _____ _____    ______ ____
ROOT
ATOM      1  C   UNL     1      46.660   7.475  12.870  0.00  0.00    +0.000 C 
ENDROOT
BRANCH   1   2
ATOM      2  C   UNL     1      45.212   7.045  12.591  0.00  0.00    +0.000 C 
ATOM      3  C   UNL     1      44.913   7.036  11.081  0.00  0.00    +0.000 C 
ATOM      4  C   UNL     1      45.680   5.928  10.366  0.00  0.00    +0.000 C 
ATOM      5  C   UNL     1      45.365   4.548  10.967  0.00  0.00    +0.000 C 
ATOM      6  C   UNL     1      45.649   4.531  12.470  0.00  0.00    +0.000 C 
ATOM      7  C   UNL     1      44.942   5.664  13.211  0.00  0.00    +0.000 C 
BRANCH   5   8
ATOM      8  C   UNL     1      43.923   4.079  10.675  0.00  0.00    +0.000 C 
BRANCH   8   9
ATOM      9  N   UNL     1      43.795   3.329   9.428  0.00  0.00    +0.000 NA
ATOM     10  H   UNL     1      44.014   3.932   8.636  0.00  0.00    +0.000 HD
BRANCH   9  11
ATOM     11  C   UNL     1      44.682   2.168   9.406  0.00  0.00    +0.000 C 
BRANCH  11  12
ATOM     12  C   UNL     1      45.663   2.258   8.276  0.00  0.00    +0.000 A 
ATOM     13  C   UNL     1      45.793   3.418   7.510  0.00  0.00    +0.000 A 
ATOM     14  C   UNL     1      46.728   3.429   6.486  0.00  0.00    +0.000 A 
ATOM     15  N   UNL     1      47.520   2.382   6.179  0.00  0.00    +0.000 NA
ATOM     16  C   UNL     1      47.371   1.270   6.931  0.00  0.00    +0.000 A 
ATOM     17  C   UNL     1      46.475   1.161   7.978  0.00  0.00    +0.000 A 
ENDBRANCH  11  12
ENDBRANCH   9  11
ENDBRANCH   8   9
ENDBRANCH   5   8
ENDBRANCH   1   2
BRANCH   1  20
ATOM     18  O   UNL     1      49.052   6.210  13.523  0.00  0.00    +0.000 OA
ATOM     19  C   UNL     1      48.284   6.542  14.435  0.00  0.00    +0.000 C 
ATOM     20  N   UNL     1      47.079   7.133  14.198  0.00  0.00    +0.000 N 
ATOM     21  H   UNL     1      46.637   7.657  14.945  0.00  0.00    +0.000 HD
BRANCH  19  22
ATOM     22  C   UNL     1      48.618   6.300  15.829  0.00  0.00    +0.000 A 
ATOM     23  C   UNL     1      49.219   7.277  16.612  0.00  0.00    +0.000 A 
ATOM     24  S   UNL     1      49.501   6.760  18.214  0.00  0.00    +0.000 S 
ATOM     25  C   UNL     1      48.813   5.235  17.906  0.00  0.00    +0.000 A 
ATOM     26  N   UNL     1      48.716   4.288  18.874  0.00  0.00    +0.000 NA
ATOM     27  C   UNL     1      48.143   3.192  18.495  0.00  0.00    +0.000 A 
ATOM     28  N   UNL     1      47.656   2.953  17.237  0.00  0.00    +0.000 N 
ATOM     29  C   UNL     1      47.784   3.852  16.217  0.00  0.00    +0.000 A 
ATOM     30  O   UNL     1      47.439   3.545  15.083  0.00  0.00    +0.000 OA
ATOM     31  C   UNL     1      48.389   5.112  16.594  0.00  0.00    +0.000 A 
ATOM     32  H   UNL     1      47.251   2.064  16.991  0.00  0.00    +0.000 HD
ENDBRANCH  19  22
ENDBRANCH   1  20
TORSDOF 7
ENDMDL
MODEL 3
REMARK VINA RESULT:    -7.720      1.728      2.694
REMARK INTER + INTRA:         -11.855
REMARK INTER:                 -10.927
REMARK INTRA:                  -0.928
REMARK UNBOUND:                -0.976
REMARK  Name = 
REMARK  7 active torsions:
REMARK  status: ('A' for Active; 'I' for Inactive)
REMARK    1  A    between atoms: C_2  and  C_20
REMARK    2  A    between atoms: N_3  and  C_4
REMARK    3  A    between atoms: C_4  and  C_5
REMARK    4  A    between atoms: C_8  and  C_9
REMARK    5  A    between atoms: C_9  and  N_10
REMARK    6  A    between atoms: N_10  and  C_11
REMARK    7  A    between atoms: C_11  and  C_12
REMARK                            x       y       z     vdW  Elec       q    Type
REMARK                         _______ _______ _______ _____ _____    ______ ____
ROOT
ATOM      1  C   UNL     1      46.428   4.782  14.935  0.00  0.00    +0.000 C 
ENDROOT
BRANCH   1   2
ATOM      2  C   UNL     1      46.942   4.526  13.510  0.00  0.00    +0.000 C 
ATOM      3  C   UNL     1      46.136   3.412  12.817  0.00  0.00    +0.000 C 
ATOM      4  C   UNL     1      44.706   3.855  12.526  0.00  0.00    +0.000 C 
ATOM      5  C   UNL     1      44.675   5.129  11.668  0.00  0.00    +0.000 C 
ATOM      6  C   UNL     1      45.473   6.253  12.332  0.00  0.00    +0.000 C 
ATOM      7  C   UNL     1      46.895   5.826  12.690  0.00  0.00    +0.000 C 
BRANCH   5   8
ATOM      8  C   UNL     1      45.159   4.893  10.220  0.00  0.00    +0.000 C 
BRANCH   8   9
ATOM      9  N   UNL     1      44.631   3.670   9.622  0.00  0.00    +0.000 NA
ATOM     10  H   UNL     1      43.666   3.527   9.917  0.00  0.00    +0.000 HD
BRANCH   9  11
ATOM     11  C   UNL     1      44.683   3.720   8.162  0.00  0.00    +0.000 C 
BRANCH  11  12
ATOM     12  C   UNL     1      45.807   2.880   7.631  0.00  0.00    +0.000 A 
ATOM     13  C   UNL     1      46.630   3.328   6.597  0.00  0.00    +0.000 A 
ATOM     14  C   UNL     1      47.654   2.498   6.166  0.00  0.00    +0.000 A 
ATOM     15  N   UNL     1      47.902   1.278   6.682  0.00  0.00    +0.000 NA
ATOM     16  C   UNL     1      47.087   0.865   7.676  0.00  0.00    +0.000 A 
ATOM     17  C   UNL     1      46.045   1.619   8.183  0.00  0.00    +0.000 A 
ENDBRANCH  11  12
ENDBRANCH   9  11
ENDBRANCH   8   9
ENDBRANCH   5   8
ENDBRANCH   1   2
BRANCH   1  20
ATOM     18  O   UNL     1      47.129   2.912  16.873  0.00  0.00    +0.000 OA
ATOM     19  C   UNL     1      47.797   3.948  16.775  0.00  0.00    +0.000 C 
ATOM     20  N   UNL     1      47.498   4.930  15.876  0.00  0.00    +0.000 N 
ATOM     21  H   UNL     1      48.222   5.591  15.617  0.00  0.00    +0.000 HD
BRANCH  19  22
ATOM     22  C   UNL     1      48.943   4.193  17.636  0.00  0.00    +0.000 A 
ATOM     23  C   UNL     1      50.171   3.588  17.401  0.00  0.00    +0.000 A 
ATOM     24  S   UNL     1      51.360   4.040  18.538  0.00  0.00    +0.000 S 
ATOM     25  C   UNL     1      50.274   5.063  19.355  0.00  0.00    +0.000 A 
ATOM     26  N   UNL     1      50.655   5.787  20.439  0.00  0.00    +0.000 NA
ATOM     27  C   UNL     1      49.727   6.540  20.933  0.00  0.00    +0.000 A 
ATOM     28  N   UNL     1      48.451   6.639  20.444  0.00  0.00    +0.000 N 
ATOM     29  C   UNL     1      48.006   5.887  19.394  0.00  0.00    +0.000 A 
ATOM     30  O   UNL     1      46.825   5.923  19.071  0.00  0.00    +0.000 OA
ATOM     31  C   UNL     1      49.015   5.049  18.781  0.00  0.00    +0.000 A 
ATOM     32  H   UNL     1      47.760   7.217  20.894  0.00  0.00    +0.000 HD
ENDBRANCH  19  22
ENDBRANCH   1  20
TORSDOF 7
ENDMDL
MODEL 4
REMARK VINA RESULT:    -7.564      4.808      5.488
REMARK INTER + INTRA:         -11.635
REMARK INTER:                 -10.361
REMARK INTRA:                  -1.274
REMARK UNBOUND:                -0.976
REMARK  Name = 
REMARK  7 active torsions:
REMARK  status: ('A' for Active; 'I' for Inactive)
REMARK    1  A    between atoms: C_2  and  C_20
REMARK    2  A    between atoms: N_3  and  C_4
REMARK    3  A    between atoms: C_4  and  C_5
REMARK    4  A    between atoms: C_8  and  C_9
REMARK    5  A    between atoms: C_9  and  N_10
REMARK    6  A    between atoms: N_10  and  C_11
REMARK    7  A    between atoms: C_11  and  C_12
REMARK                            x       y       z     vdW  Elec       q    Type
REMARK                         _______ _______ _______ _____ _____    ______ ____
ROOT
ATOM      1  C   UNL     1      44.584   7.839  12.085  0.00  0.00    +0.000 C 
ENDROOT
BRANCH   1   2
ATOM      2  C   UNL     1      44.130   6.801  11.046  0.00  0.00    +0.000 C 
ATOM      3  C   UNL     1      45.233   5.761  10.777  0.00  0.00    +0.000 C 
ATOM      4  C   UNL     1      45.465   4.865  11.989  0.00  0.00    +0.000 C 
ATOM      5  C   UNL     1      44.172   4.152  12.418  0.00  0.00    +0.000 C 
ATOM      6  C   UNL     1      43.057   5.164  12.688  0.00  0.00    +0.000 C 
ATOM      7  C   UNL     1      42.835   6.116  11.515  0.00  0.00    +0.000 C 
BRANCH   5   8
ATOM      8  C   UNL     1      43.710   3.082  11.404  0.00  0.00    +0.000 C 
BRANCH   8   9
ATOM      9  N   UNL     1      44.811   2.430  10.702  0.00  0.00    +0.000 NA
ATOM     10  H   UNL     1      45.076   1.575  11.190  0.00  0.00    +0.000 HD
BRANCH   9  11
ATOM     11  C   UNL     1      44.452   2.104   9.324  0.00  0.00    +0.000 C 
BRANCH  11  12
ATOM     12  C   UNL     1      45.615   2.308   8.398  0.00  0.00    +0.000 A 
ATOM     13  C   UNL     1      45.955   3.574   7.920  0.00  0.00    +0.000 A 
ATOM     14  C   UNL     1      47.048   3.686   7.074  0.00  0.00    +0.000 A 
ATOM     15  N   UNL     1      47.804   2.642   6.680  0.00  0.00    +0.000 NA
ATOM     16  C   UNL     1      47.450   1.427   7.152  0.00  0.00    +0.000 A 
ATOM     17  C   UNL     1      46.384   1.211   8.005  0.00  0.00    +0.000 A 
ENDBRANCH  11  12
ENDBRANCH   9  11
ENDBRANCH   8   9
ENDBRANCH   5   8
ENDBRANCH   1   2
BRANCH   1  20
ATOM     18  O   UNL     1      46.578   8.731  13.810  0.00  0.00    +0.000 OA
ATOM     19  C   UNL     1      46.726   8.892  12.592  0.00  0.00    +0.000 C 
ATOM     20  N   UNL     1      45.781   8.516  11.683  0.00  0.00    +0.000 N 
ATOM     21  H   UNL     1      46.060   8.378  10.718  0.00  0.00    +0.000 HD
BRANCH  19  22
ATOM     22  C   UNL     1      47.923   9.517  12.053  0.00  0.00    +0.000 A 
ATOM     23  C   UNL     1      47.961  10.872  11.749  0.00  0.00    +0.000 A 
ATOM     24  S   UNL     1      49.476  11.372  11.142  0.00  0.00    +0.000 S 
ATOM     25  C   UNL     1      50.117   9.803  11.288  0.00  0.00    +0.000 A 
ATOM     26  N   UNL     1      51.403   9.525  10.950  0.00  0.00    +0.000 NA
ATOM     27  C   UNL     1      51.753   8.295  11.144  0.00  0.00    +0.000 A 
ATOM     28  N   UNL     1      50.939   7.315  11.646  0.00  0.00    +0.000 N 
ATOM     29  C   UNL     1      49.623   7.534  11.944  0.00  0.00    +0.000 A 
ATOM     30  O   UNL     1      48.907   6.599  12.276  0.00  0.00    +0.000 OA
ATOM     31  C   UNL     1      49.186   8.904  11.776  0.00  0.00    +0.000 A 
ATOM     32  H   UNL     1      51.258   6.365  11.741  0.00  0.00    +0.000 HD
ENDBRANCH  19  22
ENDBRANCH   1  20
TORSDOF 7
ENDMDL
MODEL 5
REMARK VINA RESULT:    -7.477      2.742      3.205
REMARK INTER + INTRA:         -11.514
REMARK INTER:                 -10.679
REMARK INTRA:                  -0.835
REMARK UNBOUND:                -0.976
REMARK  Name = 
REMARK  7 active torsions:
REMARK  status: ('A' for Active; 'I' for Inactive)
REMARK    1  A    between atoms: C_2  and  C_20
REMARK    2  A    between atoms: N_3  and  C_4
REMARK    3  A    between atoms: C_4  and  C_5
REMARK    4  A    between atoms: C_8  and  C_9
REMARK    5  A    between atoms: C_9  and  N_10
REMARK    6  A    between atoms: N_10  and  C_11
REMARK    7  A    between atoms: C_11  and  C_12
REMARK                            x       y       z     vdW  Elec       q    Type
REMARK                         _______ _______ _______ _____ _____    ______ ____
ROOT
ATOM      1  C   UNL     1      47.504   6.460  13.562  0.00  0.00    +0.000 C 
ENDROOT
BRANCH   1   2
ATOM      2  C   UNL     1      45.989   6.300  13.358  0.00  0.00    +0.000 C 
ATOM      3  C   UNL     1      45.556   6.807  11.970  0.00  0.00    +0.000 C 
ATOM      4  C   UNL     1      46.089   5.912  10.856  0.00  0.00    +0.000 C 
ATOM      5  C   UNL     1      45.636   4.454  11.040  0.00  0.00    +0.000 C 
ATOM      6  C   UNL     1      46.050   3.926  12.415  0.00  0.00    +0.000 C 
ATOM      7  C   UNL     1      45.583   4.830  13.554  0.00  0.00    +0.000 C 
BRANCH   5   8
ATOM      8  C   UNL     1      44.121   4.260  10.811  0.00  0.00    +0.000 C 
BRANCH   8   9
ATOM      9  N   UNL     1      43.808   3.467   9.626  0.00  0.00    +0.000 NA
ATOM     10  H   UNL     1      42.803   3.476   9.457  0.00  0.00    +0.000 HD
BRANCH   9  11
ATOM     11  C   UNL     1      44.497   3.976   8.441  0.00  0.00    +0.000 C 
BRANCH  11  12
ATOM     12  C   UNL     1      45.518   2.995   7.945  0.00  0.00    +0.000 A 
ATOM     13  C   UNL     1      45.605   1.704   8.467  0.00  0.00    +0.000 A 
ATOM     14  C   UNL     1      46.570   0.851   7.952  0.00  0.00    +0.000 A 
ATOM     15  N   UNL     1      47.435   1.194   6.977  0.00  0.00    +0.000 NA
ATOM     16  C   UNL     1      47.334   2.451   6.494  0.00  0.00    +0.000 A 
ATOM     17  C   UNL     1      46.403   3.374   6.934  0.00  0.00    +0.000 A 
ENDBRANCH  11  12
ENDBRANCH   9  11
ENDBRANCH   8   9
ENDBRANCH   5   8
ENDBRANCH   1   2
BRANCH   1  20
ATOM     18  O   UNL     1      48.594   5.002  15.667  0.00  0.00    +0.000 OA
ATOM     19  C   UNL     1      48.385   6.211  15.824  0.00  0.00    +0.000 C 
ATOM     20  N   UNL     1      47.820   6.989  14.856  0.00  0.00    +0.000 N 
ATOM     21  H   UNL     1      47.950   7.993  14.899  0.00  0.00    +0.000 HD
BRANCH  19  22
ATOM     22  C   UNL     1      48.714   6.879  17.073  0.00  0.00    +0.000 A 
ATOM     23  C   UNL     1      49.610   7.939  17.116  0.00  0.00    +0.000 A 
ATOM     24  S   UNL     1      49.823   8.563  18.691  0.00  0.00    +0.000 S 
ATOM     25  C   UNL     1      48.714   7.451  19.344  0.00  0.00    +0.000 A 
ATOM     26  N   UNL     1      48.406   7.445  20.667  0.00  0.00    +0.000 NA
ATOM     27  C   UNL     1      47.525   6.561  21.008  0.00  0.00    +0.000 A 
ATOM     28  N   UNL     1      46.920   5.681  20.149  0.00  0.00    +0.000 N 
ATOM     29  C   UNL     1      47.241   5.611  18.823  0.00  0.00    +0.000 A 
ATOM     30  O   UNL     1      46.761   4.729  18.123  0.00  0.00    +0.000 OA
ATOM     31  C   UNL     1      48.200   6.602  18.380  0.00  0.00    +0.000 A 
ATOM     32  H   UNL     1      46.267   4.991  20.480  0.00  0.00    +0.000 HD
ENDBRANCH  19  22
ENDBRANCH   1  20
TORSDOF 7
ENDMDL
MODEL 6
REMARK VINA RESULT:    -7.327      2.501      3.576
REMARK INTER + INTRA:         -11.302
REMARK INTER:                 -10.406
REMARK INTRA:                  -0.896
REMARK UNBOUND:                -0.976
REMARK  Name = 
REMARK  7 active torsions:
REMARK  status: ('A' for Active; 'I' for Inactive)
REMARK    1  A    between atoms: C_2  and  C_20
REMARK    2  A    between atoms: N_3  and  C_4
REMARK    3  A    between atoms: C_4  and  C_5
REMARK    4  A    between atoms: C_8  and  C_9
REMARK    5  A    between atoms: C_9  and  N_10
REMARK    6  A    between atoms: N_10  and  C_11
REMARK    7  A    between atoms: C_11  and  C_12
REMARK                            x       y       z     vdW  Elec       q    Type
REMARK                         _______ _______ _______ _____ _____    ______ ____
ROOT
ATOM      1  C   UNL     1      47.222   6.363  13.481  0.00  0.00    +0.000 C 
ENDROOT
BRANCH   1   2
ATOM      2  C   UNL     1      45.740   6.372  13.076  0.00  0.00    +0.000 C 
ATOM      3  C   UNL     1      45.563   6.824  11.615  0.00  0.00    +0.000 C 
ATOM      4  C   UNL     1      46.116   5.791  10.639  0.00  0.00    +0.000 C 
ATOM      5  C   UNL     1      45.458   4.416  10.842  0.00  0.00    +0.000 C 
ATOM      6  C   UNL     1      45.615   3.945  12.289  0.00  0.00    +0.000 C 
ATOM      7  C   UNL     1      45.123   4.981  13.297  0.00  0.00    +0.000 C 
BRANCH   5   8
ATOM      8  C   UNL     1      43.974   4.391  10.414  0.00  0.00    +0.000 C 
BRANCH   8   9
ATOM      9  N   UNL     1      43.715   3.540   9.256  0.00  0.00    +0.000 NA
ATOM     10  H   UNL     1      43.898   4.059   8.397  0.00  0.00    +0.000 HD
BRANCH   9  11
ATOM     11  C   UNL     1      44.547   2.338   9.275  0.00  0.00    +0.000 C 
BRANCH  11  12
ATOM     12  C   UNL     1      45.585   2.381   8.194  0.00  0.00    +0.000 A 
ATOM     13  C   UNL     1      45.670   3.452   7.303  0.00  0.00    +0.000 A 
ATOM     14  C   UNL     1      46.663   3.424   6.335  0.00  0.00    +0.000 A 
ATOM     15  N   UNL     1      47.552   2.420   6.197  0.00  0.00    +0.000 NA
ATOM     16  C   UNL     1      47.444   1.393   7.067  0.00  0.00    +0.000 A 
ATOM     17  C   UNL     1      46.497   1.329   8.072  0.00  0.00    +0.000 A 
ENDBRANCH  11  12
ENDBRANCH   9  11
ENDBRANCH   8   9
ENDBRANCH   5   8
ENDBRANCH   1   2
BRANCH   1  20
ATOM     18  O   UNL     1      49.594   6.631  14.914  0.00  0.00    +0.000 OA
ATOM     19  C   UNL     1      48.594   6.187  15.492  0.00  0.00    +0.000 C 
ATOM     20  N   UNL     1      47.405   5.992  14.853  0.00  0.00    +0.000 N 
ATOM     21  H   UNL     1      46.558   5.931  15.407  0.00  0.00    +0.000 HD
BRANCH  19  22
ATOM     22  C   UNL     1      48.634   5.825  16.900  0.00  0.00    +0.000 A 
ATOM     23  C   UNL     1      48.725   4.500  17.306  0.00  0.00    +0.000 A 
ATOM     24  S   UNL     1      48.767   4.331  19.004  0.00  0.00    +0.000 S 
ATOM     25  C   UNL     1      48.685   6.014  19.233  0.00  0.00    +0.000 A 
ATOM     26  N   UNL     1      48.699   6.567  20.474  0.00  0.00    +0.000 NA
ATOM     27  C   UNL     1      48.660   7.859  20.485  0.00  0.00    +0.000 A 
ATOM     28  N   UNL     1      48.610   8.655  19.370  0.00  0.00    +0.000 N 
ATOM     29  C   UNL     1      48.535   8.143  18.105  0.00  0.00    +0.000 A 
ATOM     30  O   UNL     1      48.372   8.892  17.151  0.00  0.00    +0.000 OA
ATOM     31  C   UNL     1      48.609   6.699  18.033  0.00  0.00    +0.000 A 
ATOM     32  H   UNL     1      48.545   9.657  19.443  0.00  0.00    +0.000 HD
ENDBRANCH  19  22
ENDBRANCH   1  20
TORSDOF 7
ENDMDL
MODEL 7
REMARK VINA RESULT:    -7.124      1.856      2.669
REMARK INTER + INTRA:         -11.016
REMARK INTER:                  -9.983
REMARK INTRA:                  -1.033
REMARK UNBOUND:                -0.976
REMARK  Name = 
REMARK  7 active torsions:
REMARK  status: ('A' for Active; 'I' for Inactive)
REMARK    1  A    between atoms: C_2  and  C_20
REMARK    2  A    between atoms: N_3  and  C_4
REMARK    3  A    between atoms: C_4  and  C_5
REMARK    4  A    between atoms: C_8  and  C_9
REMARK    5  A    between atoms: C_9  and  N_10
REMARK    6  A    between atoms: N_10  and  C_11
REMARK    7  A    between atoms: C_11  and  C_12
REMARK                            x       y       z     vdW  Elec       q    Type
REMARK                         _______ _______ _______ _____ _____    ______ ____
ROOT
ATOM      1  C   UNL     1      45.507   4.307  14.416  0.00  0.00    +0.000 C 
ENDROOT
BRANCH   1   2
ATOM      2  C   UNL     1      45.327   5.340  13.292  0.00  0.00    +0.000 C 
ATOM      3  C   UNL     1      46.133   4.949  12.040  0.00  0.00    +0.000 C 
ATOM      4  C   UNL     1      45.560   3.703  11.373  0.00  0.00    +0.000 C 
ATOM      5  C   UNL     1      44.081   3.895  11.000  0.00  0.00    +0.000 C 
ATOM      6  C   UNL     1      43.257   4.289  12.228  0.00  0.00    +0.000 C 
ATOM      7  C   UNL     1      43.836   5.501  12.955  0.00  0.00    +0.000 C 
BRANCH   5   8
ATOM      8  C   UNL     1      43.875   4.907   9.852  0.00  0.00    +0.000 C 
BRANCH   8   9
ATOM      9  N   UNL     1      44.376   4.437   8.564  0.00  0.00    +0.000 NA
ATOM     10  H   UNL     1      45.309   4.813   8.395  0.00  0.00    +0.000 HD
BRANCH   9  11
ATOM     11  C   UNL     1      44.431   2.977   8.508  0.00  0.00    +0.000 C 
BRANCH  11  12
ATOM     12  C   UNL     1      45.724   2.507   7.913  0.00  0.00    +0.000 A 
ATOM     13  C   UNL     1      46.563   3.371   7.208  0.00  0.00    +0.000 A 
ATOM     14  C   UNL     1      47.747   2.865   6.694  0.00  0.00    +0.000 A 
ATOM     15  N   UNL     1      48.138   1.582   6.829  0.00  0.00    +0.000 NA
ATOM     16  C   UNL     1      47.306   0.764   7.509  0.00  0.00    +0.000 A 
ATOM     17  C   UNL     1      46.109   1.173   8.068  0.00  0.00    +0.000 A 
ENDBRANCH  11  12
ENDBRANCH   9  11
ENDBRANCH   8   9
ENDBRANCH   5   8
ENDBRANCH   1   2
BRANCH   1  20
ATOM     18  O   UNL     1      47.795   2.915  15.172  0.00  0.00    +0.000 OA
ATOM     19  C   UNL     1      47.565   4.014  15.693  0.00  0.00    +0.000 C 
ATOM     20  N   UNL     1      46.449   4.742  15.403  0.00  0.00    +0.000 N 
ATOM     21  H   UNL     1      46.452   5.737  15.599  0.00  0.00    +0.000 HD
BRANCH  19  22
ATOM     22  C   UNL     1      48.474   4.591  16.670  0.00  0.00    +0.000 A 
ATOM     23  C   UNL     1      48.779   3.935  17.855  0.00  0.00    +0.000 A 
ATOM     24  S   UNL     1      49.874   4.806  18.832  0.00  0.00    +0.000 S 
ATOM     25  C   UNL     1      49.981   6.064  17.691  0.00  0.00    +0.000 A 
ATOM     26  N   UNL     1      50.779   7.144  17.894  0.00  0.00    +0.000 NA
ATOM     27  C   UNL     1      50.776   8.001  16.926  0.00  0.00    +0.000 A 
ATOM     28  N   UNL     1      50.051   7.880  15.770  0.00  0.00    +0.000 N 
ATOM     29  C   UNL     1      49.191   6.841  15.548  0.00  0.00    +0.000 A 
ATOM     30  O   UNL     1      48.477   6.840  14.553  0.00  0.00    +0.000 OA
ATOM     31  C   UNL     1      49.179   5.834  16.587  0.00  0.00    +0.000 A 
ATOM     32  H   UNL     1      50.062   8.599  15.065  0.00  0.00    +0.000 HD
ENDBRANCH  19  22
ENDBRANCH   1  20
TORSDOF 7
ENDMDL
MODEL 8
REMARK VINA RESULT:    -7.095      4.419      5.109
REMARK INTER + INTRA:         -10.974
REMARK INTER:                  -9.936
REMARK INTRA:                  -1.038
REMARK UNBOUND:                -0.976
REMARK  Name = 
REMARK  7 active torsions:
REMARK  status: ('A' for Active; 'I' for Inactive)
REMARK    1  A    between atoms: C_2  and  C_20
REMARK    2  A    between atoms: N_3  and  C_4
REMARK    3  A    between atoms: C_4  and  C_5
REMARK    4  A    between atoms: C_8  and  C_9
REMARK    5  A    between atoms: C_9  and  N_10
REMARK    6  A    between atoms: N_10  and  C_11
REMARK    7  A    between atoms: C_11  and  C_12
REMARK                            x       y       z     vdW  Elec       q    Type
REMARK                         _______ _______ _______ _____ _____    ______ ____
ROOT
ATOM      1  C   UNL     1      45.481   7.418  12.779  0.00  0.00    +0.000 C 
ENDROOT
BRANCH   1   2
ATOM      2  C   UNL     1      45.002   6.608  11.565  0.00  0.00    +0.000 C 
ATOM      3  C   UNL     1      45.835   5.326  11.385  0.00  0.00    +0.000 C 
ATOM      4  C   UNL     1      45.578   4.329  12.510  0.00  0.00    +0.000 C 
ATOM      5  C   UNL     1      44.087   3.969  12.612  0.00  0.00    +0.000 C 
ATOM      6  C   UNL     1      43.234   5.227  12.787  0.00  0.00    +0.000 C 
ATOM      7  C   UNL     1      43.508   6.273  11.709  0.00  0.00    +0.000 C 
BRANCH   5   8
ATOM      8  C   UNL     1      43.587   3.128  11.417  0.00  0.00    +0.000 C 
BRANCH   8   9
ATOM      9  N   UNL     1      44.656   2.436  10.704  0.00  0.00    +0.000 NA
ATOM     10  H   UNL     1      44.848   1.539  11.150  0.00  0.00    +0.000 HD
BRANCH   9  11
ATOM     11  C   UNL     1      44.307   2.209   9.302  0.00  0.00    +0.000 C 
BRANCH  11  12
ATOM     12  C   UNL     1      45.500   2.393   8.411  0.00  0.00    +0.000 A 
ATOM     13  C   UNL     1      45.857   3.648   7.917  0.00  0.00    +0.000 A 
ATOM     14  C   UNL     1      46.978   3.740   7.106  0.00  0.00    +0.000 A 
ATOM     15  N   UNL     1      47.745   2.688   6.759  0.00  0.00    +0.000 NA
ATOM     16  C   UNL     1      47.375   1.484   7.245  0.00  0.00    +0.000 A 
ATOM     17  C   UNL     1      46.281   1.287   8.068  0.00  0.00    +0.000 A 
ENDBRANCH  11  12
ENDBRANCH   9  11
ENDBRANCH   8   9
ENDBRANCH   5   8
ENDBRANCH   1   2
BRANCH   1  20
ATOM     18  O   UNL     1      47.777   6.626  14.139  0.00  0.00    +0.000 OA
ATOM     19  C   UNL     1      47.871   7.498  13.266  0.00  0.00    +0.000 C 
ATOM     20  N   UNL     1      46.789   7.967  12.580  0.00  0.00    +0.000 N 
ATOM     21  H   UNL     1      46.940   8.430  11.691  0.00  0.00    +0.000 HD
BRANCH  19  22
ATOM     22  C   UNL     1      49.153   8.095  12.931  0.00  0.00    +0.000 A 
ATOM     23  C   UNL     1      49.898   7.655  11.845  0.00  0.00    +0.000 A 
ATOM     24  S   UNL     1      51.358   8.518  11.650  0.00  0.00    +0.000 S 
ATOM     25  C   UNL     1      51.021   9.507  12.991  0.00  0.00    +0.000 A 
ATOM     26  N   UNL     1      51.868  10.494  13.380  0.00  0.00    +0.000 NA
ATOM     27  C   UNL     1      51.461  11.179  14.398  0.00  0.00    +0.000 A 
ATOM     28  N   UNL     1      50.284  10.971  15.067  0.00  0.00    +0.000 N 
ATOM     29  C   UNL     1      49.429   9.954  14.749  0.00  0.00    +0.000 A 
ATOM     30  O   UNL     1      48.449   9.736  15.451  0.00  0.00    +0.000 OA
ATOM     31  C   UNL     1      49.820   9.174  13.593  0.00  0.00    +0.000 A 
ATOM     32  H   UNL     1      50.037  11.515  15.877  0.00  0.00    +0.000 HD
ENDBRANCH  19  22
ENDBRANCH   1  20
TORSDOF 7
ENDMDL
MODEL 9
REMARK VINA RESULT:    -6.997      3.823      8.858
REMARK INTER + INTRA:         -10.837
REMARK INTER:                  -9.588
REMARK INTRA:                  -1.248
REMARK UNBOUND:                -0.976
REMARK  Name = 
REMARK  7 active torsions:
REMARK  status: ('A' for Active; 'I' for Inactive)
REMARK    1  A    between atoms: C_2  and  C_20
REMARK    2  A    between atoms: N_3  and  C_4
REMARK    3  A    between atoms: C_4  and  C_5
REMARK    4  A    between atoms: C_8  and  C_9
REMARK    5  A    between atoms: C_9  and  N_10
REMARK    6  A    between atoms: N_10  and  C_11
REMARK    7  A    between atoms: C_11  and  C_12
REMARK                            x       y       z     vdW  Elec       q    Type
REMARK                         _______ _______ _______ _____ _____    ______ ____
ROOT
ATOM      1  C   UNL     1      47.114   8.053  11.725  0.00  0.00    +0.000 C 
ENDROOT
BRANCH   1   2
ATOM      2  C   UNL     1      48.613   7.958  12.049  0.00  0.00    +0.000 C 
ATOM      3  C   UNL     1      49.089   9.180  12.856  0.00  0.00    +0.000 C 
ATOM      4  C   UNL     1      48.495   9.188  14.261  0.00  0.00    +0.000 C 
ATOM      5  C   UNL     1      48.836   7.897  15.023  0.00  0.00    +0.000 C 
ATOM      6  C   UNL     1      48.378   6.665  14.240  0.00  0.00    +0.000 C 
ATOM      7  C   UNL     1      48.907   6.653  12.808  0.00  0.00    +0.000 C 
BRANCH   5   8
ATOM      8  C   UNL     1      50.333   7.790  15.388  0.00  0.00    +0.000 C 
BRANCH   8   9
ATOM      9  N   UNL     1      50.743   6.444  15.780  0.00  0.00    +0.000 NA
ATOM     10  H   UNL     1      51.734   6.312  15.584  0.00  0.00    +0.000 HD
BRANCH   9  11
ATOM     11  C   UNL     1      50.499   6.201  17.201  0.00  0.00    +0.000 C 
BRANCH  11  12
ATOM     12  C   UNL     1      49.512   5.089  17.398  0.00  0.00    +0.000 A 
ATOM     13  C   UNL     1      48.153   5.343  17.590  0.00  0.00    +0.000 A 
ATOM     14  C   UNL     1      47.300   4.263  17.757  0.00  0.00    +0.000 A 
ATOM     15  N   UNL     1      47.704   2.977  17.751  0.00  0.00    +0.000 NA
ATOM     16  C   UNL     1      49.024   2.758  17.571  0.00  0.00    +0.000 A 
ATOM     17  C   UNL     1      49.955   3.765  17.387  0.00  0.00    +0.000 A 
ENDBRANCH  11  12
ENDBRANCH   9  11
ENDBRANCH   8   9
ENDBRANCH   5   8
ENDBRANCH   1   2
BRANCH   1  20
ATOM     18  O   UNL     1      44.377   7.595  11.502  0.00  0.00    +0.000 OA
ATOM     19  C   UNL     1      45.147   6.626  11.500  0.00  0.00    +0.000 C 
ATOM     20  N   UNL     1      46.497   6.763  11.640  0.00  0.00    +0.000 N 
ATOM     21  H   UNL     1      47.099   6.009  11.328  0.00  0.00    +0.000 HD
BRANCH  19  22
ATOM     22  C   UNL     1      44.650   5.266  11.364  0.00  0.00    +0.000 A 
ATOM     23  C   UNL     1      43.901   4.664  12.367  0.00  0.00    +0.000 A 
ATOM     24  S   UNL     1      43.424   3.073  11.971  0.00  0.00    +0.000 S 
ATOM     25  C   UNL     1      44.186   3.160  10.453  0.00  0.00    +0.000 A 
ATOM     26  N   UNL     1      44.149   2.122   9.577  0.00  0.00    +0.000 NA
ATOM     27  C   UNL     1      44.748   2.349   8.454  0.00  0.00    +0.000 A 
ATOM     28  N   UNL     1      45.381   3.518   8.121  0.00  0.00    +0.000 N 
ATOM     29  C   UNL     1      45.494   4.565   8.991  0.00  0.00    +0.000 A 
ATOM     30  O   UNL     1      46.171   5.540   8.691  0.00  0.00    +0.000 OA
ATOM     31  C   UNL     1      44.812   4.378  10.254  0.00  0.00    +0.000 A 
ATOM     32  H   UNL     1      45.862   3.623   7.243  0.00  0.00    +0.000 HD
ENDBRANCH  19  22
ENDBRANCH   1  20
TORSDOF 7
ENDMDL
