MODEL 1
REMARK VINA RESULT:    -8.620      0.000      0.000
REMARK INTER + INTRA:         -14.361
REMARK INTER:                 -12.651
REMARK INTRA:                  -1.710
REMARK UNBOUND:                -1.710
REMARK  Name = 
REMARK  10 active torsions:
REMARK  status: ('A' for Active; 'I' for Inactive)
REMARK    1  A    between atoms: C_1  and  O_2
REMARK    2  A    between atoms: O_2  and  C_3
REMARK    3  A    between atoms: C_10  and  C_11
REMARK    4  A    between atoms: N_13  and  C_14
REMARK    5  A    between atoms: C_14  and  C_15
REMARK    6  A    between atoms: C_18  and  C_19
REMARK    7  A    between atoms: C_19  and  N_20
REMARK    8  A    between atoms: N_20  and  C_21
REMARK    9  A    between atoms: C_21  and  C_22
REMARK   10  A    between atoms: C_21  and  C_23
REMARK                            x       y       z     vdW  Elec       q    Type
REMARK                         _______ _______ _______ _____ _____    ______ ____
ROOT
ATOM      1  C   UNL     1      46.431   7.586  12.538  0.00  0.00    +0.000 A 
ATOM      2  C   UNL     1      46.931   6.647  11.626  0.00  0.00    +0.000 A 
ATOM      3  C   UNL     1      46.062   5.867  10.851  0.00  0.00    +0.000 A 
ATOM      4  C   UNL     1      44.672   6.009  10.962  0.00  0.00    +0.000 A 
ATOM      5  C   UNL     1      44.180   7.018  11.806  0.00  0.00    +0.000 A 
ATOM      6  C   UNL     1      45.047   7.796  12.585  0.00  0.00    +0.000 A 
ENDROOT
BRANCH   1   7
ATOM      7  C   UNL     1      47.363   8.342  13.455  0.00  0.00    +0.000 C 
BRANCH   7  10
ATOM      8  C   UNL     1      48.865   6.941  14.813  0.00  0.00    +0.000 C 
ATOM      9  O   UNL     1      49.730   6.957  13.943  0.00  0.00    +0.000 OA
ATOM     10  N   UNL     1      47.673   7.600  14.645  0.00  0.00    +0.000 N 
ATOM     11  H   UNL     1      46.975   7.580  15.376  0.00  0.00    +0.000 HD
BRANCH   8  19
ATOM     12  C   UNL     1      47.281   4.240  16.242  0.00  0.00    +0.000 A 
ATOM     13  N   UNL     1      46.891   3.180  16.975  0.00  0.00    +0.000 NA
ATOM     14  C   UNL     1      47.550   2.929  18.110  0.00  0.00    +0.000 A 
ATOM     15  N   UNL     1      48.564   3.623  18.620  0.00  0.00    +0.000 NA
ATOM     16  C   UNL     1      48.930   4.661  17.848  0.00  0.00    +0.000 A 
ATOM     17  S   UNL     1      50.202   5.669  18.346  0.00  0.00    +0.000 S 
ATOM     18  C   UNL     1      50.059   6.623  16.945  0.00  0.00    +0.000 A 
ATOM     19  C   UNL     1      49.058   6.204  16.075  0.00  0.00    +0.000 A 
ATOM     20  C   UNL     1      48.367   5.042  16.634  0.00  0.00    +0.000 A 
BRANCH  12  22
ATOM     21  C   UNL     1      47.094   3.771  13.956  0.00  0.00    +0.000 C 
ATOM     22  O   UNL     1      46.601   4.506  15.074  0.00  0.00    +0.000 OA
ENDBRANCH  12  22
ENDBRANCH   8  19
ENDBRANCH   7  10
ENDBRANCH   1   7
BRANCH   4  23
ATOM     23  C   UNL     1      43.702   5.149  10.168  0.00  0.00    +0.000 C 
BRANCH  23  24
ATOM     24  N   UNL     1      44.307   4.551   8.977  0.00  0.00    +0.000 NA
ATOM     25  H   UNL     1      45.214   4.984   8.811  0.00  0.00    +0.000 HD
BRANCH  24  26
ATOM     26  C   UNL     1      44.456   3.088   9.031  0.00  0.00    +0.000 C 
ATOM     27  C   UNL     1      44.634   2.516  10.445  0.00  0.00    +0.000 C 
BRANCH  26  28
ATOM     28  C   UNL     1      45.620   2.664   8.138  0.00  0.00    +0.000 A 
ATOM     29  C   UNL     1      46.228   3.597   7.281  0.00  0.00    +0.000 A 
ATOM     30  C   UNL     1      47.322   3.235   6.490  0.00  0.00    +0.000 A 
ATOM     31  C   UNL     1      47.828   1.938   6.543  0.00  0.00    +0.000 A 
ATOM     32  C   UNL     1      47.229   0.996   7.375  0.00  0.00    +0.000 A 
ATOM     33  C   UNL     1      46.134   1.355   8.165  0.00  0.00    +0.000 A 
ENDBRANCH  26  28
ENDBRANCH  24  26
ENDBRANCH  23  24
ENDBRANCH   4  23
TORSDOF 8
ENDMDL
MODEL 2
REMARK VINA RESULT:    -7.936      1.199      1.799
REMARK INTER + INTRA:         -13.357
REMARK INTER:                 -11.976
REMARK INTRA:                  -1.381
REMARK UNBOUND:                -1.710
REMARK  Name = 
REMARK  10 active torsions:
REMARK  status: ('A' for Active; 'I' for Inactive)
REMARK    1  A    between atoms: C_1  and  O_2
REMARK    2  A    between atoms: O_2  and  C_3
REMARK    3  A    between atoms: C_10  and  C_11
REMARK    4  A    between atoms: N_13  and  C_14
REMARK    5  A    between atoms: C_14  and  C_15
REMARK    6  A    between atoms: C_18  and  C_19
REMARK    7  A    between atoms: C_19  and  N_20
REMARK    8  A    between atoms: N_20  and  C_21
REMARK    9  A    between atoms: C_21  and  C_22
REMARK   10  A    between atoms: C_21  and  C_23
REMARK                            x       y       z     vdW  Elec       q    Type
REMARK                         _______ _______ _______ _____ _____    ______ ____
ROOT
ATOM      1  C   UNL     1      46.693   7.523  12.762  0.00  0.00    +0.000 A 
ATOM      2  C   UNL     1      45.515   8.135  12.316  0.00  0.00    +0.000 A 
ATOM      3  C   UNL     1      44.535   7.397  11.639  0.00  0.00    +0.000 A 
ATOM      4  C   UNL     1      44.703   6.027  11.395  0.00  0.00    +0.000 A 
ATOM      5  C   UNL     1      45.840   5.400  11.929  0.00  0.00    +0.000 A 
ATOM      6  C   UNL     1      46.823   6.136  12.603  0.00  0.00    +0.000 A 
ENDROOT
BRANCH   1   7
ATOM      7  C   UNL     1      47.798   8.339  13.388  0.00  0.00    +0.000 C 
BRANCH   7  10
ATOM      8  C   UNL     1      48.881   7.393  15.388  0.00  0.00    +0.000 C 
ATOM      9  O   UNL     1      49.754   6.860  14.710  0.00  0.00    +0.000 OA
ATOM     10  N   UNL     1      47.885   8.138  14.808  0.00  0.00    +0.000 N 
ATOM     11  H   UNL     1      47.177   8.575  15.383  0.00  0.00    +0.000 HD
BRANCH   8  19
ATOM     12  C   UNL     1      48.645   4.683  17.496  0.00  0.00    +0.000 A 
ATOM     13  N   UNL     1      48.634   3.812  18.524  0.00  0.00    +0.000 NA
ATOM     14  C   UNL     1      48.713   4.307  19.763  0.00  0.00    +0.000 A 
ATOM     15  N   UNL     1      48.795   5.587  20.112  0.00  0.00    +0.000 NA
ATOM     16  C   UNL     1      48.818   6.419  19.056  0.00  0.00    +0.000 A 
ATOM     17  S   UNL     1      48.907   8.095  19.310  0.00  0.00    +0.000 S 
ATOM     18  C   UNL     1      48.913   8.398  17.637  0.00  0.00    +0.000 A 
ATOM     19  C   UNL     1      48.852   7.250  16.854  0.00  0.00    +0.000 A 
ATOM     20  C   UNL     1      48.769   6.067  17.711  0.00  0.00    +0.000 A 
BRANCH  12  22
ATOM     21  C   UNL     1      47.218   4.068  15.746  0.00  0.00    +0.000 C 
ATOM     22  O   UNL     1      48.559   4.179  16.218  0.00  0.00    +0.000 OA
ENDBRANCH  12  22
ENDBRANCH   8  19
ENDBRANCH   7  10
ENDBRANCH   1   7
BRANCH   4  23
ATOM     23  C   UNL     1      43.680   5.207  10.625  0.00  0.00    +0.000 C 
BRANCH  23  24
ATOM     24  N   UNL     1      44.197   4.689   9.358  0.00  0.00    +0.000 NA
ATOM     25  H   UNL     1      45.136   5.052   9.208  0.00  0.00    +0.000 HD
BRANCH  24  26
ATOM     26  C   UNL     1      44.208   3.221   9.251  0.00  0.00    +0.000 C 
ATOM     27  C   UNL     1      44.186   2.483  10.598  0.00  0.00    +0.000 C 
BRANCH  26  28
ATOM     28  C   UNL     1      45.415   2.782   8.425  0.00  0.00    +0.000 A 
ATOM     29  C   UNL     1      45.809   1.433   8.414  0.00  0.00    +0.000 A 
ATOM     30  C   UNL     1      46.885   1.009   7.628  0.00  0.00    +0.000 A 
ATOM     31  C   UNL     1      47.582   1.923   6.841  0.00  0.00    +0.000 A 
ATOM     32  C   UNL     1      47.215   3.266   6.852  0.00  0.00    +0.000 A 
ATOM     33  C   UNL     1      46.142   3.693   7.638  0.00  0.00    +0.000 A 
ENDBRANCH  26  28
ENDBRANCH  24  26
ENDBRANCH  23  24
ENDBRANCH   4  23
TORSDOF 8
ENDMDL
MODEL 3
REMARK VINA RESULT:    -7.660      1.997      2.738
REMARK INTER + INTRA:         -12.952
REMARK INTER:                 -11.488
REMARK INTRA:                  -1.464
REMARK UNBOUND:                -1.710
REMARK  Name = 
REMARK  10 active torsions:
REMARK  status: ('A' for Active; 'I' for Inactive)
REMARK    1  A    between atoms: C_1  and  O_2
REMARK    2  A    between atoms: O_2  and  C_3
REMARK    3  A    between atoms: C_10  and  C_11
REMARK    4  A    between atoms: N_13  and  C_14
REMARK    5  A    between atoms: C_14  and  C_15
REMARK    6  A    between atoms: C_18  and  C_19
REMARK    7  A    between atoms: C_19  and  N_20
REMARK    8  A    between atoms: N_20  and  C_21
REMARK    9  A    between atoms: C_21  and  C_22
REMARK   10  A    between atoms: C_21  and  C_23
REMARK                            x       y       z     vdW  Elec       q    Type
REMARK                         _______ _______ _______ _____ _____    ______ ____
ROOT
ATOM      1  C   UNL     1      46.928   7.390  13.021  0.00  0.00    +0.000 A 
ATOM      2  C   UNL     1      46.996   6.002  12.850  0.00  0.00    +0.000 A 
ATOM      3  C   UNL     1      46.043   5.327  12.077  0.00  0.00    +0.000 A 
ATOM      4  C   UNL     1      44.999   6.021  11.449  0.00  0.00    +0.000 A 
ATOM      5  C   UNL     1      44.992   7.422  11.545  0.00  0.00    +0.000 A 
ATOM      6  C   UNL     1      45.942   8.099  12.321  0.00  0.00    +0.000 A 
ENDROOT
BRANCH   1   7
ATOM      7  C   UNL     1      47.885   8.102  13.947  0.00  0.00    +0.000 C 
BRANCH   7  10
ATOM      8  C   UNL     1      49.001   6.822  15.731  0.00  0.00    +0.000 C 
ATOM      9  O   UNL     1      50.011   6.679  15.049  0.00  0.00    +0.000 OA
ATOM     10  N   UNL     1      47.913   7.512  15.256  0.00  0.00    +0.000 N 
ATOM     11  H   UNL     1      47.092   7.625  15.835  0.00  0.00    +0.000 HD
BRANCH   8  19
ATOM     12  C   UNL     1      47.891   8.063  18.743  0.00  0.00    +0.000 A 
ATOM     13  N   UNL     1      47.462   8.271  20.002  0.00  0.00    +0.000 NA
ATOM     14  C   UNL     1      47.565   7.263  20.873  0.00  0.00    +0.000 A 
ATOM     15  N   UNL     1      48.061   6.050  20.641  0.00  0.00    +0.000 NA
ATOM     16  C   UNL     1      48.462   5.881  19.369  0.00  0.00    +0.000 A 
ATOM     17  S   UNL     1      49.135   4.398  18.891  0.00  0.00    +0.000 S 
ATOM     18  C   UNL     1      49.337   4.948  17.295  0.00  0.00    +0.000 A 
ATOM     19  C   UNL     1      48.901   6.252  17.087  0.00  0.00    +0.000 A 
ATOM     20  C   UNL     1      48.401   6.817  18.341  0.00  0.00    +0.000 A 
BRANCH  12  22
ATOM     21  C   UNL     1      48.928   9.961  17.848  0.00  0.00    +0.000 C 
ATOM     22  O   UNL     1      47.791   9.102  17.844  0.00  0.00    +0.000 OA
ENDBRANCH  12  22
ENDBRANCH   8  19
ENDBRANCH   7  10
ENDBRANCH   1   7
BRANCH   4  23
ATOM     23  C   UNL     1      43.924   5.315  10.639  0.00  0.00    +0.000 C 
BRANCH  23  24
ATOM     24  N   UNL     1      44.414   4.804   9.358  0.00  0.00    +0.000 NA
ATOM     25  H   UNL     1      45.385   5.085   9.236  0.00  0.00    +0.000 HD
BRANCH  24  26
ATOM     26  C   UNL     1      44.292   3.347   9.189  0.00  0.00    +0.000 C 
ATOM     27  C   UNL     1      44.157   2.561  10.501  0.00  0.00    +0.000 C 
BRANCH  26  28
ATOM     28  C   UNL     1      45.481   2.830   8.381  0.00  0.00    +0.000 A 
ATOM     29  C   UNL     1      45.821   1.467   8.419  0.00  0.00    +0.000 A 
ATOM     30  C   UNL     1      46.878   0.972   7.650  0.00  0.00    +0.000 A 
ATOM     31  C   UNL     1      47.611   1.828   6.831  0.00  0.00    +0.000 A 
ATOM     32  C   UNL     1      47.298   3.184   6.792  0.00  0.00    +0.000 A 
ATOM     33  C   UNL     1      46.243   3.682   7.561  0.00  0.00    +0.000 A 
ENDBRANCH  26  28
ENDBRANCH  24  26
ENDBRANCH  23  24
ENDBRANCH   4  23
TORSDOF 8
ENDMDL
MODEL 4
REMARK VINA RESULT:    -7.442      1.437      1.902
REMARK INTER + INTRA:         -12.632
REMARK INTER:                 -11.298
REMARK INTRA:                  -1.334
REMARK UNBOUND:                -1.710
REMARK  Name = 
REMARK  10 active torsions:
REMARK  status: ('A' for Active; 'I' for Inactive)
REMARK    1  A    between atoms: C_1  and  O_2
REMARK    2  A    between atoms: O_2  and  C_3
REMARK    3  A    between atoms: C_10  and  C_11
REMARK    4  A    between atoms: N_13  and  C_14
REMARK    5  A    between atoms: C_14  and  C_15
REMARK    6  A    between atoms: C_18  and  C_19
REMARK    7  A    between atoms: C_19  and  N_20
REMARK    8  A    between atoms: N_20  and  C_21
REMARK    9  A    between atoms: C_21  and  C_22
REMARK   10  A    between atoms: C_21  and  C_23
REMARK                            x       y       z     vdW  Elec       q    Type
REMARK                         _______ _______ _______ _____ _____    ______ ____
ROOT
ATOM      1  C   UNL     1      46.604   7.706  13.083  0.00  0.00    +0.000 A 
ATOM      2  C   UNL     1      46.757   6.315  13.030  0.00  0.00    +0.000 A 
ATOM      3  C   UNL     1      45.872   5.523  12.286  0.00  0.00    +0.000 A 
ATOM      4  C   UNL     1      44.815   6.101  11.570  0.00  0.00    +0.000 A 
ATOM      5  C   UNL     1      44.725   7.502  11.549  0.00  0.00    +0.000 A 
ATOM      6  C   UNL     1      45.606   8.296  12.295  0.00  0.00    +0.000 A 
ENDROOT
BRANCH   1   7
ATOM      7  C   UNL     1      47.485   8.546  13.975  0.00  0.00    +0.000 C 
BRANCH   7  10
ATOM      8  C   UNL     1      49.046   8.094  15.826  0.00  0.00    +0.000 C 
ATOM      9  O   UNL     1      48.645   9.070  16.454  0.00  0.00    +0.000 OA
ATOM     10  N   UNL     1      48.522   7.772  14.599  0.00  0.00    +0.000 N 
ATOM     11  H   UNL     1      48.861   6.961  14.100  0.00  0.00    +0.000 HD
BRANCH   8  19
ATOM     12  C   UNL     1      49.131   4.827  16.902  0.00  0.00    +0.000 A 
ATOM     13  N   UNL     1      49.450   3.582  17.304  0.00  0.00    +0.000 NA
ATOM     14  C   UNL     1      50.725   3.334  17.618  0.00  0.00    +0.000 A 
ATOM     15  N   UNL     1      51.740   4.193  17.588  0.00  0.00    +0.000 NA
ATOM     16  C   UNL     1      51.380   5.417  17.167  0.00  0.00    +0.000 A 
ATOM     17  S   UNL     1      52.544   6.650  17.077  0.00  0.00    +0.000 S 
ATOM     18  C   UNL     1      51.394   7.760  16.494  0.00  0.00    +0.000 A 
ATOM     19  C   UNL     1      50.117   7.228  16.352  0.00  0.00    +0.000 A 
ATOM     20  C   UNL     1      50.108   5.830  16.782  0.00  0.00    +0.000 A 
BRANCH  12  22
ATOM     21  C   UNL     1      47.214   4.064  15.796  0.00  0.00    +0.000 C 
ATOM     22  O   UNL     1      47.817   5.088  16.583  0.00  0.00    +0.000 OA
ENDBRANCH  12  22
ENDBRANCH   8  19
ENDBRANCH   7  10
ENDBRANCH   1   7
BRANCH   4  23
ATOM     23  C   UNL     1      43.811   5.268  10.789  0.00  0.00    +0.000 C 
BRANCH  23  24
ATOM     24  N   UNL     1      44.342   4.774   9.518  0.00  0.00    +0.000 NA
ATOM     25  H   UNL     1      45.317   5.053   9.433  0.00  0.00    +0.000 HD
BRANCH  24  26
ATOM     26  C   UNL     1      44.220   3.321   9.322  0.00  0.00    +0.000 C 
ATOM     27  C   UNL     1      44.147   2.506  10.622  0.00  0.00    +0.000 C 
BRANCH  26  28
ATOM     28  C   UNL     1      45.375   2.829   8.452  0.00  0.00    +0.000 A 
ATOM     29  C   UNL     1      45.790   1.488   8.523  0.00  0.00    +0.000 A 
ATOM     30  C   UNL     1      46.815   1.012   7.700  0.00  0.00    +0.000 A 
ATOM     31  C   UNL     1      47.442   1.866   6.795  0.00  0.00    +0.000 A 
ATOM     32  C   UNL     1      47.054   3.202   6.722  0.00  0.00    +0.000 A 
ATOM     33  C   UNL     1      46.030   3.680   7.544  0.00  0.00    +0.000 A 
ENDBRANCH  26  28
ENDBRANCH  24  26
ENDBRANCH  23  24
ENDBRANCH   4  23
TORSDOF 8
ENDMDL
MODEL 5
REMARK VINA RESULT:    -6.855      2.813      3.866
REMARK INTER + INTRA:         -11.771
REMARK INTER:                 -10.635
REMARK INTRA:                  -1.136
REMARK UNBOUND:                -1.710
REMARK  Name = 
REMARK  10 active torsions:
REMARK  status: ('A' for Active; 'I' for Inactive)
REMARK    1  A    between atoms: C_1  and  O_2
REMARK    2  A    between atoms: O_2  and  C_3
REMARK    3  A    between atoms: C_10  and  C_11
REMARK    4  A    between atoms: N_13  and  C_14
REMARK    5  A    between atoms: C_14  and  C_15
REMARK    6  A    between atoms: C_18  and  C_19
REMARK    7  A    between atoms: C_19  and  N_20
REMARK    8  A    between atoms: N_20  and  C_21
REMARK    9  A    between atoms: C_21  and  C_22
REMARK   10  A    between atoms: C_21  and  C_23
REMARK                            x       y       z     vdW  Elec       q    Type
REMARK                         _______ _______ _______ _____ _____    ______ ____
ROOT
ATOM      1  C   UNL     1      48.313   5.992  15.743  0.00  0.00    +0.000 A 
ATOM      2  C   UNL     1      47.553   4.827  15.909  0.00  0.00    +0.000 A 
ATOM      3  C   UNL     1      46.777   4.321  14.858  0.00  0.00    +0.000 A 
ATOM      4  C   UNL     1      46.743   4.961  13.612  0.00  0.00    +0.000 A 
ATOM      5  C   UNL     1      47.581   6.073  13.422  0.00  0.00    +0.000 A 
ATOM      6  C   UNL     1      48.355   6.583  14.473  0.00  0.00    +0.000 A 
ENDROOT
BRANCH   1   7
ATOM      7  C   UNL     1      49.057   6.601  16.907  0.00  0.00    +0.000 C 
BRANCH   7  10
ATOM      8  C   UNL     1      51.337   5.693  17.110  0.00  0.00    +0.000 C 
ATOM      9  O   UNL     1      51.767   6.481  16.272  0.00  0.00    +0.000 OA
ATOM     10  N   UNL     1      50.014   5.693  17.475  0.00  0.00    +0.000 N 
ATOM     11  H   UNL     1      49.680   5.040  18.171  0.00  0.00    +0.000 HD
BRANCH   8  19
ATOM     12  C   UNL     1      51.307   2.256  17.275  0.00  0.00    +0.000 A 
ATOM     13  N   UNL     1      51.565   0.944  17.437  0.00  0.00    +0.000 NA
ATOM     14  C   UNL     1      52.659   0.602  18.124  0.00  0.00    +0.000 A 
ATOM     15  N   UNL     1      53.540   1.422  18.690  0.00  0.00    +0.000 NA
ATOM     16  C   UNL     1      53.253   2.720  18.491  0.00  0.00    +0.000 A 
ATOM     17  S   UNL     1      54.262   3.914  19.151  0.00  0.00    +0.000 S 
ATOM     18  C   UNL     1      53.308   5.157  18.488  0.00  0.00    +0.000 A 
ATOM     19  C   UNL     1      52.217   4.702  17.756  0.00  0.00    +0.000 A 
ATOM     20  C   UNL     1      52.174   3.240  17.782  0.00  0.00    +0.000 A 
BRANCH  12  22
ATOM     21  C   UNL     1      48.972   2.141  17.166  0.00  0.00    +0.000 C 
ATOM     22  O   UNL     1      50.178   2.612  16.571  0.00  0.00    +0.000 OA
ENDBRANCH  12  22
ENDBRANCH   8  19
ENDBRANCH   7  10
ENDBRANCH   1   7
BRANCH   4  23
ATOM     23  C   UNL     1      45.878   4.464  12.466  0.00  0.00    +0.000 C 
BRANCH  23  24
ATOM     24  N   UNL     1      45.259   5.549  11.701  0.00  0.00    +0.000 NA
ATOM     25  H   UNL     1      45.983   6.049  11.189  0.00  0.00    +0.000 HD
BRANCH  24  26
ATOM     26  C   UNL     1      44.197   5.123  10.777  0.00  0.00    +0.000 C 
ATOM     27  C   UNL     1      42.959   4.523  11.459  0.00  0.00    +0.000 C 
BRANCH  26  28
ATOM     28  C   UNL     1      44.774   4.137   9.763  0.00  0.00    +0.000 A 
ATOM     29  C   UNL     1      45.612   4.594   8.732  0.00  0.00    +0.000 A 
ATOM     30  C   UNL     1      46.183   3.697   7.824  0.00  0.00    +0.000 A 
ATOM     31  C   UNL     1      45.926   2.332   7.930  0.00  0.00    +0.000 A 
ATOM     32  C   UNL     1      45.085   1.863   8.936  0.00  0.00    +0.000 A 
ATOM     33  C   UNL     1      44.512   2.757   9.844  0.00  0.00    +0.000 A 
ENDBRANCH  26  28
ENDBRANCH  24  26
ENDBRANCH  23  24
ENDBRANCH   4  23
TORSDOF 8
ENDMDL
MODEL 6
REMARK VINA RESULT:    -6.775      4.692      9.385
REMARK INTER + INTRA:         -11.653
REMARK INTER:                 -10.525
REMARK INTRA:                  -1.128
REMARK UNBOUND:                -1.710
REMARK  Name = 
REMARK  10 active torsions:
REMARK  status: ('A' for Active; 'I' for Inactive)
REMARK    1  A    between atoms: C_1  and  O_2
REMARK    2  A    between atoms: O_2  and  C_3
REMARK    3  A    between atoms: C_10  and  C_11
REMARK    4  A    between atoms: N_13  and  C_14
REMARK    5  A    between atoms: C_14  and  C_15
REMARK    6  A    between atoms: C_18  and  C_19
REMARK    7  A    between atoms: C_19  and  N_20
REMARK    8  A    between atoms: N_20  and  C_21
REMARK    9  A    between atoms: C_21  and  C_22
REMARK   10  A    between atoms: C_21  and  C_23
REMARK                            x       y       z     vdW  Elec       q    Type
REMARK                         _______ _______ _______ _____ _____    ______ ____
ROOT
ATOM      1  C   UNL     1      48.635   3.424  17.048  0.00  0.00    +0.000 A 
ATOM      2  C   UNL     1      49.303   4.606  17.393  0.00  0.00    +0.000 A 
ATOM      3  C   UNL     1      50.657   4.586  17.752  0.00  0.00    +0.000 A 
ATOM      4  C   UNL     1      51.382   3.387  17.771  0.00  0.00    +0.000 A 
ATOM      5  C   UNL     1      50.733   2.221  17.331  0.00  0.00    +0.000 A 
ATOM      6  C   UNL     1      49.378   2.238  16.975  0.00  0.00    +0.000 A 
ENDROOT
BRANCH   1   7
ATOM      7  C   UNL     1      47.151   3.428  16.774  0.00  0.00    +0.000 C 
BRANCH   7  10
ATOM      8  C   UNL     1      46.861   4.215  14.458  0.00  0.00    +0.000 C 
ATOM      9  O   UNL     1      47.259   3.146  14.004  0.00  0.00    +0.000 OA
ATOM     10  N   UNL     1      46.779   4.427  15.811  0.00  0.00    +0.000 N 
ATOM     11  H   UNL     1      46.443   5.312  16.166  0.00  0.00    +0.000 HD
BRANCH   8  19
ATOM     12  C   UNL     1      44.018   4.887  12.639  0.00  0.00    +0.000 A 
ATOM     13  N   UNL     1      43.019   5.414  11.906  0.00  0.00    +0.000 NA
ATOM     14  C   UNL     1      43.222   6.607  11.339  0.00  0.00    +0.000 A 
ATOM     15  N   UNL     1      44.324   7.350  11.405  0.00  0.00    +0.000 NA
ATOM     16  C   UNL     1      45.288   6.793  12.158  0.00  0.00    +0.000 A 
ATOM     17  S   UNL     1      46.773   7.594  12.347  0.00  0.00    +0.000 S 
ATOM     18  C   UNL     1      47.366   6.360  13.355  0.00  0.00    +0.000 A 
ATOM     19  C   UNL     1      46.463   5.325  13.574  0.00  0.00    +0.000 A 
ATOM     20  C   UNL     1      45.227   5.577  12.832  0.00  0.00    +0.000 A 
BRANCH  12  22
ATOM     21  C   UNL     1      43.568   2.619  12.274  0.00  0.00    +0.000 C 
ATOM     22  O   UNL     1      43.815   3.655  13.221  0.00  0.00    +0.000 OA
ENDBRANCH  12  22
ENDBRANCH   8  19
ENDBRANCH   7  10
ENDBRANCH   1   7
BRANCH   4  23
ATOM     23  C   UNL     1      52.839   3.324  18.197  0.00  0.00    +0.000 C 
BRANCH  23  24
ATOM     24  N   UNL     1      53.182   2.079  18.888  0.00  0.00    +0.000 NA
ATOM     25  H   UNL     1      52.590   1.330  18.536  0.00  0.00    +0.000 HD
BRANCH  24  26
ATOM     26  C   UNL     1      54.596   1.687  18.786  0.00  0.00    +0.000 C 
ATOM     27  C   UNL     1      55.475   2.667  17.995  0.00  0.00    +0.000 C 
BRANCH  26  28
ATOM     28  C   UNL     1      54.692   0.286  18.186  0.00  0.00    +0.000 A 
ATOM     29  C   UNL     1      54.726   0.117  16.792  0.00  0.00    +0.000 A 
ATOM     30  C   UNL     1      54.858  -1.156  16.229  0.00  0.00    +0.000 A 
ATOM     31  C   UNL     1      54.958  -2.278  17.048  0.00  0.00    +0.000 A 
ATOM     32  C   UNL     1      54.911  -2.131  18.432  0.00  0.00    +0.000 A 
ATOM     33  C   UNL     1      54.778  -0.860  18.997  0.00  0.00    +0.000 A 
ENDBRANCH  26  28
ENDBRANCH  24  26
ENDBRANCH  23  24
ENDBRANCH   4  23
TORSDOF 8
ENDMDL
MODEL 7
REMARK VINA RESULT:    -6.511      2.324      3.502
REMARK INTER + INTRA:         -11.265
REMARK INTER:                 -10.211
REMARK INTRA:                  -1.055
REMARK UNBOUND:                -1.710
REMARK  Name = 
REMARK  10 active torsions:
REMARK  status: ('A' for Active; 'I' for Inactive)
REMARK    1  A    between atoms: C_1  and  O_2
REMARK    2  A    between atoms: O_2  and  C_3
REMARK    3  A    between atoms: C_10  and  C_11
REMARK    4  A    between atoms: N_13  and  C_14
REMARK    5  A    between atoms: C_14  and  C_15
REMARK    6  A    between atoms: C_18  and  C_19
REMARK    7  A    between atoms: C_19  and  N_20
REMARK    8  A    between atoms: N_20  and  C_21
REMARK    9  A    between atoms: C_21  and  C_22
REMARK   10  A    between atoms: C_21  and  C_23
REMARK                            x       y       z     vdW  Elec       q    Type
REMARK                         _______ _______ _______ _____ _____    ______ ____
ROOT
ATOM      1  C   UNL     1      46.265   7.619  12.886  0.00  0.00    +0.000 A 
ATOM      2  C   UNL     1      46.303   6.224  13.004  0.00  0.00    +0.000 A 
ATOM      3  C   UNL     1      45.417   5.418  12.278  0.00  0.00    +0.000 A 
ATOM      4  C   UNL     1      44.473   5.984  11.408  0.00  0.00    +0.000 A 
ATOM      5  C   UNL     1      44.505   7.375  11.221  0.00  0.00    +0.000 A 
ATOM      6  C   UNL     1      45.388   8.184  11.950  0.00  0.00    +0.000 A 
ENDROOT
BRANCH   1   7
ATOM      7  C   UNL     1      47.140   8.492  13.754  0.00  0.00    +0.000 C 
BRANCH   7  10
ATOM      8  C   UNL     1      49.203   8.338  15.089  0.00  0.00    +0.000 C 
ATOM      9  O   UNL     1      49.304   9.560  15.145  0.00  0.00    +0.000 OA
ATOM     10  N   UNL     1      48.163   7.739  14.423  0.00  0.00    +0.000 N 
ATOM     11  H   UNL     1      48.094   6.731  14.394  0.00  0.00    +0.000 HD
BRANCH   8  19
ATOM     12  C   UNL     1      52.621   8.041  14.815  0.00  0.00    +0.000 A 
ATOM     13  N   UNL     1      53.933   7.767  14.948  0.00  0.00    +0.000 NA
ATOM     14  C   UNL     1      54.288   6.817  15.819  0.00  0.00    +0.000 A 
ATOM     15  N   UNL     1      53.480   6.087  16.583  0.00  0.00    +0.000 NA
ATOM     16  C   UNL     1      52.183   6.405  16.431  0.00  0.00    +0.000 A 
ATOM     17  S   UNL     1      51.003   5.568  17.318  0.00  0.00    +0.000 S 
ATOM     18  C   UNL     1      49.756   6.496  16.631  0.00  0.00    +0.000 A 
ATOM     19  C   UNL     1      50.198   7.455  15.725  0.00  0.00    +0.000 A 
ATOM     20  C   UNL     1      51.653   7.379  15.589  0.00  0.00    +0.000 A 
BRANCH  12  22
ATOM     21  C   UNL     1      52.048   8.515  12.596  0.00  0.00    +0.000 C 
ATOM     22  O   UNL     1      52.250   9.016  13.915  0.00  0.00    +0.000 OA
ENDBRANCH  12  22
ENDBRANCH   8  19
ENDBRANCH   7  10
ENDBRANCH   1   7
BRANCH   4  23
ATOM     23  C   UNL     1      43.469   5.142  10.639  0.00  0.00    +0.000 C 
BRANCH  23  24
ATOM     24  N   UNL     1      44.005   4.615   9.383  0.00  0.00    +0.000 NA
ATOM     25  H   UNL     1      44.892   5.073   9.181  0.00  0.00    +0.000 HD
BRANCH  24  26
ATOM     26  C   UNL     1      44.180   3.155   9.351  0.00  0.00    +0.000 C 
ATOM     27  C   UNL     1      44.351   2.502  10.731  0.00  0.00    +0.000 C 
BRANCH  26  28
ATOM     28  C   UNL     1      45.361   2.805   8.449  0.00  0.00    +0.000 A 
ATOM     29  C   UNL     1      46.000   3.810   7.702  0.00  0.00    +0.000 A 
ATOM     30  C   UNL     1      47.110   3.513   6.906  0.00  0.00    +0.000 A 
ATOM     31  C   UNL     1      47.600   2.210   6.844  0.00  0.00    +0.000 A 
ATOM     32  C   UNL     1      46.970   1.199   7.565  0.00  0.00    +0.000 A 
ATOM     33  C   UNL     1      45.860   1.493   8.360  0.00  0.00    +0.000 A 
ENDBRANCH  26  28
ENDBRANCH  24  26
ENDBRANCH  23  24
ENDBRANCH   4  23
TORSDOF 8
ENDMDL
MODEL 8
REMARK VINA RESULT:    -6.353      3.126      4.460
REMARK INTER + INTRA:         -11.034
REMARK INTER:                  -9.686
REMARK INTRA:                  -1.348
REMARK UNBOUND:                -1.710
REMARK  Name = 
REMARK  10 active torsions:
REMARK  status: ('A' for Active; 'I' for Inactive)
REMARK    1  A    between atoms: C_1  and  O_2
REMARK    2  A    between atoms: O_2  and  C_3
REMARK    3  A    between atoms: C_10  and  C_11
REMARK    4  A    between atoms: N_13  and  C_14
REMARK    5  A    between atoms: C_14  and  C_15
REMARK    6  A    between atoms: C_18  and  C_19
REMARK    7  A    between atoms: C_19  and  N_20
REMARK    8  A    between atoms: N_20  and  C_21
REMARK    9  A    between atoms: C_21  and  C_22
REMARK   10  A    between atoms: C_21  and  C_23
REMARK                            x       y       z     vdW  Elec       q    Type
REMARK                         _______ _______ _______ _____ _____    ______ ____
ROOT
ATOM      1  C   UNL     1      47.286   8.383  12.315  0.00  0.00    +0.000 A 
ATOM      2  C   UNL     1      45.985   8.785  11.987  0.00  0.00    +0.000 A 
ATOM      3  C   UNL     1      45.029   7.851  11.566  0.00  0.00    +0.000 A 
ATOM      4  C   UNL     1      45.346   6.489  11.469  0.00  0.00    +0.000 A 
ATOM      5  C   UNL     1      46.621   6.079  11.891  0.00  0.00    +0.000 A 
ATOM      6  C   UNL     1      47.580   7.013  12.308  0.00  0.00    +0.000 A 
ENDROOT
BRANCH   1   7
ATOM      7  C   UNL     1      48.346   9.402  12.655  0.00  0.00    +0.000 C 
BRANCH   7  10
ATOM      8  C   UNL     1      49.925   8.994  14.501  0.00  0.00    +0.000 C 
ATOM      9  O   UNL     1      49.280   9.708  15.262  0.00  0.00    +0.000 OA
ATOM     10  N   UNL     1      49.527   8.795  13.202  0.00  0.00    +0.000 N 
ATOM     11  H   UNL     1      50.069   8.198  12.592  0.00  0.00    +0.000 HD
BRANCH   8  19
ATOM     12  C   UNL     1      53.014   8.551  13.050  0.00  0.00    +0.000 A 
ATOM     13  N   UNL     1      54.303   8.300  12.748  0.00  0.00    +0.000 NA
ATOM     14  C   UNL     1      55.043   7.656  13.655  0.00  0.00    +0.000 A 
ATOM     15  N   UNL     1      54.648   7.214  14.846  0.00  0.00    +0.000 NA
ATOM     16  C   UNL     1      53.361   7.499  15.111  0.00  0.00    +0.000 A 
ATOM     17  S   UNL     1      52.677   7.000  16.582  0.00  0.00    +0.000 S 
ATOM     18  C   UNL     1      51.181   7.701  16.181  0.00  0.00    +0.000 A 
ATOM     19  C   UNL     1      51.164   8.326  14.938  0.00  0.00    +0.000 A 
ATOM     20  C   UNL     1      52.467   8.179  14.290  0.00  0.00    +0.000 A 
BRANCH  12  22
ATOM     21  C   UNL     1      52.277   8.598  10.828  0.00  0.00    +0.000 C 
ATOM     22  O   UNL     1      52.246   9.210  12.115  0.00  0.00    +0.000 OA
ENDBRANCH  12  22
ENDBRANCH   8  19
ENDBRANCH   7  10
ENDBRANCH   1   7
BRANCH   4  23
ATOM     23  C   UNL     1      44.347   5.455  10.975  0.00  0.00    +0.000 C 
BRANCH  23  24
ATOM     24  N   UNL     1      44.603   5.020   9.601  0.00  0.00    +0.000 NA
ATOM     25  H   UNL     1      45.571   5.228   9.361  0.00  0.00    +0.000 HD
BRANCH  24  26
ATOM     26  C   UNL     1      44.320   3.600   9.342  0.00  0.00    +0.000 C 
ATOM     27  C   UNL     1      44.098   2.752  10.603  0.00  0.00    +0.000 C 
BRANCH  26  28
ATOM     28  C   UNL     1      45.443   3.005   8.495  0.00  0.00    +0.000 A 
ATOM     29  C   UNL     1      45.719   1.629   8.554  0.00  0.00    +0.000 A 
ATOM     30  C   UNL     1      46.714   1.064   7.752  0.00  0.00    +0.000 A 
ATOM     31  C   UNL     1      47.448   1.862   6.877  0.00  0.00    +0.000 A 
ATOM     32  C   UNL     1      47.198   3.231   6.816  0.00  0.00    +0.000 A 
ATOM     33  C   UNL     1      46.205   3.798   7.618  0.00  0.00    +0.000 A 
ENDBRANCH  26  28
ENDBRANCH  24  26
ENDBRANCH  23  24
ENDBRANCH   4  23
TORSDOF 8
ENDMDL
MODEL 9
REMARK VINA RESULT:    -5.717      4.236      6.168
REMARK INTER + INTRA:         -10.100
REMARK INTER:                  -8.859
REMARK INTRA:                  -1.242
REMARK UNBOUND:                -1.710
REMARK  Name = 
REMARK  10 active torsions:
REMARK  status: ('A' for Active; 'I' for Inactive)
REMARK    1  A    between atoms: C_1  and  O_2
REMARK    2  A    between atoms: O_2  and  C_3
REMARK    3  A    between atoms: C_10  and  C_11
REMARK    4  A    between atoms: N_13  and  C_14
REMARK    5  A    between atoms: C_14  and  C_15
REMARK    6  A    between atoms: C_18  and  C_19
REMARK    7  A    between atoms: C_19  and  N_20
REMARK    8  A    between atoms: N_20  and  C_21
REMARK    9  A    between atoms: C_21  and  C_22
REMARK   10  A    between atoms: C_21  and  C_23
REMARK                            x       y       z     vdW  Elec       q    Type
REMARK                         _______ _______ _______ _____ _____    ______ ____
ROOT
ATOM      1  C   UNL     1      47.104   8.663  12.434  0.00  0.00    +0.000 A 
ATOM      2  C   UNL     1      45.802   8.903  11.978  0.00  0.00    +0.000 A 
ATOM      3  C   UNL     1      44.959   7.841  11.624  0.00  0.00    +0.000 A 
ATOM      4  C   UNL     1      45.393   6.511  11.720  0.00  0.00    +0.000 A 
ATOM      5  C   UNL     1      46.665   6.275  12.268  0.00  0.00    +0.000 A 
ATOM      6  C   UNL     1      47.510   7.335  12.620  0.00  0.00    +0.000 A 
ENDROOT
BRANCH   1   7
ATOM      7  C   UNL     1      48.050   9.809  12.705  0.00  0.00    +0.000 C 
BRANCH   7  10
ATOM      8  C   UNL     1      50.462   9.318  12.775  0.00  0.00    +0.000 C 
ATOM      9  O   UNL     1      50.439   9.187  13.996  0.00  0.00    +0.000 OA
ATOM     10  N   UNL     1      49.324   9.623  12.070  0.00  0.00    +0.000 N 
ATOM     11  H   UNL     1      49.362   9.721  11.065  0.00  0.00    +0.000 HD
BRANCH   8  19
ATOM     12  C   UNL     1      51.774  10.944  10.041  0.00  0.00    +0.000 A 
ATOM     13  N   UNL     1      52.531  11.447   9.047  0.00  0.00    +0.000 NA
ATOM     14  C   UNL     1      53.732  10.899   8.838  0.00  0.00    +0.000 A 
ATOM     15  N   UNL     1      54.278   9.886   9.504  0.00  0.00    +0.000 NA
ATOM     16  C   UNL     1      53.496   9.426  10.495  0.00  0.00    +0.000 A 
ATOM     17  S   UNL     1      54.025   8.124  11.447  0.00  0.00    +0.000 S 
ATOM     18  C   UNL     1      52.608   8.171  12.387  0.00  0.00    +0.000 A 
ATOM     19  C   UNL     1      51.712   9.166  12.009  0.00  0.00    +0.000 A 
ATOM     20  C   UNL     1      52.238   9.899  10.857  0.00  0.00    +0.000 A 
BRANCH  12  22
ATOM     21  C   UNL     1      49.708  11.506   9.095  0.00  0.00    +0.000 C 
ATOM     22  O   UNL     1      50.533  11.503  10.257  0.00  0.00    +0.000 OA
ENDBRANCH  12  22
ENDBRANCH   8  19
ENDBRANCH   7  10
ENDBRANCH   1   7
BRANCH   4  23
ATOM     23  C   UNL     1      44.521   5.339  11.303  0.00  0.00    +0.000 C 
BRANCH  23  24
ATOM     24  N   UNL     1      44.604   5.044   9.872  0.00  0.00    +0.000 NA
ATOM     25  H   UNL     1      45.528   5.301   9.531  0.00  0.00    +0.000 HD
BRANCH  24  26
ATOM     26  C   UNL     1      44.313   3.646   9.513  0.00  0.00    +0.000 C 
ATOM     27  C   UNL     1      44.108   2.709  10.712  0.00  0.00    +0.000 C 
BRANCH  26  28
ATOM     28  C   UNL     1      45.423   3.114   8.608  0.00  0.00    +0.000 A 
ATOM     29  C   UNL     1      45.713   1.740   8.581  0.00  0.00    +0.000 A 
ATOM     30  C   UNL     1      46.695   1.233   7.725  0.00  0.00    +0.000 A 
ATOM     31  C   UNL     1      47.402   2.089   6.884  0.00  0.00    +0.000 A 
ATOM     32  C   UNL     1      47.138   3.456   6.908  0.00  0.00    +0.000 A 
ATOM     33  C   UNL     1      46.158   3.965   7.764  0.00  0.00    +0.000 A 
ENDBRANCH  26  28
ENDBRANCH  24  26
ENDBRANCH  23  24
ENDBRANCH   4  23
TORSDOF 8
ENDMDL
