MODEL 1
REMARK VINA RESULT:    -8.620      0.000      0.000
REMARK INTER + INTRA:         -12.910
REMARK INTER:                 -11.896
REMARK INTRA:                  -1.014
REMARK UNBOUND:                -1.014
REMARK  Name = 
REMARK  7 active torsions:
REMARK  status: ('A' for Active; 'I' for Inactive)
REMARK    1  A    between atoms: C_2  and  C_20
REMARK    2  A    between atoms: N_3  and  C_4
REMARK    3  A    between atoms: C_4  and  C_5
REMARK    4  A    between atoms: N_8  and  C_9
REMARK    5  A    between atoms: C_9  and  C_10
REMARK    6  A    between atoms: C_10  and  O_11
REMARK    7  A    between atoms: C_10  and  C_12
REMARK                            x       y       z     vdW  Elec       q    Type
REMARK                         _______ _______ _______ _____ _____    ______ ____
ROOT
ATOM      1  C   UNL     1      45.622   5.361  13.242  0.00  0.00    +0.000 C 
ENDROOT
BRANCH   1   2
ATOM      2  C   UNL     1      44.248   4.679  13.335  0.00  0.00    +0.000 C 
ATOM      3  C   UNL     1      44.248   3.240  12.800  0.00  0.00    +0.000 C 
ATOM      4  C   UNL     1      44.438   3.175  11.284  0.00  0.00    +0.000 C 
ATOM      5  N   UNL     1      43.498   4.023  10.535  0.00  0.00    +0.000 NA
ATOM      6  C   UNL     1      43.416   5.400  11.044  0.00  0.00    +0.000 C 
ATOM      7  C   UNL     1      43.194   5.471  12.556  0.00  0.00    +0.000 C 
BRANCH   5   8
ATOM      8  C   UNL     1      43.848   4.040   9.098  0.00  0.00    +0.000 C 
BRANCH   8   9
ATOM      9  C   UNL     1      45.366   4.078   8.792  0.00  0.00    +0.000 C 
BRANCH   9  10
ATOM     10  C   UNL     1      45.795   3.115   7.658  0.00  0.00    +0.000 C 
ATOM     11  C   UNL     1      46.391   1.817   8.235  0.00  0.00    +0.000 C 
ATOM     12  C   UNL     1      46.840   0.858   7.134  0.00  0.00    +0.000 C 
ATOM     13  C   UNL     1      47.817   1.527   6.174  0.00  0.00    +0.000 C 
ATOM     14  C   UNL     1      47.220   2.793   5.575  0.00  0.00    +0.000 C 
ATOM     15  C   UNL     1      46.777   3.764   6.665  0.00  0.00    +0.000 C 
ENDBRANCH   9  10
BRANCH   9  16
ATOM     16  O   UNL     1      45.752   5.427   8.492  0.00  0.00    +0.000 OA
ATOM     17  H   UNL     1      46.001   5.469   7.554  0.00  0.00    +0.000 HD
ENDBRANCH   9  16
ENDBRANCH   8   9
ENDBRANCH   5   8
ENDBRANCH   1   2
BRANCH   1  20
ATOM     18  O   UNL     1      47.370   3.260  14.073  0.00  0.00    +0.000 OA
ATOM     19  C   UNL     1      47.131   4.192  14.834  0.00  0.00    +0.000 C 
ATOM     20  N   UNL     1      46.363   5.273  14.477  0.00  0.00    +0.000 N 
ATOM     21  H   UNL     1      46.136   5.963  15.180  0.00  0.00    +0.000 HD
BRANCH  19  22
ATOM     22  C   UNL     1      47.701   4.263  16.183  0.00  0.00    +0.000 A 
ATOM     23  C   UNL     1      47.421   3.282  17.123  0.00  0.00    +0.000 A 
ATOM     24  S   UNL     1      48.250   3.505  18.599  0.00  0.00    +0.000 S 
ATOM     25  C   UNL     1      48.969   4.945  18.046  0.00  0.00    +0.000 A 
ATOM     26  N   UNL     1      49.827   5.651  18.829  0.00  0.00    +0.000 NA
ATOM     27  C   UNL     1      50.269   6.740  18.290  0.00  0.00    +0.000 A 
ATOM     28  N   UNL     1      49.921   7.194  17.046  0.00  0.00    +0.000 N 
ATOM     29  C   UNL     1      49.081   6.502  16.209  0.00  0.00    +0.000 A 
ATOM     30  O   UNL     1      48.839   6.911  15.078  0.00  0.00    +0.000 OA
ATOM     31  C   UNL     1      48.571   5.261  16.759  0.00  0.00    +0.000 A 
ATOM     32  H   UNL     1      50.303   8.053  16.679  0.00  0.00    +0.000 HD
ENDBRANCH  19  22
ENDBRANCH   1  20
TORSDOF 7
ENDMDL
MODEL 2
REMARK VINA RESULT:    -8.510      1.364      2.002
REMARK INTER + INTRA:         -12.758
REMARK INTER:                 -11.651
REMARK INTRA:                  -1.108
REMARK UNBOUND:                -1.014
REMARK  Name = 
REMARK  7 active torsions:
REMARK  status: ('A' for Active; 'I' for Inactive)
REMARK    1  A    between atoms: C_2  and  C_20
REMARK    2  A    between atoms: N_3  and  C_4
REMARK    3  A    between atoms: C_4  and  C_5
REMARK    4  A    between atoms: N_8  and  C_9
REMARK    5  A    between atoms: C_9  and  C_10
REMARK    6  A    between atoms: C_10  and  O_11
REMARK    7  A    between atoms: C_10  and  C_12
REMARK                            x       y       z     vdW  Elec       q    Type
REMARK                         _______ _______ _______ _____ _____    ______ ____
ROOT
ATOM      1  C   UNL     1      45.635   6.102  12.918  0.00  0.00    +0.000 C 
ENDROOT
BRANCH   1   2
ATOM      2  C   UNL     1      44.490   5.130  13.245  0.00  0.00    +0.000 C 
ATOM      3  C   UNL     1      44.824   3.668  12.916  0.00  0.00    +0.000 C 
ATOM      4  C   UNL     1      44.925   3.411  11.412  0.00  0.00    +0.000 C 
ATOM      5  N   UNL     1      43.753   3.874  10.655  0.00  0.00    +0.000 NA
ATOM      6  C   UNL     1      43.354   5.253  10.975  0.00  0.00    +0.000 C 
ATOM      7  C   UNL     1      43.220   5.508  12.477  0.00  0.00    +0.000 C 
BRANCH   5   8
ATOM      8  C   UNL     1      43.993   3.747   9.200  0.00  0.00    +0.000 C 
BRANCH   8   9
ATOM      9  C   UNL     1      45.463   3.950   8.756  0.00  0.00    +0.000 C 
BRANCH   9  10
ATOM     10  C   UNL     1      45.877   3.064   7.557  0.00  0.00    +0.000 C 
ATOM     11  C   UNL     1      46.565   1.772   8.038  0.00  0.00    +0.000 C 
ATOM     12  C   UNL     1      47.000   0.889   6.871  0.00  0.00    +0.000 C 
ATOM     13  C   UNL     1      47.892   1.651   5.897  0.00  0.00    +0.000 C 
ATOM     14  C   UNL     1      47.204   2.911   5.391  0.00  0.00    +0.000 C 
ATOM     15  C   UNL     1      46.773   3.807   6.548  0.00  0.00    +0.000 C 
ENDBRANCH   9  10
BRANCH   9  16
ATOM     16  O   UNL     1      45.680   5.338   8.467  0.00  0.00    +0.000 OA
ATOM     17  H   UNL     1      45.532   5.844   9.283  0.00  0.00    +0.000 HD
ENDBRANCH   9  16
ENDBRANCH   8   9
ENDBRANCH   5   8
ENDBRANCH   1   2
BRANCH   1  20
ATOM     18  O   UNL     1      48.483   5.887  12.921  0.00  0.00    +0.000 OA
ATOM     19  C   UNL     1      47.886   6.103  13.971  0.00  0.00    +0.000 C 
ATOM     20  N   UNL     1      46.528   6.293  14.035  0.00  0.00    +0.000 N 
ATOM     21  H   UNL     1      46.091   6.382  14.942  0.00  0.00    +0.000 HD
BRANCH  19  22
ATOM     22  C   UNL     1      48.586   6.238  15.252  0.00  0.00    +0.000 A 
ATOM     23  C   UNL     1      49.593   7.180  15.414  0.00  0.00    +0.000 A 
ATOM     24  S   UNL     1      50.218   7.232  17.002  0.00  0.00    +0.000 S 
ATOM     25  C   UNL     1      49.200   5.966  17.508  0.00  0.00    +0.000 A 
ATOM     26  N   UNL     1      49.216   5.518  18.792  0.00  0.00    +0.000 NA
ATOM     27  C   UNL     1      48.415   4.530  19.023  0.00  0.00    +0.000 A 
ATOM     28  N   UNL     1      47.609   3.942  18.086  0.00  0.00    +0.000 N 
ATOM     29  C   UNL     1      47.537   4.377  16.786  0.00  0.00    +0.000 A 
ATOM     30  O   UNL     1      46.759   3.863  15.989  0.00  0.00    +0.000 OA
ATOM     31  C   UNL     1      48.405   5.498  16.478  0.00  0.00    +0.000 A 
ATOM     32  H   UNL     1      47.002   3.174  18.330  0.00  0.00    +0.000 HD
ENDBRANCH  19  22
ENDBRANCH   1  20
TORSDOF 7
ENDMDL
MODEL 3
REMARK VINA RESULT:    -7.697      2.011      2.752
REMARK INTER + INTRA:         -11.636
REMARK INTER:                 -10.639
REMARK INTRA:                  -0.997
REMARK UNBOUND:                -1.014
REMARK  Name = 
REMARK  7 active torsions:
REMARK  status: ('A' for Active; 'I' for Inactive)
REMARK    1  A    between atoms: C_2  and  C_20
REMARK    2  A    between atoms: N_3  and  C_4
REMARK    3  A    between atoms: C_4  and  C_5
REMARK    4  A    between atoms: N_8  and  C_9
REMARK    5  A    between atoms: C_9  and  C_10
REMARK    6  A    between atoms: C_10  and  O_11
REMARK    7  A    between atoms: C_10  and  C_12
REMARK                            x       y       z     vdW  Elec       q    Type
REMARK                         _______ _______ _______ _____ _____    ______ ____
ROOT
ATOM      1  C   UNL     1      45.321   6.725  12.484  0.00  0.00    +0.000 C 
ENDROOT
BRANCH   1   2
ATOM      2  C   UNL     1      44.494   5.698  13.274  0.00  0.00    +0.000 C 
ATOM      3  C   UNL     1      45.175   4.326  13.384  0.00  0.00    +0.000 C 
ATOM      4  C   UNL     1      45.241   3.591  12.044  0.00  0.00    +0.000 C 
ATOM      5  N   UNL     1      43.942   3.488  11.364  0.00  0.00    +0.000 NA
ATOM      6  C   UNL     1      43.219   4.766  11.281  0.00  0.00    +0.000 C 
ATOM      7  C   UNL     1      43.122   5.491  12.626  0.00  0.00    +0.000 C 
BRANCH   5   8
ATOM      8  C   UNL     1      44.111   2.920  10.008  0.00  0.00    +0.000 C 
BRANCH   8   9
ATOM      9  C   UNL     1      44.929   3.796   9.026  0.00  0.00    +0.000 C 
BRANCH   9  10
ATOM     10  C   UNL     1      46.101   3.043   8.353  0.00  0.00    +0.000 C 
ATOM     11  C   UNL     1      46.347   3.569   6.925  0.00  0.00    +0.000 C 
ATOM     12  C   UNL     1      47.488   2.827   6.233  0.00  0.00    +0.000 C 
ATOM     13  C   UNL     1      47.252   1.321   6.226  0.00  0.00    +0.000 C 
ATOM     14  C   UNL     1      47.042   0.790   7.637  0.00  0.00    +0.000 C 
ATOM     15  C   UNL     1      45.898   1.516   8.336  0.00  0.00    +0.000 C 
ENDBRANCH   9  10
BRANCH   9  16
ATOM     16  O   UNL     1      44.045   4.352   8.043  0.00  0.00    +0.000 OA
ATOM     17  H   UNL     1      44.560   4.948   7.475  0.00  0.00    +0.000 HD
ENDBRANCH   9  16
ENDBRANCH   8   9
ENDBRANCH   5   8
ENDBRANCH   1   2
BRANCH   1  20
ATOM     18  O   UNL     1      48.139   6.254  12.478  0.00  0.00    +0.000 OA
ATOM     19  C   UNL     1      47.652   7.036  13.288  0.00  0.00    +0.000 C 
ATOM     20  N   UNL     1      46.321   7.369  13.302  0.00  0.00    +0.000 N 
ATOM     21  H   UNL     1      45.971   7.953  14.050  0.00  0.00    +0.000 HD
BRANCH  19  22
ATOM     22  C   UNL     1      48.470   7.736  14.283  0.00  0.00    +0.000 A 
ATOM     23  C   UNL     1      48.932   9.023  14.043  0.00  0.00    +0.000 A 
ATOM     24  S   UNL     1      49.791   9.688  15.361  0.00  0.00    +0.000 S 
ATOM     25  C   UNL     1      49.616   8.262  16.272  0.00  0.00    +0.000 A 
ATOM     26  N   UNL     1      50.118   8.163  17.532  0.00  0.00    +0.000 NA
ATOM     27  C   UNL     1      49.939   7.011  18.090  0.00  0.00    +0.000 A 
ATOM     28  N   UNL     1      49.316   5.945  17.499  0.00  0.00    +0.000 N 
ATOM     29  C   UNL     1      48.769   6.005  16.241  0.00  0.00    +0.000 A 
ATOM     30  O   UNL     1      48.166   5.047  15.767  0.00  0.00    +0.000 OA
ATOM     31  C   UNL     1      48.926   7.285  15.577  0.00  0.00    +0.000 A 
ATOM     32  H   UNL     1      49.205   5.070  17.989  0.00  0.00    +0.000 HD
ENDBRANCH  19  22
ENDBRANCH   1  20
TORSDOF 7
ENDMDL
MODEL 4
REMARK VINA RESULT:    -7.014      3.390      9.244
REMARK INTER + INTRA:         -10.694
REMARK INTER:                  -9.481
REMARK INTRA:                  -1.213
REMARK UNBOUND:                -1.014
REMARK  Name = 
REMARK  7 active torsions:
REMARK  status: ('A' for Active; 'I' for Inactive)
REMARK    1  A    between atoms: C_2  and  C_20
REMARK    2  A    between atoms: N_3  and  C_4
REMARK    3  A    between atoms: C_4  and  C_5
REMARK    4  A    between atoms: N_8  and  C_9
REMARK    5  A    between atoms: C_9  and  C_10
REMARK    6  A    between atoms: C_10  and  O_11
REMARK    7  A    between atoms: C_10  and  C_12
REMARK                            x       y       z     vdW  Elec       q    Type
REMARK                         _______ _______ _______ _____ _____    ______ ____
ROOT
ATOM      1  C   UNL     1      47.886   4.868  16.133  0.00  0.00    +0.000 C 
ENDROOT
BRANCH   1   2
ATOM      2  C   UNL     1      47.164   4.362  17.391  0.00  0.00    +0.000 C 
ATOM      3  C   UNL     1      47.090   5.410  18.511  0.00  0.00    +0.000 C 
ATOM      4  C   UNL     1      48.456   5.707  19.131  0.00  0.00    +0.000 C 
ATOM      5  N   UNL     1      49.177   4.504  19.573  0.00  0.00    +0.000 NA
ATOM      6  C   UNL     1      49.228   3.443  18.555  0.00  0.00    +0.000 C 
ATOM      7  C   UNL     1      47.859   3.119  17.954  0.00  0.00    +0.000 C 
BRANCH   5   8
ATOM      8  C   UNL     1      50.550   4.851  20.003  0.00  0.00    +0.000 C 
BRANCH   8   9
ATOM      9  C   UNL     1      51.677   4.368  19.056  0.00  0.00    +0.000 C 
BRANCH   9  10
ATOM     10  C   UNL     1      52.333   5.507  18.241  0.00  0.00    +0.000 C 
ATOM     11  C   UNL     1      51.525   5.807  16.964  0.00  0.00    +0.000 C 
ATOM     12  C   UNL     1      52.164   6.916  16.131  0.00  0.00    +0.000 C 
ATOM     13  C   UNL     1      53.616   6.596  15.795  0.00  0.00    +0.000 C 
ATOM     14  C   UNL     1      54.428   6.333  17.056  0.00  0.00    +0.000 C 
ATOM     15  C   UNL     1      53.806   5.219  17.891  0.00  0.00    +0.000 C 
ENDBRANCH   9  10
BRANCH   9  16
ATOM     16  O   UNL     1      52.659   3.653  19.820  0.00  0.00    +0.000 OA
ATOM     17  H   UNL     1      52.262   3.414  20.674  0.00  0.00    +0.000 HD
ENDBRANCH   9  16
ENDBRANCH   8   9
ENDBRANCH   5   8
ENDBRANCH   1   2
BRANCH   1  20
ATOM     18  O   UNL     1      48.478   6.058  13.605  0.00  0.00    +0.000 OA
ATOM     19  C   UNL     1      47.329   5.721  13.866  0.00  0.00    +0.000 C 
ATOM     20  N   UNL     1      46.982   5.077  15.028  0.00  0.00    +0.000 N 
ATOM     21  H   UNL     1      46.004   4.905  15.217  0.00  0.00    +0.000 HD
BRANCH  19  22
ATOM     22  C   UNL     1      46.223   5.927  12.925  0.00  0.00    +0.000 A 
ATOM     23  C   UNL     1      45.828   7.207  12.564  0.00  0.00    +0.000 A 
ATOM     24  S   UNL     1      44.583   7.225  11.395  0.00  0.00    +0.000 S 
ATOM     25  C   UNL     1      44.499   5.525  11.372  0.00  0.00    +0.000 A 
ATOM     26  N   UNL     1      43.630   4.872  10.556  0.00  0.00    +0.000 NA
ATOM     27  C   UNL     1      43.654   3.585  10.670  0.00  0.00    +0.000 A 
ATOM     28  N   UNL     1      44.457   2.891  11.535  0.00  0.00    +0.000 N 
ATOM     29  C   UNL     1      45.369   3.504  12.359  0.00  0.00    +0.000 A 
ATOM     30  O   UNL     1      46.114   2.846  13.078  0.00  0.00    +0.000 OA
ATOM     31  C   UNL     1      45.396   4.951  12.255  0.00  0.00    +0.000 A 
ATOM     32  H   UNL     1      44.431   1.884  11.576  0.00  0.00    +0.000 HD
ENDBRANCH  19  22
ENDBRANCH   1  20
TORSDOF 7
ENDMDL
MODEL 5
REMARK VINA RESULT:    -6.935      2.779      8.511
REMARK INTER + INTRA:         -10.584
REMARK INTER:                  -9.472
REMARK INTRA:                  -1.112
REMARK UNBOUND:                -1.014
REMARK  Name = 
REMARK  7 active torsions:
REMARK  status: ('A' for Active; 'I' for Inactive)
REMARK    1  A    between atoms: C_2  and  C_20
REMARK    2  A    between atoms: N_3  and  C_4
REMARK    3  A    between atoms: C_4  and  C_5
REMARK    4  A    between atoms: N_8  and  C_9
REMARK    5  A    between atoms: C_9  and  C_10
REMARK    6  A    between atoms: C_10  and  O_11
REMARK    7  A    between atoms: C_10  and  C_12
REMARK                            x       y       z     vdW  Elec       q    Type
REMARK                         _______ _______ _______ _____ _____    ______ ____
ROOT
ATOM      1  C   UNL     1      46.412   8.157  13.070  0.00  0.00    +0.000 C 
ENDROOT
BRANCH   1   2
ATOM      2  C   UNL     1      47.857   8.434  12.625  0.00  0.00    +0.000 C 
ATOM      3  C   UNL     1      48.767   7.201  12.718  0.00  0.00    +0.000 C 
ATOM      4  C   UNL     1      49.045   6.782  14.162  0.00  0.00    +0.000 C 
ATOM      5  N   UNL     1      49.542   7.877  15.009  0.00  0.00    +0.000 NA
ATOM      6  C   UNL     1      48.738   9.104  14.913  0.00  0.00    +0.000 C 
ATOM      7  C   UNL     1      48.483   9.547  13.470  0.00  0.00    +0.000 C 
BRANCH   5   8
ATOM      8  C   UNL     1      49.627   7.443  16.420  0.00  0.00    +0.000 C 
BRANCH   8   9
ATOM      9  C   UNL     1      48.347   6.772  16.980  0.00  0.00    +0.000 C 
BRANCH   9  10
ATOM     10  C   UNL     1      48.570   5.318  17.462  0.00  0.00    +0.000 C 
ATOM     11  C   UNL     1      50.046   4.906  17.306  0.00  0.00    +0.000 C 
ATOM     12  C   UNL     1      50.287   3.467  17.757  0.00  0.00    +0.000 C 
ATOM     13  C   UNL     1      49.368   2.492  17.029  0.00  0.00    +0.000 C 
ATOM     14  C   UNL     1      47.906   2.875  17.207  0.00  0.00    +0.000 C 
ATOM     15  C   UNL     1      47.650   4.307  16.750  0.00  0.00    +0.000 C 
ENDBRANCH   9  10
BRANCH   9  16
ATOM     16  O   UNL     1      47.812   7.585  18.033  0.00  0.00    +0.000 OA
ATOM     17  H   UNL     1      48.273   8.439  18.020  0.00  0.00    +0.000 HD
ENDBRANCH   9  16
ENDBRANCH   8   9
ENDBRANCH   5   8
ENDBRANCH   1   2
BRANCH   1  20
ATOM     18  O   UNL     1      44.327   7.600  11.199  0.00  0.00    +0.000 OA
ATOM     19  C   UNL     1      44.885   6.678  11.783  0.00  0.00    +0.000 C 
ATOM     20  N   UNL     1      45.944   6.863  12.638  0.00  0.00    +0.000 N 
ATOM     21  H   UNL     1      46.301   6.069  13.152  0.00  0.00    +0.000 HD
BRANCH  19  22
ATOM     22  C   UNL     1      44.506   5.278  11.572  0.00  0.00    +0.000 A 
ATOM     23  C   UNL     1      43.800   4.580  12.542  0.00  0.00    +0.000 A 
ATOM     24  S   UNL     1      43.384   2.994  12.064  0.00  0.00    +0.000 S 
ATOM     25  C   UNL     1      44.174   3.174  10.568  0.00  0.00    +0.000 A 
ATOM     26  N   UNL     1      44.186   2.170   9.651  0.00  0.00    +0.000 NA
ATOM     27  C   UNL     1      44.853   2.435   8.576  0.00  0.00    +0.000 A 
ATOM     28  N   UNL     1      45.519   3.608   8.339  0.00  0.00    +0.000 N 
ATOM     29  C   UNL     1      45.514   4.660   9.222  0.00  0.00    +0.000 A 
ATOM     30  O   UNL     1      46.074   5.716   8.950  0.00  0.00    +0.000 OA
ATOM     31  C   UNL     1      44.762   4.419  10.440  0.00  0.00    +0.000 A 
ATOM     32  H   UNL     1      46.021   3.756   7.477  0.00  0.00    +0.000 HD
ENDBRANCH  19  22
ENDBRANCH   1  20
TORSDOF 7
ENDMDL
MODEL 6
REMARK VINA RESULT:    -6.905      3.700      8.815
REMARK INTER + INTRA:         -10.543
REMARK INTER:                  -9.613
REMARK INTRA:                  -0.930
REMARK UNBOUND:                -1.014
REMARK  Name = 
REMARK  7 active torsions:
REMARK  status: ('A' for Active; 'I' for Inactive)
REMARK    1  A    between atoms: C_2  and  C_20
REMARK    2  A    between atoms: N_3  and  C_4
REMARK    3  A    between atoms: C_4  and  C_5
REMARK    4  A    between atoms: N_8  and  C_9
REMARK    5  A    between atoms: C_9  and  C_10
REMARK    6  A    between atoms: C_10  and  O_11
REMARK    7  A    between atoms: C_10  and  C_12
REMARK                            x       y       z     vdW  Elec       q    Type
REMARK                         _______ _______ _______ _____ _____    ______ ____
ROOT
ATOM      1  C   UNL     1      49.416   7.134  15.638  0.00  0.00    +0.000 C 
ENDROOT
BRANCH   1   2
ATOM      2  C   UNL     1      49.239   8.358  16.550  0.00  0.00    +0.000 C 
ATOM      3  C   UNL     1      50.414   8.570  17.515  0.00  0.00    +0.000 C 
ATOM      4  C   UNL     1      50.495   7.487  18.592  0.00  0.00    +0.000 C 
ATOM      5  N   UNL     1      49.235   7.287  19.323  0.00  0.00    +0.000 NA
ATOM      6  C   UNL     1      48.065   7.136  18.444  0.00  0.00    +0.000 C 
ATOM      7  C   UNL     1      47.961   8.234  17.385  0.00  0.00    +0.000 C 
BRANCH   5   8
ATOM      8  C   UNL     1      49.339   6.119  20.224  0.00  0.00    +0.000 C 
BRANCH   8   9
ATOM      9  C   UNL     1      48.609   4.843  19.734  0.00  0.00    +0.000 C 
BRANCH   9  10
ATOM     10  C   UNL     1      49.264   4.193  18.491  0.00  0.00    +0.000 C 
ATOM     11  C   UNL     1      48.472   2.953  18.036  0.00  0.00    +0.000 C 
ATOM     12  C   UNL     1      49.110   2.282  16.821  0.00  0.00    +0.000 C 
ATOM     13  C   UNL     1      50.571   1.931  17.081  0.00  0.00    +0.000 C 
ATOM     14  C   UNL     1      51.367   3.159  17.499  0.00  0.00    +0.000 C 
ATOM     15  C   UNL     1      50.745   3.832  18.718  0.00  0.00    +0.000 C 
ENDBRANCH   9  10
BRANCH   9  16
ATOM     16  O   UNL     1      48.521   3.906  20.816  0.00  0.00    +0.000 OA
ATOM     17  H   UNL     1      49.401   3.518  20.953  0.00  0.00    +0.000 HD
ENDBRANCH   9  16
ENDBRANCH   8   9
ENDBRANCH   5   8
ENDBRANCH   1   2
BRANCH   1  20
ATOM     18  O   UNL     1      49.215   6.435  12.876  0.00  0.00    +0.000 OA
ATOM     19  C   UNL     1      48.197   6.565  13.548  0.00  0.00    +0.000 C 
ATOM     20  N   UNL     1      48.218   6.825  14.896  0.00  0.00    +0.000 N 
ATOM     21  H   UNL     1      47.344   7.004  15.371  0.00  0.00    +0.000 HD
BRANCH  19  22
ATOM     22  C   UNL     1      46.858   6.392  12.976  0.00  0.00    +0.000 A 
ATOM     23  C   UNL     1      46.135   7.486  12.522  0.00  0.00    +0.000 A 
ATOM     24  S   UNL     1      44.639   7.059  11.817  0.00  0.00    +0.000 S 
ATOM     25  C   UNL     1      44.889   5.408  12.141  0.00  0.00    +0.000 A 
ATOM     26  N   UNL     1      43.976   4.470  11.773  0.00  0.00    +0.000 NA
ATOM     27  C   UNL     1      44.284   3.262  12.113  0.00  0.00    +0.000 A 
ATOM     28  N   UNL     1      45.414   2.906  12.799  0.00  0.00    +0.000 N 
ATOM     29  C   UNL     1      46.377   3.813  13.168  0.00  0.00    +0.000 A 
ATOM     30  O   UNL     1      47.405   3.450  13.730  0.00  0.00    +0.000 OA
ATOM     31  C   UNL     1      46.089   5.184  12.792  0.00  0.00    +0.000 A 
ATOM     32  H   UNL     1      45.599   1.943  13.034  0.00  0.00    +0.000 HD
ENDBRANCH  19  22
ENDBRANCH   1  20
TORSDOF 7
ENDMDL
MODEL 7
REMARK VINA RESULT:    -6.877      2.429      3.748
REMARK INTER + INTRA:         -10.504
REMARK INTER:                  -9.490
REMARK INTRA:                  -1.015
REMARK UNBOUND:                -1.014
REMARK  Name = 
REMARK  7 active torsions:
REMARK  status: ('A' for Active; 'I' for Inactive)
REMARK    1  A    between atoms: C_2  and  C_20
REMARK    2  A    between atoms: N_3  and  C_4
REMARK    3  A    between atoms: C_4  and  C_5
REMARK    4  A    between atoms: N_8  and  C_9
REMARK    5  A    between atoms: C_9  and  C_10
REMARK    6  A    between atoms: C_10  and  O_11
REMARK    7  A    between atoms: C_10  and  C_12
REMARK                            x       y       z     vdW  Elec       q    Type
REMARK                         _______ _______ _______ _____ _____    ______ ____
ROOT
ATOM      1  C   UNL     1      47.141   8.061  13.637  0.00  0.00    +0.000 C 
ENDROOT
BRANCH   1   2
ATOM      2  C   UNL     1      47.815   6.848  12.975  0.00  0.00    +0.000 C 
ATOM      3  C   UNL     1      47.602   6.792  11.455  0.00  0.00    +0.000 C 
ATOM      4  C   UNL     1      46.152   6.490  11.073  0.00  0.00    +0.000 C 
ATOM      5  N   UNL     1      45.606   5.295  11.733  0.00  0.00    +0.000 NA
ATOM      6  C   UNL     1      45.833   5.270  13.186  0.00  0.00    +0.000 C 
ATOM      7  C   UNL     1      47.289   5.541  13.572  0.00  0.00    +0.000 C 
BRANCH   5   8
ATOM      8  C   UNL     1      44.160   5.163  11.451  0.00  0.00    +0.000 C 
BRANCH   8   9
ATOM      9  C   UNL     1      43.785   4.040  10.451  0.00  0.00    +0.000 C 
BRANCH   9  10
ATOM     10  C   UNL     1      44.988   3.513   9.631  0.00  0.00    +0.000 C 
ATOM     11  C   UNL     1      45.234   4.390   8.389  0.00  0.00    +0.000 C 
ATOM     12  C   UNL     1      46.406   3.879   7.553  0.00  0.00    +0.000 C 
ATOM     13  C   UNL     1      46.215   2.418   7.160  0.00  0.00    +0.000 C 
ATOM     14  C   UNL     1      46.005   1.541   8.387  0.00  0.00    +0.000 C 
ATOM     15  C   UNL     1      44.831   2.035   9.225  0.00  0.00    +0.000 C 
ENDBRANCH   9  10
BRANCH   9  16
ATOM     16  O   UNL     1      43.142   2.973  11.160  0.00  0.00    +0.000 OA
ATOM     17  H   UNL     1      42.563   2.501  10.539  0.00  0.00    +0.000 HD
ENDBRANCH   9  16
ENDBRANCH   8   9
ENDBRANCH   5   8
ENDBRANCH   1   2
BRANCH   1  20
ATOM     18  O   UNL     1      49.317   9.591  14.677  0.00  0.00    +0.000 OA
ATOM     19  C   UNL     1      48.630   8.914  15.435  0.00  0.00    +0.000 C 
ATOM     20  N   UNL     1      47.524   8.214  15.020  0.00  0.00    +0.000 N 
ATOM     21  H   UNL     1      47.054   7.609  15.679  0.00  0.00    +0.000 HD
BRANCH  19  22
ATOM     22  C   UNL     1      48.896   8.842  16.875  0.00  0.00    +0.000 A 
ATOM     23  C   UNL     1      48.833   9.981  17.665  0.00  0.00    +0.000 A 
ATOM     24  S   UNL     1      49.092   9.667  19.324  0.00  0.00    +0.000 S 
ATOM     25  C   UNL     1      49.346   8.010  19.031  0.00  0.00    +0.000 A 
ATOM     26  N   UNL     1      49.606   7.145  20.047  0.00  0.00    +0.000 NA
ATOM     27  C   UNL     1      49.810   5.925  19.672  0.00  0.00    +0.000 A 
ATOM     28  N   UNL     1      49.792   5.493  18.373  0.00  0.00    +0.000 N 
ATOM     29  C   UNL     1      49.508   6.323  17.316  0.00  0.00    +0.000 A 
ATOM     30  O   UNL     1      49.442   5.887  16.171  0.00  0.00    +0.000 OA
ATOM     31  C   UNL     1      49.251   7.702  17.686  0.00  0.00    +0.000 A 
ATOM     32  H   UNL     1      49.958   4.525  18.144  0.00  0.00    +0.000 HD
ENDBRANCH  19  22
ENDBRANCH   1  20
TORSDOF 7
ENDMDL
MODEL 8
REMARK VINA RESULT:    -6.859      2.235      2.860
REMARK INTER + INTRA:         -10.479
REMARK INTER:                  -9.646
REMARK INTRA:                  -0.834
REMARK UNBOUND:                -1.014
REMARK  Name = 
REMARK  7 active torsions:
REMARK  status: ('A' for Active; 'I' for Inactive)
REMARK    1  A    between atoms: C_2  and  C_20
REMARK    2  A    between atoms: N_3  and  C_4
REMARK    3  A    between atoms: C_4  and  C_5
REMARK    4  A    between atoms: N_8  and  C_9
REMARK    5  A    between atoms: C_9  and  C_10
REMARK    6  A    between atoms: C_10  and  O_11
REMARK    7  A    between atoms: C_10  and  C_12
REMARK                            x       y       z     vdW  Elec       q    Type
REMARK                         _______ _______ _______ _____ _____    ______ ____
ROOT
ATOM      1  C   UNL     1      47.832   6.327  13.820  0.00  0.00    +0.000 C 
ENDROOT
BRANCH   1   2
ATOM      2  C   UNL     1      46.852   7.289  13.130  0.00  0.00    +0.000 C 
ATOM      3  C   UNL     1      45.390   6.827  13.214  0.00  0.00    +0.000 C 
ATOM      4  C   UNL     1      45.118   5.577  12.376  0.00  0.00    +0.000 C 
ATOM      5  N   UNL     1      45.561   5.696  10.979  0.00  0.00    +0.000 NA
ATOM      6  C   UNL     1      46.939   6.190  10.840  0.00  0.00    +0.000 C 
ATOM      7  C   UNL     1      47.208   7.459  11.651  0.00  0.00    +0.000 C 
BRANCH   5   8
ATOM      8  C   UNL     1      45.421   4.400  10.280  0.00  0.00    +0.000 C 
BRANCH   8   9
ATOM      9  C   UNL     1      44.965   4.496   8.802  0.00  0.00    +0.000 C 
BRANCH   9  10
ATOM     10  C   UNL     1      45.464   3.325   7.921  0.00  0.00    +0.000 C 
ATOM     11  C   UNL     1      45.813   2.097   8.784  0.00  0.00    +0.000 C 
ATOM     12  C   UNL     1      46.327   0.934   7.939  0.00  0.00    +0.000 C 
ATOM     13  C   UNL     1      47.515   1.351   7.078  0.00  0.00    +0.000 C 
ATOM     14  C   UNL     1      47.166   2.543   6.198  0.00  0.00    +0.000 C 
ATOM     15  C   UNL     1      46.661   3.716   7.033  0.00  0.00    +0.000 C 
ENDBRANCH   9  10
BRANCH   9  16
ATOM     16  O   UNL     1      43.535   4.599   8.756  0.00  0.00    +0.000 OA
ATOM     17  H   UNL     1      43.175   3.718   8.561  0.00  0.00    +0.000 HD
ENDBRANCH   9  16
ENDBRANCH   8   9
ENDBRANCH   5   8
ENDBRANCH   1   2
BRANCH   1  20
ATOM     18  O   UNL     1      50.090   6.479  15.563  0.00  0.00    +0.000 OA
ATOM     19  C   UNL     1      48.957   6.469  16.032  0.00  0.00    +0.000 C 
ATOM     20  N   UNL     1      47.825   6.473  15.256  0.00  0.00    +0.000 N 
ATOM     21  H   UNL     1      46.924   6.378  15.706  0.00  0.00    +0.000 HD
BRANCH  19  22
ATOM     22  C   UNL     1      48.711   6.512  17.477  0.00  0.00    +0.000 A 
ATOM     23  C   UNL     1      48.901   5.384  18.263  0.00  0.00    +0.000 A 
ATOM     24  S   UNL     1      48.642   5.670  19.926  0.00  0.00    +0.000 S 
ATOM     25  C   UNL     1      48.221   7.294  19.643  0.00  0.00    +0.000 A 
ATOM     26  N   UNL     1      47.896   8.127  20.667  0.00  0.00    +0.000 NA
ATOM     27  C   UNL     1      47.565   9.322  20.299  0.00  0.00    +0.000 A 
ATOM     28  N   UNL     1      47.517   9.755  19.001  0.00  0.00    +0.000 N 
ATOM     29  C   UNL     1      47.863   8.959  17.937  0.00  0.00    +0.000 A 
ATOM     30  O   UNL     1      47.864   9.400  16.792  0.00  0.00    +0.000 OA
ATOM     31  C   UNL     1      48.261   7.611  18.297  0.00  0.00    +0.000 A 
ATOM     32  H   UNL     1      47.253  10.703  18.778  0.00  0.00    +0.000 HD
ENDBRANCH  19  22
ENDBRANCH   1  20
TORSDOF 7
ENDMDL
MODEL 9
REMARK VINA RESULT:    -6.266      4.034      8.961
REMARK INTER + INTRA:          -9.661
REMARK INTER:                  -8.592
REMARK INTRA:                  -1.069
REMARK UNBOUND:                -1.014
REMARK  Name = 
REMARK  7 active torsions:
REMARK  status: ('A' for Active; 'I' for Inactive)
REMARK    1  A    between atoms: C_2  and  C_20
REMARK    2  A    between atoms: N_3  and  C_4
REMARK    3  A    between atoms: C_4  and  C_5
REMARK    4  A    between atoms: N_8  and  C_9
REMARK    5  A    between atoms: C_9  and  C_10
REMARK    6  A    between atoms: C_10  and  O_11
REMARK    7  A    between atoms: C_10  and  C_12
REMARK                            x       y       z     vdW  Elec       q    Type
REMARK                         _______ _______ _______ _____ _____    ______ ____
ROOT
ATOM      1  C   UNL     1      49.253   7.359  12.206  0.00  0.00    +0.000 C 
ENDROOT
BRANCH   1   2
ATOM      2  C   UNL     1      49.625   8.788  11.780  0.00  0.00    +0.000 C 
ATOM      3  C   UNL     1      50.990   9.244  12.317  0.00  0.00    +0.000 C 
ATOM      4  C   UNL     1      50.989   9.446  13.833  0.00  0.00    +0.000 C 
ATOM      5  N   UNL     1      49.908  10.321  14.311  0.00  0.00    +0.000 NA
ATOM      6  C   UNL     1      48.585   9.962  13.780  0.00  0.00    +0.000 C 
ATOM      7  C   UNL     1      48.572   9.790  12.259  0.00  0.00    +0.000 C 
BRANCH   5   8
ATOM      8  C   UNL     1      49.868  10.334  15.789  0.00  0.00    +0.000 C 
BRANCH   8   9
ATOM      9  C   UNL     1      48.557   9.797  16.416  0.00  0.00    +0.000 C 
BRANCH   9  10
ATOM     10  C   UNL     1      48.775   8.621  17.398  0.00  0.00    +0.000 C 
ATOM     11  C   UNL     1      48.942   7.292  16.637  0.00  0.00    +0.000 C 
ATOM     12  C   UNL     1      49.140   6.112  17.586  0.00  0.00    +0.000 C 
ATOM     13  C   UNL     1      48.009   6.018  18.604  0.00  0.00    +0.000 C 
ATOM     14  C   UNL     1      47.861   7.318  19.383  0.00  0.00    +0.000 C 
ATOM     15  C   UNL     1      47.652   8.503  18.446  0.00  0.00    +0.000 C 
ENDBRANCH   9  10
BRANCH   9  16
ATOM     16  O   UNL     1      47.865  10.877  17.056  0.00  0.00    +0.000 OA
ATOM     17  H   UNL     1      47.717  10.634  17.985  0.00  0.00    +0.000 HD
ENDBRANCH   9  16
ENDBRANCH   8   9
ENDBRANCH   5   8
ENDBRANCH   1   2
BRANCH   1  20
ATOM     18  O   UNL     1      47.347   6.189  13.984  0.00  0.00    +0.000 OA
ATOM     19  C   UNL     1      47.035   6.419  12.820  0.00  0.00    +0.000 C 
ATOM     20  N   UNL     1      47.871   7.046  11.930  0.00  0.00    +0.000 N 
ATOM     21  H   UNL     1      47.584   7.127  10.964  0.00  0.00    +0.000 HD
BRANCH  19  22
ATOM     22  C   UNL     1      45.708   6.093  12.290  0.00  0.00    +0.000 A 
ATOM     23  C   UNL     1      44.896   7.083  11.755  0.00  0.00    +0.000 A 
ATOM     24  S   UNL     1      43.430   6.482  11.116  0.00  0.00    +0.000 S 
ATOM     25  C   UNL     1      43.813   4.890  11.579  0.00  0.00    +0.000 A 
ATOM     26  N   UNL     1      42.972   3.856  11.310  0.00  0.00    +0.000 NA
ATOM     27  C   UNL     1      43.377   2.710  11.750  0.00  0.00    +0.000 A 
ATOM     28  N   UNL     1      44.539   2.505  12.444  0.00  0.00    +0.000 N 
ATOM     29  C   UNL     1      45.433   3.512  12.715  0.00  0.00    +0.000 A 
ATOM     30  O   UNL     1      46.492   3.280  13.288  0.00  0.00    +0.000 OA
ATOM     31  C   UNL     1      45.034   4.818  12.226  0.00  0.00    +0.000 A 
ATOM     32  H   UNL     1      44.802   1.583  12.760  0.00  0.00    +0.000 HD
ENDBRANCH  19  22
ENDBRANCH   1  20
TORSDOF 7
ENDMDL
