MODEL 1
REMARK VINA RESULT:    -8.294      0.000      0.000
REMARK INTER + INTRA:         -13.767
REMARK INTER:                 -12.658
REMARK INTRA:                  -1.110
REMARK UNBOUND:                -1.110
REMARK  Name = 
REMARK  10 active torsions:
REMARK  status: ('A' for Active; 'I' for Inactive)
REMARK    1  A    between atoms: C_1  and  C_2
REMARK    2  A    between atoms: C_2  and  C_3
REMARK    3  A    between atoms: C_3  and  N_4
REMARK    4  A    between atoms: C_3  and  C_22
REMARK    5  A    between atoms: N_4  and  C_5
REMARK    6  A    between atoms: C_5  and  C_6
REMARK    7  A    between atoms: C_9  and  C_10
REMARK    8  A    between atoms: C_10  and  O_11
REMARK    9  A    between atoms: O_11  and  C_12
REMARK   10  A    between atoms: C_12  and  C_13
REMARK                            x       y       z     vdW  Elec       q    Type
REMARK                         _______ _______ _______ _____ _____    ______ ____
ROOT
ATOM      1  C   UNL     1      48.588   6.416  15.114  0.00  0.00    +0.000 C 
ENDROOT
BRANCH   1   2
ATOM      2  C   UNL     1      47.724   6.233  13.890  0.00  0.00    +0.000 A 
ATOM      3  C   UNL     1      47.827   7.075  12.778  0.00  0.00    +0.000 A 
ATOM      4  C   UNL     1      47.020   6.861  11.656  0.00  0.00    +0.000 A 
ATOM      5  C   UNL     1      46.103   5.800  11.623  0.00  0.00    +0.000 A 
ATOM      6  C   UNL     1      46.013   4.948  12.727  0.00  0.00    +0.000 A 
ATOM      7  C   UNL     1      46.813   5.164  13.848  0.00  0.00    +0.000 A 
BRANCH   5   8
ATOM      8  C   UNL     1      45.205   5.595  10.434  0.00  0.00    +0.000 C 
BRANCH   8   9
ATOM      9  O   UNL     1      45.007   4.200  10.239  0.00  0.00    +0.000 OA
BRANCH   9  10
ATOM     10  C   UNL     1      44.544   3.917   8.924  0.00  0.00    +0.000 C 
BRANCH  10  11
ATOM     11  C   UNL     1      45.606   3.124   8.223  0.00  0.00    +0.000 A 
ATOM     12  C   UNL     1      46.527   3.751   7.377  0.00  0.00    +0.000 A 
ATOM     13  C   UNL     1      47.509   3.008   6.729  0.00  0.00    +0.000 A 
ATOM     14  C   UNL     1      47.569   1.634   6.931  0.00  0.00    +0.000 A 
ATOM     15  N   UNL     1      46.668   0.986   7.763  0.00  0.00    +0.000 N 
ATOM     16  O   UNL     1      46.736  -0.266   7.942  0.00  0.00    +0.000 OA
ATOM     17  C   UNL     1      45.698   1.739   8.402  0.00  0.00    +0.000 A 
ENDBRANCH  10  11
ENDBRANCH   9  10
ENDBRANCH   8   9
ENDBRANCH   5   8
ENDBRANCH   1   2
BRANCH   1  18
ATOM     18  N   UNL     1      48.536   5.270  16.018  0.00  0.00    +0.000 NA
ATOM     19  H   UNL     1      47.625   4.827  15.891  0.00  0.00    +0.000 HD
BRANCH  18  20
ATOM     20  C   UNL     1      48.669   5.618  17.444  0.00  0.00    +0.000 C 
BRANCH  20  21
ATOM     21  C   UNL     1      50.028   5.040  17.857  0.00  0.00    +0.000 A 
ATOM     22  C   UNL     1      51.047   5.799  18.420  0.00  0.00    +0.000 A 
ATOM     23  S   UNL     1      52.489   4.925  18.678  0.00  0.00    +0.000 S 
ATOM     24  C   UNL     1      51.804   3.499  18.049  0.00  0.00    +0.000 A 
ATOM     25  N   UNL     1      52.544   2.368  17.926  0.00  0.00    +0.000 NA
ATOM     26  C   UNL     1      51.893   1.364  17.420  0.00  0.00    +0.000 A 
ATOM     27  N   UNL     1      50.571   1.390  17.065  0.00  0.00    +0.000 N 
ATOM     28  C   UNL     1      49.768   2.498  17.224  0.00  0.00    +0.000 A 
ATOM     29  O   UNL     1      48.564   2.459  16.991  0.00  0.00    +0.000 OA
ATOM     30  C   UNL     1      50.475   3.678  17.706  0.00  0.00    +0.000 A 
ATOM     31  H   UNL     1      50.114   0.555  16.727  0.00  0.00    +0.000 HD
ENDBRANCH  20  21
BRANCH  20  33
ATOM     32  C   UNL     1      47.691   7.579  18.909  0.00  0.00    +0.000 C 
ATOM     33  C   UNL     1      48.627   7.134  17.793  0.00  0.00    +0.000 C 
ENDBRANCH  20  33
ENDBRANCH  18  20
ENDBRANCH   1  18
TORSDOF 9
ENDMDL
MODEL 2
REMARK VINA RESULT:    -8.066      1.405      2.168
REMARK INTER + INTRA:         -13.419
REMARK INTER:                 -12.144
REMARK INTRA:                  -1.275
REMARK UNBOUND:                -1.110
REMARK  Name = 
REMARK  10 active torsions:
REMARK  status: ('A' for Active; 'I' for Inactive)
REMARK    1  A    between atoms: C_1  and  C_2
REMARK    2  A    between atoms: C_2  and  C_3
REMARK    3  A    between atoms: C_3  and  N_4
REMARK    4  A    between atoms: C_3  and  C_22
REMARK    5  A    between atoms: N_4  and  C_5
REMARK    6  A    between atoms: C_5  and  C_6
REMARK    7  A    between atoms: C_9  and  C_10
REMARK    8  A    between atoms: C_10  and  O_11
REMARK    9  A    between atoms: O_11  and  C_12
REMARK   10  A    between atoms: C_12  and  C_13
REMARK                            x       y       z     vdW  Elec       q    Type
REMARK                         _______ _______ _______ _____ _____    ______ ____
ROOT
ATOM      1  C   UNL     1      48.171   6.011  14.161  0.00  0.00    +0.000 C 
ENDROOT
BRANCH   1   2
ATOM      2  C   UNL     1      46.922   5.718  13.365  0.00  0.00    +0.000 A 
ATOM      3  C   UNL     1      45.971   4.786  13.794  0.00  0.00    +0.000 A 
ATOM      4  C   UNL     1      44.819   4.556  13.036  0.00  0.00    +0.000 A 
ATOM      5  C   UNL     1      44.593   5.256  11.842  0.00  0.00    +0.000 A 
ATOM      6  C   UNL     1      45.535   6.200  11.422  0.00  0.00    +0.000 A 
ATOM      7  C   UNL     1      46.687   6.425  12.174  0.00  0.00    +0.000 A 
BRANCH   5   8
ATOM      8  C   UNL     1      43.375   4.980  11.005  0.00  0.00    +0.000 C 
BRANCH   8   9
ATOM      9  O   UNL     1      43.787   4.482   9.738  0.00  0.00    +0.000 OA
BRANCH   9  10
ATOM     10  C   UNL     1      44.142   3.106   9.807  0.00  0.00    +0.000 C 
BRANCH  10  11
ATOM     11  C   UNL     1      45.219   2.857   8.793  0.00  0.00    +0.000 A 
ATOM     12  C   UNL     1      45.748   3.907   8.038  0.00  0.00    +0.000 A 
ATOM     13  C   UNL     1      46.746   3.667   7.097  0.00  0.00    +0.000 A 
ATOM     14  C   UNL     1      47.214   2.372   6.916  0.00  0.00    +0.000 A 
ATOM     15  N   UNL     1      46.706   1.311   7.650  0.00  0.00    +0.000 N 
ATOM     16  O   UNL     1      47.145   0.134   7.478  0.00  0.00    +0.000 OA
ATOM     17  C   UNL     1      45.715   1.565   8.583  0.00  0.00    +0.000 A 
ENDBRANCH  10  11
ENDBRANCH   9  10
ENDBRANCH   8   9
ENDBRANCH   5   8
ENDBRANCH   1   2
BRANCH   1  18
ATOM     18  N   UNL     1      47.901   6.204  15.583  0.00  0.00    +0.000 NA
ATOM     19  H   UNL     1      48.439   7.017  15.884  0.00  0.00    +0.000 HD
BRANCH  18  20
ATOM     20  C   UNL     1      48.297   5.067  16.433  0.00  0.00    +0.000 C 
BRANCH  20  21
ATOM     21  C   UNL     1      49.358   5.644  17.379  0.00  0.00    +0.000 A 
ATOM     22  C   UNL     1      49.263   6.900  17.965  0.00  0.00    +0.000 A 
ATOM     23  S   UNL     1      50.634   7.333  18.881  0.00  0.00    +0.000 S 
ATOM     24  C   UNL     1      51.406   5.857  18.530  0.00  0.00    +0.000 A 
ATOM     25  N   UNL     1      52.666   5.609  18.970  0.00  0.00    +0.000 NA
ATOM     26  C   UNL     1      53.129   4.448  18.616  0.00  0.00    +0.000 A 
ATOM     27  N   UNL     1      52.431   3.515  17.897  0.00  0.00    +0.000 N 
ATOM     28  C   UNL     1      51.131   3.701  17.478  0.00  0.00    +0.000 A 
ATOM     29  O   UNL     1      50.500   2.807  16.924  0.00  0.00    +0.000 OA
ATOM     30  C   UNL     1      50.597   5.024  17.775  0.00  0.00    +0.000 A 
ATOM     31  H   UNL     1      52.835   2.610  17.702  0.00  0.00    +0.000 HD
ENDBRANCH  20  21
BRANCH  20  33
ATOM     32  C   UNL     1      47.267   2.908  17.540  0.00  0.00    +0.000 C 
ATOM     33  C   UNL     1      47.167   4.403  17.272  0.00  0.00    +0.000 C 
ENDBRANCH  20  33
ENDBRANCH  18  20
ENDBRANCH   1  18
TORSDOF 9
ENDMDL
MODEL 3
REMARK VINA RESULT:    -7.935      2.534      4.119
REMARK INTER + INTRA:         -13.219
REMARK INTER:                 -11.991
REMARK INTRA:                  -1.228
REMARK UNBOUND:                -1.110
REMARK  Name = 
REMARK  10 active torsions:
REMARK  status: ('A' for Active; 'I' for Inactive)
REMARK    1  A    between atoms: C_1  and  C_2
REMARK    2  A    between atoms: C_2  and  C_3
REMARK    3  A    between atoms: C_3  and  N_4
REMARK    4  A    between atoms: C_3  and  C_22
REMARK    5  A    between atoms: N_4  and  C_5
REMARK    6  A    between atoms: C_5  and  C_6
REMARK    7  A    between atoms: C_9  and  C_10
REMARK    8  A    between atoms: C_10  and  O_11
REMARK    9  A    between atoms: O_11  and  C_12
REMARK   10  A    between atoms: C_12  and  C_13
REMARK                            x       y       z     vdW  Elec       q    Type
REMARK                         _______ _______ _______ _____ _____    ______ ____
ROOT
ATOM      1  C   UNL     1      47.811   5.514  14.482  0.00  0.00    +0.000 C 
ENDROOT
BRANCH   1   2
ATOM      2  C   UNL     1      46.649   5.028  13.649  0.00  0.00    +0.000 A 
ATOM      3  C   UNL     1      45.669   5.901  13.164  0.00  0.00    +0.000 A 
ATOM      4  C   UNL     1      44.618   5.415  12.381  0.00  0.00    +0.000 A 
ATOM      5  C   UNL     1      44.531   4.051  12.063  0.00  0.00    +0.000 A 
ATOM      6  C   UNL     1      45.520   3.183  12.532  0.00  0.00    +0.000 A 
ATOM      7  C   UNL     1      46.565   3.666  13.318  0.00  0.00    +0.000 A 
BRANCH   5   8
ATOM      8  C   UNL     1      43.379   3.521  11.256  0.00  0.00    +0.000 C 
BRANCH   8   9
ATOM      9  O   UNL     1      43.884   2.913  10.072  0.00  0.00    +0.000 OA
BRANCH   9  10
ATOM     10  C   UNL     1      44.524   3.863   9.229  0.00  0.00    +0.000 C 
BRANCH  10  11
ATOM     11  C   UNL     1      45.462   3.119   8.326  0.00  0.00    +0.000 A 
ATOM     12  C   UNL     1      46.102   3.768   7.266  0.00  0.00    +0.000 A 
ATOM     13  C   UNL     1      46.970   3.070   6.431  0.00  0.00    +0.000 A 
ATOM     14  C   UNL     1      47.197   1.719   6.661  0.00  0.00    +0.000 A 
ATOM     15  N   UNL     1      46.575   1.049   7.704  0.00  0.00    +0.000 N 
ATOM     16  O   UNL     1      46.794  -0.182   7.906  0.00  0.00    +0.000 OA
ATOM     17  C   UNL     1      45.716   1.757   8.527  0.00  0.00    +0.000 A 
ENDBRANCH  10  11
ENDBRANCH   9  10
ENDBRANCH   8   9
ENDBRANCH   5   8
ENDBRANCH   1   2
BRANCH   1  18
ATOM     18  N   UNL     1      47.526   5.493  15.914  0.00  0.00    +0.000 NA
ATOM     19  H   UNL     1      47.033   6.359  16.136  0.00  0.00    +0.000 HD
BRANCH  18  20
ATOM     20  C   UNL     1      48.725   5.429  16.768  0.00  0.00    +0.000 C 
BRANCH  20  21
ATOM     21  C   UNL     1      48.390   6.322  17.970  0.00  0.00    +0.000 A 
ATOM     22  C   UNL     1      48.174   5.834  19.253  0.00  0.00    +0.000 A 
ATOM     23  S   UNL     1      47.709   7.034  20.372  0.00  0.00    +0.000 S 
ATOM     24  C   UNL     1      47.780   8.251  19.183  0.00  0.00    +0.000 A 
ATOM     25  N   UNL     1      47.430   9.529  19.475  0.00  0.00    +0.000 NA
ATOM     26  C   UNL     1      47.523  10.345  18.468  0.00  0.00    +0.000 A 
ATOM     27  N   UNL     1      47.964   9.996  17.219  0.00  0.00    +0.000 N 
ATOM     28  C   UNL     1      48.382   8.724  16.893  0.00  0.00    +0.000 A 
ATOM     29  O   UNL     1      48.866   8.468  15.796  0.00  0.00    +0.000 OA
ATOM     30  C   UNL     1      48.213   7.752  17.966  0.00  0.00    +0.000 A 
ATOM     31  H   UNL     1      48.061  10.694  16.496  0.00  0.00    +0.000 HD
ENDBRANCH  20  21
BRANCH  20  33
ATOM     32  C   UNL     1      48.172   2.866  17.036  0.00  0.00    +0.000 C 
ATOM     33  C   UNL     1      49.139   4.018  17.275  0.00  0.00    +0.000 C 
ENDBRANCH  20  33
ENDBRANCH  18  20
ENDBRANCH   1  18
TORSDOF 9
ENDMDL
MODEL 4
REMARK VINA RESULT:    -7.342      2.103      2.993
REMARK INTER + INTRA:         -12.315
REMARK INTER:                 -11.410
REMARK INTRA:                  -0.905
REMARK UNBOUND:                -1.110
REMARK  Name = 
REMARK  10 active torsions:
REMARK  status: ('A' for Active; 'I' for Inactive)
REMARK    1  A    between atoms: C_1  and  C_2
REMARK    2  A    between atoms: C_2  and  C_3
REMARK    3  A    between atoms: C_3  and  N_4
REMARK    4  A    between atoms: C_3  and  C_22
REMARK    5  A    between atoms: N_4  and  C_5
REMARK    6  A    between atoms: C_5  and  C_6
REMARK    7  A    between atoms: C_9  and  C_10
REMARK    8  A    between atoms: C_10  and  O_11
REMARK    9  A    between atoms: O_11  and  C_12
REMARK   10  A    between atoms: C_12  and  C_13
REMARK                            x       y       z     vdW  Elec       q    Type
REMARK                         _______ _______ _______ _____ _____    ______ ____
ROOT
ATOM      1  C   UNL     1      48.067   5.993  14.442  0.00  0.00    +0.000 C 
ENDROOT
BRANCH   1   2
ATOM      2  C   UNL     1      46.925   5.525  13.573  0.00  0.00    +0.000 A 
ATOM      3  C   UNL     1      46.154   6.417  12.820  0.00  0.00    +0.000 A 
ATOM      4  C   UNL     1      45.115   5.942  12.013  0.00  0.00    +0.000 A 
ATOM      5  C   UNL     1      44.833   4.570  11.940  0.00  0.00    +0.000 A 
ATOM      6  C   UNL     1      45.616   3.678  12.679  0.00  0.00    +0.000 A 
ATOM      7  C   UNL     1      46.647   4.151  13.487  0.00  0.00    +0.000 A 
BRANCH   5   8
ATOM      8  C   UNL     1      43.690   4.062  11.106  0.00  0.00    +0.000 C 
BRANCH   8   9
ATOM      9  O   UNL     1      44.207   3.251  10.057  0.00  0.00    +0.000 OA
BRANCH   9  10
ATOM     10  C   UNL     1      44.687   4.040   8.975  0.00  0.00    +0.000 C 
BRANCH  10  11
ATOM     11  C   UNL     1      45.614   3.188   8.160  0.00  0.00    +0.000 A 
ATOM     12  C   UNL     1      46.326   3.730   7.086  0.00  0.00    +0.000 A 
ATOM     13  C   UNL     1      47.183   2.932   6.333  0.00  0.00    +0.000 A 
ATOM     14  C   UNL     1      47.326   1.590   6.660  0.00  0.00    +0.000 A 
ATOM     15  N   UNL     1      46.632   1.025   7.719  0.00  0.00    +0.000 N 
ATOM     16  O   UNL     1      46.775  -0.200   8.010  0.00  0.00    +0.000 OA
ATOM     17  C   UNL     1      45.784   1.832   8.459  0.00  0.00    +0.000 A 
ENDBRANCH  10  11
ENDBRANCH   9  10
ENDBRANCH   8   9
ENDBRANCH   5   8
ENDBRANCH   1   2
BRANCH   1  18
ATOM     18  N   UNL     1      47.784   5.857  15.868  0.00  0.00    +0.000 NA
ATOM     19  H   UNL     1      48.062   6.732  16.315  0.00  0.00    +0.000 HD
BRANCH  18  20
ATOM     20  C   UNL     1      48.519   4.764  16.529  0.00  0.00    +0.000 C 
BRANCH  20  21
ATOM     21  C   UNL     1      49.537   5.474  17.431  0.00  0.00    +0.000 A 
ATOM     22  C   UNL     1      50.909   5.432  17.221  0.00  0.00    +0.000 A 
ATOM     23  S   UNL     1      51.812   6.215  18.438  0.00  0.00    +0.000 S 
ATOM     24  C   UNL     1      50.401   6.640  19.290  0.00  0.00    +0.000 A 
ATOM     25  N   UNL     1      50.476   7.286  20.482  0.00  0.00    +0.000 NA
ATOM     26  C   UNL     1      49.321   7.535  21.021  0.00  0.00    +0.000 A 
ATOM     27  N   UNL     1      48.113   7.225  20.456  0.00  0.00    +0.000 N 
ATOM     28  C   UNL     1      47.988   6.621  19.224  0.00  0.00    +0.000 A 
ATOM     29  O   UNL     1      46.892   6.448  18.701  0.00  0.00    +0.000 OA
ATOM     30  C   UNL     1      49.258   6.241  18.618  0.00  0.00    +0.000 A 
ATOM     31  H   UNL     1      47.251   7.496  20.908  0.00  0.00    +0.000 HD
ENDBRANCH  20  21
BRANCH  20  33
ATOM     32  C   UNL     1      48.406   2.896  18.385  0.00  0.00    +0.000 C 
ATOM     33  C   UNL     1      47.671   3.780  17.386  0.00  0.00    +0.000 C 
ENDBRANCH  20  33
ENDBRANCH  18  20
ENDBRANCH   1  18
TORSDOF 9
ENDMDL
MODEL 5
REMARK VINA RESULT:    -7.236      3.025      8.665
REMARK INTER + INTRA:         -12.153
REMARK INTER:                 -10.558
REMARK INTRA:                  -1.595
REMARK UNBOUND:                -1.110
REMARK  Name = 
REMARK  10 active torsions:
REMARK  status: ('A' for Active; 'I' for Inactive)
REMARK    1  A    between atoms: C_1  and  C_2
REMARK    2  A    between atoms: C_2  and  C_3
REMARK    3  A    between atoms: C_3  and  N_4
REMARK    4  A    between atoms: C_3  and  C_22
REMARK    5  A    between atoms: N_4  and  C_5
REMARK    6  A    between atoms: C_5  and  C_6
REMARK    7  A    between atoms: C_9  and  C_10
REMARK    8  A    between atoms: C_10  and  O_11
REMARK    9  A    between atoms: O_11  and  C_12
REMARK   10  A    between atoms: C_12  and  C_13
REMARK                            x       y       z     vdW  Elec       q    Type
REMARK                         _______ _______ _______ _____ _____    ______ ____
ROOT
ATOM      1  C   UNL     1      48.267   7.554  11.832  0.00  0.00    +0.000 C 
ENDROOT
BRANCH   1   2
ATOM      2  C   UNL     1      48.956   7.513  13.175  0.00  0.00    +0.000 A 
ATOM      3  C   UNL     1      48.349   6.952  14.303  0.00  0.00    +0.000 A 
ATOM      4  C   UNL     1      49.029   6.918  15.525  0.00  0.00    +0.000 A 
ATOM      5  C   UNL     1      50.326   7.438  15.639  0.00  0.00    +0.000 A 
ATOM      6  C   UNL     1      50.939   7.982  14.507  0.00  0.00    +0.000 A 
ATOM      7  C   UNL     1      50.261   8.022  13.291  0.00  0.00    +0.000 A 
BRANCH   5   8
ATOM      8  C   UNL     1      51.041   7.439  16.961  0.00  0.00    +0.000 C 
BRANCH   8   9
ATOM      9  O   UNL     1      50.143   7.002  17.974  0.00  0.00    +0.000 OA
BRANCH   9  10
ATOM     10  C   UNL     1      50.542   5.751  18.522  0.00  0.00    +0.000 C 
BRANCH  10  11
ATOM     11  C   UNL     1      49.591   4.705  18.023  0.00  0.00    +0.000 A 
ATOM     12  C   UNL     1      48.217   4.817  18.254  0.00  0.00    +0.000 A 
ATOM     13  C   UNL     1      47.340   3.841  17.788  0.00  0.00    +0.000 A 
ATOM     14  C   UNL     1      47.844   2.752  17.088  0.00  0.00    +0.000 A 
ATOM     15  N   UNL     1      49.203   2.615  16.845  0.00  0.00    +0.000 N 
ATOM     16  O   UNL     1      49.649   1.619  16.201  0.00  0.00    +0.000 OA
ATOM     17  C   UNL     1      50.061   3.594  17.313  0.00  0.00    +0.000 A 
ENDBRANCH  10  11
ENDBRANCH   9  10
ENDBRANCH   8   9
ENDBRANCH   5   8
ENDBRANCH   1   2
BRANCH   1  18
ATOM     18  N   UNL     1      47.237   6.527  11.696  0.00  0.00    +0.000 NA
ATOM     19  H   UNL     1      47.467   5.978  10.867  0.00  0.00    +0.000 HD
BRANCH  18  20
ATOM     20  C   UNL     1      45.874   7.058  11.516  0.00  0.00    +0.000 C 
BRANCH  20  21
ATOM     21  C   UNL     1      44.969   5.820  11.565  0.00  0.00    +0.000 A 
ATOM     22  C   UNL     1      44.119   5.533  12.625  0.00  0.00    +0.000 A 
ATOM     23  S   UNL     1      43.313   4.037  12.469  0.00  0.00    +0.000 S 
ATOM     24  C   UNL     1      44.069   3.720  10.978  0.00  0.00    +0.000 A 
ATOM     25  N   UNL     1      43.857   2.549  10.326  0.00  0.00    +0.000 NA
ATOM     26  C   UNL     1      44.509   2.442   9.207  0.00  0.00    +0.000 A 
ATOM     27  N   UNL     1      45.317   3.413   8.679  0.00  0.00    +0.000 N 
ATOM     28  C   UNL     1      45.517   4.638   9.278  0.00  0.00    +0.000 A 
ATOM     29  O   UNL     1      46.166   5.524   8.730  0.00  0.00    +0.000 OA
ATOM     30  C   UNL     1      44.877   4.772  10.580  0.00  0.00    +0.000 A 
ATOM     31  H   UNL     1      45.752   3.284   7.777  0.00  0.00    +0.000 HD
ENDBRANCH  20  21
BRANCH  20  33
ATOM     32  C   UNL     1      45.250   9.544  12.131  0.00  0.00    +0.000 C 
ATOM     33  C   UNL     1      45.389   8.093  12.572  0.00  0.00    +0.000 C 
ENDBRANCH  20  33
ENDBRANCH  18  20
ENDBRANCH   1  18
TORSDOF 9
ENDMDL
MODEL 6
REMARK VINA RESULT:    -7.185      4.047      5.114
REMARK INTER + INTRA:         -12.076
REMARK INTER:                 -10.661
REMARK INTRA:                  -1.414
REMARK UNBOUND:                -1.110
REMARK  Name = 
REMARK  10 active torsions:
REMARK  status: ('A' for Active; 'I' for Inactive)
REMARK    1  A    between atoms: C_1  and  C_2
REMARK    2  A    between atoms: C_2  and  C_3
REMARK    3  A    between atoms: C_3  and  N_4
REMARK    4  A    between atoms: C_3  and  C_22
REMARK    5  A    between atoms: N_4  and  C_5
REMARK    6  A    between atoms: C_5  and  C_6
REMARK    7  A    between atoms: C_9  and  C_10
REMARK    8  A    between atoms: C_10  and  O_11
REMARK    9  A    between atoms: O_11  and  C_12
REMARK   10  A    between atoms: C_12  and  C_13
REMARK                            x       y       z     vdW  Elec       q    Type
REMARK                         _______ _______ _______ _____ _____    ______ ____
ROOT
ATOM      1  C   UNL     1      48.362   6.337  13.669  0.00  0.00    +0.000 C 
ENDROOT
BRANCH   1   2
ATOM      2  C   UNL     1      47.076   5.971  12.968  0.00  0.00    +0.000 A 
ATOM      3  C   UNL     1      46.106   5.165  13.574  0.00  0.00    +0.000 A 
ATOM      4  C   UNL     1      44.920   4.862  12.898  0.00  0.00    +0.000 A 
ATOM      5  C   UNL     1      44.680   5.363  11.610  0.00  0.00    +0.000 A 
ATOM      6  C   UNL     1      45.641   6.183  11.012  0.00  0.00    +0.000 A 
ATOM      7  C   UNL     1      46.826   6.480  11.683  0.00  0.00    +0.000 A 
BRANCH   5   8
ATOM      8  C   UNL     1      43.423   5.005  10.866  0.00  0.00    +0.000 C 
BRANCH   8   9
ATOM      9  O   UNL     1      43.775   4.421   9.617  0.00  0.00    +0.000 OA
BRANCH   9  10
ATOM     10  C   UNL     1      44.200   3.072   9.772  0.00  0.00    +0.000 C 
BRANCH  10  11
ATOM     11  C   UNL     1      45.275   2.809   8.760  0.00  0.00    +0.000 A 
ATOM     12  C   UNL     1      45.830   3.854   8.016  0.00  0.00    +0.000 A 
ATOM     13  C   UNL     1      46.827   3.602   7.077  0.00  0.00    +0.000 A 
ATOM     14  C   UNL     1      47.267   2.298   6.886  0.00  0.00    +0.000 A 
ATOM     15  N   UNL     1      46.734   1.241   7.609  0.00  0.00    +0.000 N 
ATOM     16  O   UNL     1      47.148   0.058   7.429  0.00  0.00    +0.000 OA
ATOM     17  C   UNL     1      45.745   1.509   8.540  0.00  0.00    +0.000 A 
ENDBRANCH  10  11
ENDBRANCH   9  10
ENDBRANCH   8   9
ENDBRANCH   5   8
ENDBRANCH   1   2
BRANCH   1  18
ATOM     18  N   UNL     1      49.309   7.016  12.789  0.00  0.00    +0.000 NA
ATOM     19  H   UNL     1      50.230   6.614  12.970  0.00  0.00    +0.000 HD
BRANCH  18  20
ATOM     20  C   UNL     1      49.407   8.470  13.013  0.00  0.00    +0.000 C 
BRANCH  20  21
ATOM     21  C   UNL     1      50.895   8.719  13.290  0.00  0.00    +0.000 A 
ATOM     22  C   UNL     1      51.376   9.254  14.478  0.00  0.00    +0.000 A 
ATOM     23  S   UNL     1      53.060   9.527  14.473  0.00  0.00    +0.000 S 
ATOM     24  C   UNL     1      53.208   8.939  12.883  0.00  0.00    +0.000 A 
ATOM     25  N   UNL     1      54.405   8.956  12.244  0.00  0.00    +0.000 NA
ATOM     26  C   UNL     1      54.364   8.487  11.033  0.00  0.00    +0.000 A 
ATOM     27  N   UNL     1      53.245   7.978  10.431  0.00  0.00    +0.000 N 
ATOM     28  C   UNL     1      52.022   7.890  11.060  0.00  0.00    +0.000 A 
ATOM     29  O   UNL     1      51.064   7.337  10.529  0.00  0.00    +0.000 OA
ATOM     30  C   UNL     1      51.996   8.484  12.390  0.00  0.00    +0.000 A 
ATOM     31  H   UNL     1      53.297   7.581   9.503  0.00  0.00    +0.000 HD
ENDBRANCH  20  21
BRANCH  20  33
ATOM     32  C   UNL     1      47.682  10.213  12.046  0.00  0.00    +0.000 C 
ATOM     33  C   UNL     1      48.942   9.383  11.841  0.00  0.00    +0.000 C 
ENDBRANCH  20  33
ENDBRANCH  18  20
ENDBRANCH   1  18
TORSDOF 9
ENDMDL
MODEL 7
REMARK VINA RESULT:    -6.994      3.781      8.297
REMARK INTER + INTRA:         -11.784
REMARK INTER:                  -9.932
REMARK INTRA:                  -1.851
REMARK UNBOUND:                -1.110
REMARK  Name = 
REMARK  10 active torsions:
REMARK  status: ('A' for Active; 'I' for Inactive)
REMARK    1  A    between atoms: C_1  and  C_2
REMARK    2  A    between atoms: C_2  and  C_3
REMARK    3  A    between atoms: C_3  and  N_4
REMARK    4  A    between atoms: C_3  and  C_22
REMARK    5  A    between atoms: N_4  and  C_5
REMARK    6  A    between atoms: C_5  and  C_6
REMARK    7  A    between atoms: C_9  and  C_10
REMARK    8  A    between atoms: C_10  and  O_11
REMARK    9  A    between atoms: O_11  and  C_12
REMARK   10  A    between atoms: C_12  and  C_13
REMARK                            x       y       z     vdW  Elec       q    Type
REMARK                         _______ _______ _______ _____ _____    ______ ____
ROOT
ATOM      1  C   UNL     1      48.287   9.232  14.554  0.00  0.00    +0.000 C 
ENDROOT
BRANCH   1   2
ATOM      2  C   UNL     1      48.806   8.726  15.878  0.00  0.00    +0.000 A 
ATOM      3  C   UNL     1      50.081   8.166  16.009  0.00  0.00    +0.000 A 
ATOM      4  C   UNL     1      50.532   7.725  17.257  0.00  0.00    +0.000 A 
ATOM      5  C   UNL     1      49.720   7.840  18.395  0.00  0.00    +0.000 A 
ATOM      6  C   UNL     1      48.453   8.416  18.267  0.00  0.00    +0.000 A 
ATOM      7  C   UNL     1      48.001   8.851  17.023  0.00  0.00    +0.000 A 
BRANCH   5   8
ATOM      8  C   UNL     1      50.187   7.328  19.729  0.00  0.00    +0.000 C 
BRANCH   8   9
ATOM      9  O   UNL     1      49.504   6.115  20.025  0.00  0.00    +0.000 OA
BRANCH   9  10
ATOM     10  C   UNL     1      50.231   4.981  19.567  0.00  0.00    +0.000 C 
BRANCH  10  11
ATOM     11  C   UNL     1      49.377   4.261  18.566  0.00  0.00    +0.000 A 
ATOM     12  C   UNL     1      48.024   4.580  18.417  0.00  0.00    +0.000 A 
ATOM     13  C   UNL     1      47.238   3.905  17.487  0.00  0.00    +0.000 A 
ATOM     14  C   UNL     1      47.811   2.911  16.705  0.00  0.00    +0.000 A 
ATOM     15  N   UNL     1      49.150   2.573  16.832  0.00  0.00    +0.000 N 
ATOM     16  O   UNL     1      49.661   1.667  16.109  0.00  0.00    +0.000 OA
ATOM     17  C   UNL     1      49.919   3.253  17.760  0.00  0.00    +0.000 A 
ENDBRANCH  10  11
ENDBRANCH   9  10
ENDBRANCH   8   9
ENDBRANCH   5   8
ENDBRANCH   1   2
BRANCH   1  18
ATOM     18  N   UNL     1      47.141   8.469  14.068  0.00  0.00    +0.000 NA
ATOM     19  H   UNL     1      46.477   8.398  14.840  0.00  0.00    +0.000 HD
BRANCH  18  20
ATOM     20  C   UNL     1      47.467   7.099  13.633  0.00  0.00    +0.000 C 
BRANCH  20  21
ATOM     21  C   UNL     1      46.240   6.646  12.832  0.00  0.00    +0.000 A 
ATOM     22  C   UNL     1      45.375   7.523  12.190  0.00  0.00    +0.000 A 
ATOM     23  S   UNL     1      44.033   6.756  11.469  0.00  0.00    +0.000 S 
ATOM     24  C   UNL     1      44.560   5.222  11.987  0.00  0.00    +0.000 A 
ATOM     25  N   UNL     1      43.815   4.113  11.747  0.00  0.00    +0.000 NA
ATOM     26  C   UNL     1      44.335   3.017  12.209  0.00  0.00    +0.000 A 
ATOM     27  N   UNL     1      45.541   2.937  12.853  0.00  0.00    +0.000 N 
ATOM     28  C   UNL     1      46.357   4.026  13.069  0.00  0.00    +0.000 A 
ATOM     29  O   UNL     1      47.475   3.906  13.559  0.00  0.00    +0.000 OA
ATOM     30  C   UNL     1      45.775   5.294  12.647  0.00  0.00    +0.000 A 
ATOM     31  H   UNL     1      45.911   2.042  13.140  0.00  0.00    +0.000 HD
ENDBRANCH  20  21
BRANCH  20  33
ATOM     32  C   UNL     1      48.883   7.836  11.536  0.00  0.00    +0.000 C 
ATOM     33  C   UNL     1      48.743   6.937  12.756  0.00  0.00    +0.000 C 
ENDBRANCH  20  33
ENDBRANCH  18  20
ENDBRANCH   1  18
TORSDOF 9
ENDMDL
MODEL 8
REMARK VINA RESULT:    -6.861      2.879      8.998
REMARK INTER + INTRA:         -11.581
REMARK INTER:                 -10.575
REMARK INTRA:                  -1.006
REMARK UNBOUND:                -1.110
REMARK  Name = 
REMARK  10 active torsions:
REMARK  status: ('A' for Active; 'I' for Inactive)
REMARK    1  A    between atoms: C_1  and  C_2
REMARK    2  A    between atoms: C_2  and  C_3
REMARK    3  A    between atoms: C_3  and  N_4
REMARK    4  A    between atoms: C_3  and  C_22
REMARK    5  A    between atoms: N_4  and  C_5
REMARK    6  A    between atoms: C_5  and  C_6
REMARK    7  A    between atoms: C_9  and  C_10
REMARK    8  A    between atoms: C_10  and  O_11
REMARK    9  A    between atoms: O_11  and  C_12
REMARK   10  A    between atoms: C_12  and  C_13
REMARK                            x       y       z     vdW  Elec       q    Type
REMARK                         _______ _______ _______ _____ _____    ______ ____
ROOT
ATOM      1  C   UNL     1      47.572   5.904  13.472  0.00  0.00    +0.000 C 
ENDROOT
BRANCH   1   2
ATOM      2  C   UNL     1      48.235   6.145  14.807  0.00  0.00    +0.000 A 
ATOM      3  C   UNL     1      49.215   7.129  14.980  0.00  0.00    +0.000 A 
ATOM      4  C   UNL     1      49.792   7.333  16.238  0.00  0.00    +0.000 A 
ATOM      5  C   UNL     1      49.397   6.564  17.342  0.00  0.00    +0.000 A 
ATOM      6  C   UNL     1      48.406   5.594  17.172  0.00  0.00    +0.000 A 
ATOM      7  C   UNL     1      47.834   5.386  15.918  0.00  0.00    +0.000 A 
BRANCH   5   8
ATOM      8  C   UNL     1      50.047   6.754  18.684  0.00  0.00    +0.000 C 
BRANCH   8   9
ATOM      9  O   UNL     1      50.533   5.499  19.146  0.00  0.00    +0.000 OA
BRANCH   9  10
ATOM     10  C   UNL     1      51.837   5.227  18.644  0.00  0.00    +0.000 C 
BRANCH  10  11
ATOM     11  C   UNL     1      51.870   3.794  18.201  0.00  0.00    +0.000 A 
ATOM     12  C   UNL     1      52.915   2.950  18.586  0.00  0.00    +0.000 A 
ATOM     13  C   UNL     1      52.940   1.621  18.170  0.00  0.00    +0.000 A 
ATOM     14  C   UNL     1      51.912   1.140  17.368  0.00  0.00    +0.000 A 
ATOM     15  N   UNL     1      50.863   1.956  16.970  0.00  0.00    +0.000 N 
ATOM     16  O   UNL     1      49.930   1.503  16.242  0.00  0.00    +0.000 OA
ATOM     17  C   UNL     1      50.853   3.274  17.393  0.00  0.00    +0.000 A 
ENDBRANCH  10  11
ENDBRANCH   9  10
ENDBRANCH   8   9
ENDBRANCH   5   8
ENDBRANCH   1   2
BRANCH   1  18
ATOM     18  N   UNL     1      46.362   6.702  13.291  0.00  0.00    +0.000 NA
ATOM     19  H   UNL     1      45.636   6.286  13.876  0.00  0.00    +0.000 HD
BRANCH  18  20
ATOM     20  C   UNL     1      45.858   6.730  11.906  0.00  0.00    +0.000 C 
BRANCH  20  21
ATOM     21  C   UNL     1      45.003   5.462  11.782  0.00  0.00    +0.000 A 
ATOM     22  C   UNL     1      44.196   4.976  12.802  0.00  0.00    +0.000 A 
ATOM     23  S   UNL     1      43.445   3.490  12.433  0.00  0.00    +0.000 S 
ATOM     24  C   UNL     1      44.169   3.442  10.893  0.00  0.00    +0.000 A 
ATOM     25  N   UNL     1      43.984   2.379  10.070  0.00  0.00    +0.000 NA
ATOM     26  C   UNL     1      44.607   2.476   8.934  0.00  0.00    +0.000 A 
ATOM     27  N   UNL     1      45.361   3.551   8.546  0.00  0.00    +0.000 N 
ATOM     28  C   UNL     1      45.530   4.675   9.325  0.00  0.00    +0.000 A 
ATOM     29  O   UNL     1      46.128   5.662   8.909  0.00  0.00    +0.000 OA
ATOM     30  C   UNL     1      44.924   4.577  10.647  0.00  0.00    +0.000 A 
ATOM     31  H   UNL     1      45.774   3.582   7.625  0.00  0.00    +0.000 HD
ENDBRANCH  20  21
BRANCH  20  33
ATOM     32  C   UNL     1      45.243   9.269  12.259  0.00  0.00    +0.000 C 
ATOM     33  C   UNL     1      45.004   7.967  11.506  0.00  0.00    +0.000 C 
ENDBRANCH  20  33
ENDBRANCH  18  20
ENDBRANCH   1  18
TORSDOF 9
ENDMDL
