MODEL 1
REMARK VINA RESULT:    -9.568      0.000      0.000
REMARK INTER + INTRA:         -12.409
REMARK INTER:                 -11.805
REMARK INTRA:                  -0.604
REMARK UNBOUND:                -0.604
REMARK  Name = 
REMARK  4 active torsions:
REMARK  status: ('A' for Active; 'I' for Inactive)
REMARK    1  A    between atoms: C_2  and  C_4
REMARK    2  A    between atoms: N_8  and  C_9
REMARK    3  A    between atoms: C_9  and  C_10
REMARK    4  A    between atoms: C_15  and  C_16
REMARK                            x       y       z     vdW  Elec       q    Type
REMARK                         _______ _______ _______ _____ _____    ______ ____
ROOT
ATOM      1  C   UNL     1      44.845   4.830  11.897  0.00  0.00    +0.000 A 
ATOM      2  C   UNL     1      45.439   3.912  12.760  0.00  0.00    +0.000 A 
ATOM      3  C   UNL     1      46.590   4.274  13.447  0.00  0.00    +0.000 A 
ATOM      4  F   UNL     1      47.160   3.391  14.278  0.00  0.00    +0.000 F 
ATOM      5  C   UNL     1      47.170   5.531  13.287  0.00  0.00    +0.000 A 
ATOM      6  C   UNL     1      46.594   6.488  12.437  0.00  0.00    +0.000 A 
ATOM      7  C   UNL     1      45.414   6.113  11.768  0.00  0.00    +0.000 A 
ENDROOT
BRANCH   6   8
ATOM      8  C   UNL     1      47.195   7.828  12.235  0.00  0.00    +0.000 A 
ATOM      9  C   UNL     1      48.547   7.981  11.902  0.00  0.00    +0.000 A 
ATOM     10  C   UNL     1      49.061   9.254  11.712  0.00  0.00    +0.000 A 
ATOM     11  N   UNL     1      48.339  10.383  11.842  0.00  0.00    +0.000 NA
ATOM     12  C   UNL     1      47.048  10.243  12.173  0.00  0.00    +0.000 A 
ATOM     13  N   UNL     1      46.304  11.416  12.275  0.00  0.00    +0.000 N 
ATOM     14  C   UNL     1      46.443   9.006  12.363  0.00  0.00    +0.000 A 
ATOM     15  H   UNL     1      46.957  12.186  12.156  0.00  0.00    +0.000 HD
ATOM     16  H   UNL     1      45.811  11.472  13.159  0.00  0.00    +0.000 HD
ENDBRANCH   6   8
BRANCH   1  17
ATOM     17  C   UNL     1      43.592   4.492  11.124  0.00  0.00    +0.000 C 
BRANCH  17  22
ATOM     18  C   UNL     1      46.412   2.329   7.707  0.00  0.00    +0.000 A 
ATOM     19  C   UNL     1      45.638   1.874   8.744  0.00  0.00    +0.000 A 
ATOM     20  N   UNL     1      44.785   2.657   9.433  0.00  0.00    +0.000 NA
ATOM     21  C   UNL     1      44.712   3.949   9.083  0.00  0.00    +0.000 A 
ATOM     22  N   UNL     1      43.812   4.779   9.721  0.00  0.00    +0.000 N 
ATOM     23  N   UNL     1      45.444   4.495   8.103  0.00  0.00    +0.000 NA
ATOM     24  C   UNL     1      46.290   3.672   7.435  0.00  0.00    +0.000 A 
ATOM     25  H   UNL     1      44.060   5.738   9.506  0.00  0.00    +0.000 HD
BRANCH  18  27
ATOM     26  N   UNL     1      48.395   2.086   6.338  0.00  0.00    +0.000 N 
ATOM     27  C   UNL     1      47.339   1.475   6.953  0.00  0.00    +0.000 C 
ATOM     28  O   UNL     1      47.181   0.264   6.903  0.00  0.00    +0.000 OA
ATOM     29  H   UNL     1      49.070   1.473   5.889  0.00  0.00    +0.000 HD
ATOM     30  H   UNL     1      48.703   3.025   6.547  0.00  0.00    +0.000 HD
ENDBRANCH  18  27
ENDBRANCH  17  22
ENDBRANCH   1  17
TORSDOF 4
ENDMDL
MODEL 2
REMARK VINA RESULT:    -8.991      2.833      3.868
REMARK INTER + INTRA:         -11.698
REMARK INTER:                 -10.982
REMARK INTRA:                  -0.716
REMARK UNBOUND:                -0.604
REMARK  Name = 
REMARK  4 active torsions:
REMARK  status: ('A' for Active; 'I' for Inactive)
REMARK    1  A    between atoms: C_2  and  C_4
REMARK    2  A    between atoms: N_8  and  C_9
REMARK    3  A    between atoms: C_9  and  C_10
REMARK    4  A    between atoms: C_15  and  C_16
REMARK                            x       y       z     vdW  Elec       q    Type
REMARK                         _______ _______ _______ _____ _____    ______ ____
ROOT
ATOM      1  C   UNL     1      44.629   5.603  11.733  0.00  0.00    +0.000 A 
ATOM      2  C   UNL     1      44.668   6.939  11.338  0.00  0.00    +0.000 A 
ATOM      3  C   UNL     1      45.531   7.813  11.984  0.00  0.00    +0.000 A 
ATOM      4  F   UNL     1      45.569   9.097  11.602  0.00  0.00    +0.000 F 
ATOM      5  C   UNL     1      46.355   7.387  13.026  0.00  0.00    +0.000 A 
ATOM      6  C   UNL     1      46.354   6.047  13.443  0.00  0.00    +0.000 A 
ATOM      7  C   UNL     1      45.490   5.170  12.760  0.00  0.00    +0.000 A 
ENDROOT
BRANCH   6   8
ATOM      8  C   UNL     1      47.207   5.568  14.557  0.00  0.00    +0.000 A 
ATOM      9  C   UNL     1      48.283   6.327  15.035  0.00  0.00    +0.000 A 
ATOM     10  C   UNL     1      49.045   5.842  16.086  0.00  0.00    +0.000 A 
ATOM     11  N   UNL     1      48.828   4.657  16.686  0.00  0.00    +0.000 NA
ATOM     12  C   UNL     1      47.807   3.921  16.226  0.00  0.00    +0.000 A 
ATOM     13  N   UNL     1      47.573   2.711  16.874  0.00  0.00    +0.000 N 
ATOM     14  C   UNL     1      46.978   4.337  15.190  0.00  0.00    +0.000 A 
ATOM     15  H   UNL     1      48.327   2.591  17.547  0.00  0.00    +0.000 HD
ATOM     16  H   UNL     1      47.524   1.938  16.221  0.00  0.00    +0.000 HD
ENDBRANCH   6   8
BRANCH   1  17
ATOM     17  C   UNL     1      43.710   4.608  11.065  0.00  0.00    +0.000 C 
BRANCH  17  22
ATOM     18  C   UNL     1      46.394   2.234   7.679  0.00  0.00    +0.000 A 
ATOM     19  C   UNL     1      45.718   1.853   8.810  0.00  0.00    +0.000 A 
ATOM     20  N   UNL     1      44.876   2.664   9.480  0.00  0.00    +0.000 NA
ATOM     21  C   UNL     1      44.712   3.909   9.010  0.00  0.00    +0.000 A 
ATOM     22  N   UNL     1      43.817   4.760   9.628  0.00  0.00    +0.000 N 
ATOM     23  N   UNL     1      45.345   4.384   7.930  0.00  0.00    +0.000 NA
ATOM     24  C   UNL     1      46.184   3.534   7.285  0.00  0.00    +0.000 A 
ATOM     25  H   UNL     1      44.000   5.701   9.302  0.00  0.00    +0.000 HD
BRANCH  18  27
ATOM     26  N   UNL     1      48.375   1.930   6.319  0.00  0.00    +0.000 N 
ATOM     27  C   UNL     1      47.309   1.349   6.946  0.00  0.00    +0.000 C 
ATOM     28  O   UNL     1      47.133   0.140   6.924  0.00  0.00    +0.000 OA
ATOM     29  H   UNL     1      49.041   1.297   5.886  0.00  0.00    +0.000 HD
ATOM     30  H   UNL     1      48.697   2.868   6.507  0.00  0.00    +0.000 HD
ENDBRANCH  18  27
ENDBRANCH  17  22
ENDBRANCH   1  17
TORSDOF 4
ENDMDL
MODEL 3
REMARK VINA RESULT:    -7.897      5.270      7.879
REMARK INTER + INTRA:         -10.348
REMARK INTER:                  -9.681
REMARK INTRA:                  -0.668
REMARK UNBOUND:                -0.604
REMARK  Name = 
REMARK  4 active torsions:
REMARK  status: ('A' for Active; 'I' for Inactive)
REMARK    1  A    between atoms: C_2  and  C_4
REMARK    2  A    between atoms: N_8  and  C_9
REMARK    3  A    between atoms: C_9  and  C_10
REMARK    4  A    between atoms: C_15  and  C_16
REMARK                            x       y       z     vdW  Elec       q    Type
REMARK                         _______ _______ _______ _____ _____    ______ ____
ROOT
ATOM      1  C   UNL     1      48.133   6.611  14.414  0.00  0.00    +0.000 A 
ATOM      2  C   UNL     1      48.841   7.472  13.578  0.00  0.00    +0.000 A 
ATOM      3  C   UNL     1      48.490   7.557  12.238  0.00  0.00    +0.000 A 
ATOM      4  F   UNL     1      49.171   8.386  11.435  0.00  0.00    +0.000 F 
ATOM      5  C   UNL     1      47.451   6.794  11.706  0.00  0.00    +0.000 A 
ATOM      6  C   UNL     1      46.706   5.926  12.519  0.00  0.00    +0.000 A 
ATOM      7  C   UNL     1      47.060   5.871  13.880  0.00  0.00    +0.000 A 
ENDROOT
BRANCH   6   8
ATOM      8  C   UNL     1      45.605   5.092  11.980  0.00  0.00    +0.000 A 
ATOM      9  C   UNL     1      44.821   4.285  12.815  0.00  0.00    +0.000 A 
ATOM     10  C   UNL     1      43.796   3.532  12.266  0.00  0.00    +0.000 A 
ATOM     11  N   UNL     1      43.502   3.507  10.952  0.00  0.00    +0.000 NA
ATOM     12  C   UNL     1      44.258   4.267  10.146  0.00  0.00    +0.000 A 
ATOM     13  N   UNL     1      43.926   4.257   8.794  0.00  0.00    +0.000 N 
ATOM     14  C   UNL     1      45.293   5.070  10.612  0.00  0.00    +0.000 A 
ATOM     15  H   UNL     1      43.189   3.564   8.680  0.00  0.00    +0.000 HD
ATOM     16  H   UNL     1      44.730   4.052   8.212  0.00  0.00    +0.000 HD
ENDBRANCH   6   8
BRANCH   1  17
ATOM     17  C   UNL     1      48.470   6.479  15.880  0.00  0.00    +0.000 C 
BRANCH  17  22
ATOM     18  C   UNL     1      50.939   2.478  17.366  0.00  0.00    +0.000 A 
ATOM     19  C   UNL     1      51.114   3.829  17.525  0.00  0.00    +0.000 A 
ATOM     20  N   UNL     1      50.181   4.742  17.188  0.00  0.00    +0.000 NA
ATOM     21  C   UNL     1      49.035   4.290  16.658  0.00  0.00    +0.000 A 
ATOM     22  N   UNL     1      48.028   5.181  16.349  0.00  0.00    +0.000 N 
ATOM     23  N   UNL     1      48.780   2.993  16.439  0.00  0.00    +0.000 NA
ATOM     24  C   UNL     1      49.746   2.107  16.793  0.00  0.00    +0.000 A 
ATOM     25  H   UNL     1      47.359   4.707  15.754  0.00  0.00    +0.000 HD
BRANCH  18  27
ATOM     26  N   UNL     1      51.510   0.245  18.110  0.00  0.00    +0.000 N 
ATOM     27  C   UNL     1      51.954   1.483  17.737  0.00  0.00    +0.000 C 
ATOM     28  O   UNL     1      53.145   1.748  17.688  0.00  0.00    +0.000 OA
ATOM     29  H   UNL     1      52.225  -0.455  18.285  0.00  0.00    +0.000 HD
ATOM     30  H   UNL     1      50.575  -0.096  17.935  0.00  0.00    +0.000 HD
ENDBRANCH  18  27
ENDBRANCH  17  22
ENDBRANCH   1  17
TORSDOF 4
ENDMDL
MODEL 4
REMARK VINA RESULT:    -7.845      4.811      7.939
REMARK INTER + INTRA:         -10.284
REMARK INTER:                  -9.788
REMARK INTRA:                  -0.496
REMARK UNBOUND:                -0.604
REMARK  Name = 
REMARK  4 active torsions:
REMARK  status: ('A' for Active; 'I' for Inactive)
REMARK    1  A    between atoms: C_2  and  C_4
REMARK    2  A    between atoms: N_8  and  C_9
REMARK    3  A    between atoms: C_9  and  C_10
REMARK    4  A    between atoms: C_15  and  C_16
REMARK                            x       y       z     vdW  Elec       q    Type
REMARK                         _______ _______ _______ _____ _____    ______ ____
ROOT
ATOM      1  C   UNL     1      45.204   5.073  12.733  0.00  0.00    +0.000 A 
ATOM      2  C   UNL     1      43.863   5.450  12.779  0.00  0.00    +0.000 A 
ATOM      3  C   UNL     1      43.053   5.214  11.676  0.00  0.00    +0.000 A 
ATOM      4  F   UNL     1      41.764   5.576  11.723  0.00  0.00    +0.000 F 
ATOM      5  C   UNL     1      43.552   4.616  10.520  0.00  0.00    +0.000 A 
ATOM      6  C   UNL     1      44.893   4.209  10.440  0.00  0.00    +0.000 A 
ATOM      7  C   UNL     1      45.693   4.434  11.576  0.00  0.00    +0.000 A 
ENDROOT
BRANCH   6   8
ATOM      8  C   UNL     1      45.456   3.584   9.219  0.00  0.00    +0.000 A 
ATOM      9  C   UNL     1      45.791   4.346   8.093  0.00  0.00    +0.000 A 
ATOM     10  C   UNL     1      46.324   3.718   6.980  0.00  0.00    +0.000 A 
ATOM     11  N   UNL     1      46.536   2.391   6.895  0.00  0.00    +0.000 NA
ATOM     12  C   UNL     1      46.206   1.654   7.965  0.00  0.00    +0.000 A 
ATOM     13  N   UNL     1      46.457   0.287   7.878  0.00  0.00    +0.000 N 
ATOM     14  C   UNL     1      45.684   2.202   9.132  0.00  0.00    +0.000 A 
ATOM     15  H   UNL     1      46.778   0.110   6.929  0.00  0.00    +0.000 HD
ATOM     16  H   UNL     1      45.636  -0.261   8.107  0.00  0.00    +0.000 HD
ENDBRANCH   6   8
BRANCH   1  17
ATOM     17  C   UNL     1      46.131   5.305  13.902  0.00  0.00    +0.000 C 
BRANCH  17  22
ATOM     18  C   UNL     1      49.431   3.809  17.245  0.00  0.00    +0.000 A 
ATOM     19  C   UNL     1      48.799   4.998  16.983  0.00  0.00    +0.000 A 
ATOM     20  N   UNL     1      47.769   5.116  16.124  0.00  0.00    +0.000 NA
ATOM     21  C   UNL     1      47.362   4.007  15.489  0.00  0.00    +0.000 A 
ATOM     22  N   UNL     1      46.274   4.066  14.641  0.00  0.00    +0.000 N 
ATOM     23  N   UNL     1      47.930   2.806  15.656  0.00  0.00    +0.000 NA
ATOM     24  C   UNL     1      48.964   2.731  16.531  0.00  0.00    +0.000 A 
ATOM     25  H   UNL     1      46.264   3.222  14.082  0.00  0.00    +0.000 HD
BRANCH  18  27
ATOM     26  N   UNL     1      51.321   2.553  18.092  0.00  0.00    +0.000 N 
ATOM     27  C   UNL     1      50.552   3.679  18.186  0.00  0.00    +0.000 C 
ATOM     28  O   UNL     1      50.797   4.556  19.000  0.00  0.00    +0.000 OA
ATOM     29  H   UNL     1      52.138   2.516  18.694  0.00  0.00    +0.000 HD
ATOM     30  H   UNL     1      51.314   1.930  17.298  0.00  0.00    +0.000 HD
ENDBRANCH  18  27
ENDBRANCH  17  22
ENDBRANCH   1  17
TORSDOF 4
ENDMDL
MODEL 5
REMARK VINA RESULT:    -7.530      2.637      3.146
REMARK INTER + INTRA:          -9.895
REMARK INTER:                  -9.298
REMARK INTRA:                  -0.597
REMARK UNBOUND:                -0.604
REMARK  Name = 
REMARK  4 active torsions:
REMARK  status: ('A' for Active; 'I' for Inactive)
REMARK    1  A    between atoms: C_2  and  C_4
REMARK    2  A    between atoms: N_8  and  C_9
REMARK    3  A    between atoms: C_9  and  C_10
REMARK    4  A    between atoms: C_15  and  C_16
REMARK                            x       y       z     vdW  Elec       q    Type
REMARK                         _______ _______ _______ _____ _____    ______ ____
ROOT
ATOM      1  C   UNL     1      44.743   6.562  11.587  0.00  0.00    +0.000 A 
ATOM      2  C   UNL     1      44.211   7.761  11.115  0.00  0.00    +0.000 A 
ATOM      3  C   UNL     1      44.762   8.962  11.541  0.00  0.00    +0.000 A 
ATOM      4  F   UNL     1      44.251  10.113  11.085  0.00  0.00    +0.000 F 
ATOM      5  C   UNL     1      45.830   8.997  12.437  0.00  0.00    +0.000 A 
ATOM      6  C   UNL     1      46.402   7.811  12.924  0.00  0.00    +0.000 A 
ATOM      7  C   UNL     1      45.846   6.603  12.463  0.00  0.00    +0.000 A 
ENDROOT
BRANCH   6   8
ATOM      8  C   UNL     1      47.527   7.817  13.889  0.00  0.00    +0.000 A 
ATOM      9  C   UNL     1      48.447   6.762  13.948  0.00  0.00    +0.000 A 
ATOM     10  C   UNL     1      49.490   6.818  14.859  0.00  0.00    +0.000 A 
ATOM     11  N   UNL     1      49.678   7.833  15.723  0.00  0.00    +0.000 NA
ATOM     12  C   UNL     1      48.794   8.840  15.680  0.00  0.00    +0.000 A 
ATOM     13  N   UNL     1      49.016   9.898  16.558  0.00  0.00    +0.000 N 
ATOM     14  C   UNL     1      47.730   8.877  14.786  0.00  0.00    +0.000 A 
ATOM     15  H   UNL     1      49.802   9.628  17.145  0.00  0.00    +0.000 HD
ATOM     16  H   UNL     1      48.190  10.110  17.106  0.00  0.00    +0.000 HD
ENDBRANCH   6   8
BRANCH   1  17
ATOM     17  C   UNL     1      44.185   5.226  11.157  0.00  0.00    +0.000 C 
BRANCH  17  22
ATOM     18  C   UNL     1      46.289   2.101   7.977  0.00  0.00    +0.000 A 
ATOM     19  C   UNL     1      45.679   1.965   9.198  0.00  0.00    +0.000 A 
ATOM     20  N   UNL     1      44.991   2.955   9.798  0.00  0.00    +0.000 NA
ATOM     21  C   UNL     1      44.921   4.134   9.162  0.00  0.00    +0.000 A 
ATOM     22  N   UNL     1      44.180   5.162   9.709  0.00  0.00    +0.000 N 
ATOM     23  N   UNL     1      45.504   4.375   7.980  0.00  0.00    +0.000 NA
ATOM     24  C   UNL     1      46.186   3.350   7.410  0.00  0.00    +0.000 A 
ATOM     25  H   UNL     1      44.433   6.020   9.235  0.00  0.00    +0.000 HD
BRANCH  18  27
ATOM     26  N   UNL     1      46.672  -0.263   7.618  0.00  0.00    +0.000 N 
ATOM     27  C   UNL     1      47.035   1.020   7.320  0.00  0.00    +0.000 C 
ATOM     28  O   UNL     1      47.927   1.265   6.521  0.00  0.00    +0.000 OA
ATOM     29  H   UNL     1      47.143  -0.996   7.096  0.00  0.00    +0.000 HD
ATOM     30  H   UNL     1      45.804  -0.513   8.069  0.00  0.00    +0.000 HD
ENDBRANCH  18  27
ENDBRANCH  17  22
ENDBRANCH   1  17
TORSDOF 4
ENDMDL
MODEL 6
REMARK VINA RESULT:    -6.873      3.211      7.204
REMARK INTER + INTRA:          -9.084
REMARK INTER:                  -8.444
REMARK INTRA:                  -0.640
REMARK UNBOUND:                -0.604
REMARK  Name = 
REMARK  4 active torsions:
REMARK  status: ('A' for Active; 'I' for Inactive)
REMARK    1  A    between atoms: C_2  and  C_4
REMARK    2  A    between atoms: N_8  and  C_9
REMARK    3  A    between atoms: C_9  and  C_10
REMARK    4  A    between atoms: C_15  and  C_16
REMARK                            x       y       z     vdW  Elec       q    Type
REMARK                         _______ _______ _______ _____ _____    ______ ____
ROOT
ATOM      1  C   UNL     1      45.129   4.730  12.714  0.00  0.00    +0.000 A 
ATOM      2  C   UNL     1      43.835   5.246  12.691  0.00  0.00    +0.000 A 
ATOM      3  C   UNL     1      43.065   5.097  11.546  0.00  0.00    +0.000 A 
ATOM      4  F   UNL     1      41.820   5.592  11.526  0.00  0.00    +0.000 F 
ATOM      5  C   UNL     1      43.559   4.450  10.414  0.00  0.00    +0.000 A 
ATOM      6  C   UNL     1      44.853   3.905  10.403  0.00  0.00    +0.000 A 
ATOM      7  C   UNL     1      45.610   4.044  11.581  0.00  0.00    +0.000 A 
ENDROOT
BRANCH   6   8
ATOM      8  C   UNL     1      45.412   3.225   9.210  0.00  0.00    +0.000 A 
ATOM      9  C   UNL     1      45.492   1.829   9.134  0.00  0.00    +0.000 A 
ATOM     10  C   UNL     1      46.012   1.238   7.993  0.00  0.00    +0.000 A 
ATOM     11  N   UNL     1      46.470   1.929   6.931  0.00  0.00    +0.000 NA
ATOM     12  C   UNL     1      46.406   3.266   7.004  0.00  0.00    +0.000 A 
ATOM     13  N   UNL     1      46.855   3.969   5.889  0.00  0.00    +0.000 N 
ATOM     14  C   UNL     1      45.882   3.942   8.100  0.00  0.00    +0.000 A 
ATOM     15  H   UNL     1      47.241   3.281   5.247  0.00  0.00    +0.000 HD
ATOM     16  H   UNL     1      47.536   4.676   6.140  0.00  0.00    +0.000 HD
ENDBRANCH   6   8
BRANCH   1  17
ATOM     17  C   UNL     1      46.011   4.863  13.933  0.00  0.00    +0.000 C 
BRANCH  17  22
ATOM     18  C   UNL     1      47.747   9.199  12.355  0.00  0.00    +0.000 A 
ATOM     19  C   UNL     1      46.845   8.816  13.315  0.00  0.00    +0.000 A 
ATOM     20  N   UNL     1      46.677   7.539  13.707  0.00  0.00    +0.000 NA
ATOM     21  C   UNL     1      47.428   6.603  13.107  0.00  0.00    +0.000 A 
ATOM     22  N   UNL     1      47.332   5.288  13.513  0.00  0.00    +0.000 N 
ATOM     23  N   UNL     1      48.317   6.872  12.142  0.00  0.00    +0.000 NA
ATOM     24  C   UNL     1      48.455   8.172  11.778  0.00  0.00    +0.000 A 
ATOM     25  H   UNL     1      47.773   4.708  12.810  0.00  0.00    +0.000 HD
BRANCH  18  27
ATOM     26  N   UNL     1      46.971  11.493  12.292  0.00  0.00    +0.000 N 
ATOM     27  C   UNL     1      47.934  10.593  11.931  0.00  0.00    +0.000 C 
ATOM     28  O   UNL     1      48.926  10.933  11.303  0.00  0.00    +0.000 OA
ATOM     29  H   UNL     1      47.155  12.465  12.061  0.00  0.00    +0.000 HD
ATOM     30  H   UNL     1      46.275  11.319  13.003  0.00  0.00    +0.000 HD
ENDBRANCH  18  27
ENDBRANCH  17  22
ENDBRANCH   1  17
TORSDOF 4
ENDMDL
MODEL 7
REMARK VINA RESULT:    -6.739      5.088      7.152
REMARK INTER + INTRA:          -8.919
REMARK INTER:                  -8.363
REMARK INTRA:                  -0.556
REMARK UNBOUND:                -0.604
REMARK  Name = 
REMARK  4 active torsions:
REMARK  status: ('A' for Active; 'I' for Inactive)
REMARK    1  A    between atoms: C_2  and  C_4
REMARK    2  A    between atoms: N_8  and  C_9
REMARK    3  A    between atoms: C_9  and  C_10
REMARK    4  A    between atoms: C_15  and  C_16
REMARK                            x       y       z     vdW  Elec       q    Type
REMARK                         _______ _______ _______ _____ _____    ______ ____
ROOT
ATOM      1  C   UNL     1      46.020   5.027  12.605  0.00  0.00    +0.000 A 
ATOM      2  C   UNL     1      45.183   4.245  11.811  0.00  0.00    +0.000 A 
ATOM      3  C   UNL     1      44.270   4.867  10.970  0.00  0.00    +0.000 A 
ATOM      4  F   UNL     1      43.467   4.114  10.206  0.00  0.00    +0.000 F 
ATOM      5  C   UNL     1      44.165   6.256  10.907  0.00  0.00    +0.000 A 
ATOM      6  C   UNL     1      44.999   7.077  11.681  0.00  0.00    +0.000 A 
ATOM      7  C   UNL     1      45.935   6.430  12.509  0.00  0.00    +0.000 A 
ENDROOT
BRANCH   6   8
ATOM      8  C   UNL     1      44.901   8.556  11.647  0.00  0.00    +0.000 A 
ATOM      9  C   UNL     1      45.947   9.371  12.100  0.00  0.00    +0.000 A 
ATOM     10  C   UNL     1      45.813  10.748  12.038  0.00  0.00    +0.000 A 
ATOM     11  N   UNL     1      44.715  11.376  11.574  0.00  0.00    +0.000 NA
ATOM     12  C   UNL     1      43.707  10.602  11.149  0.00  0.00    +0.000 A 
ATOM     13  N   UNL     1      42.590  11.261  10.644  0.00  0.00    +0.000 N 
ATOM     14  C   UNL     1      43.762   9.213  11.157  0.00  0.00    +0.000 A 
ATOM     15  H   UNL     1      42.747  12.256  10.792  0.00  0.00    +0.000 HD
ATOM     16  H   UNL     1      41.734  10.945  11.086  0.00  0.00    +0.000 HD
ENDBRANCH   6   8
BRANCH   1  17
ATOM     17  C   UNL     1      47.032   4.405  13.538  0.00  0.00    +0.000 C 
BRANCH  17  22
ATOM     18  C   UNL     1      48.601   4.314  18.211  0.00  0.00    +0.000 A 
ATOM     19  C   UNL     1      48.807   5.151  17.144  0.00  0.00    +0.000 A 
ATOM     20  N   UNL     1      48.100   5.081  15.999  0.00  0.00    +0.000 NA
ATOM     21  C   UNL     1      47.161   4.127  15.909  0.00  0.00    +0.000 A 
ATOM     22  N   UNL     1      46.372   4.050  14.779  0.00  0.00    +0.000 N 
ATOM     23  N   UNL     1      46.903   3.246  16.884  0.00  0.00    +0.000 NA
ATOM     24  C   UNL     1      47.637   3.353  18.020  0.00  0.00    +0.000 A 
ATOM     25  H   UNL     1      45.904   3.152  14.782  0.00  0.00    +0.000 HD
BRANCH  18  27
ATOM     26  N   UNL     1      48.767   3.927  20.596  0.00  0.00    +0.000 N 
ATOM     27  C   UNL     1      49.368   4.393  19.461  0.00  0.00    +0.000 C 
ATOM     28  O   UNL     1      50.507   4.836  19.474  0.00  0.00    +0.000 OA
ATOM     29  H   UNL     1      49.339   3.915  21.435  0.00  0.00    +0.000 HD
ATOM     30  H   UNL     1      47.945   3.340  20.598  0.00  0.00    +0.000 HD
ENDBRANCH  18  27
ENDBRANCH  17  22
ENDBRANCH   1  17
TORSDOF 4
ENDMDL
