MODEL 1
REMARK VINA RESULT:    -8.820      0.000      0.000
REMARK INTER + INTRA:         -11.281
REMARK INTER:                 -10.883
REMARK INTRA:                  -0.398
REMARK UNBOUND:                -0.398
REMARK  Name = 
REMARK  4 active torsions:
REMARK  status: ('A' for Active; 'I' for Inactive)
REMARK    1  A    between atoms: C_2  and  C_4
REMARK    2  A    between atoms: N_8  and  C_9
REMARK    3  A    between atoms: C_9  and  C_10
REMARK    4  A    between atoms: C_12  and  C_13
REMARK                            x       y       z     vdW  Elec       q    Type
REMARK                         _______ _______ _______ _____ _____    ______ ____
ROOT
ATOM      1  C   UNL     1      43.465   3.766  11.068  0.00  0.00    +0.000 C 
ENDROOT
BRANCH   1   6
ATOM      2  C   UNL     1      46.647   2.517   7.198  0.00  0.00    +0.000 A 
ATOM      3  C   UNL     1      46.147   3.753   7.590  0.00  0.00    +0.000 A 
ATOM      4  C   UNL     1      45.305   3.822   8.702  0.00  0.00    +0.000 A 
ATOM      5  C   UNL     1      44.980   2.665   9.400  0.00  0.00    +0.000 A 
ATOM      6  N   UNL     1      44.170   2.644  10.499  0.00  0.00    +0.000 N 
ATOM      7  N   UNL     1      45.453   1.462   9.019  0.00  0.00    +0.000 NA
ATOM      8  C   UNL     1      46.261   1.405   7.926  0.00  0.00    +0.000 A 
ATOM      9  H   UNL     1      44.053   1.722  10.898  0.00  0.00    +0.000 HD
BRANCH   2  11
ATOM     10  N   UNL     1      47.462   3.298   5.051  0.00  0.00    +0.000 N 
ATOM     11  C   UNL     1      47.546   2.355   6.039  0.00  0.00    +0.000 C 
ATOM     12  O   UNL     1      48.355   1.439   5.978  0.00  0.00    +0.000 OA
ATOM     13  H   UNL     1      48.152   3.238   4.312  0.00  0.00    +0.000 HD
ATOM     14  H   UNL     1      46.990   4.181   5.177  0.00  0.00    +0.000 HD
ENDBRANCH   2  11
ENDBRANCH   1   6
BRANCH   1  15
ATOM     15  C   UNL     1      44.417   4.729  11.723  0.00  0.00    +0.000 A 
ATOM     16  C   UNL     1      44.323   6.111  11.474  0.00  0.00    +0.000 A 
ATOM     17  C   UNL     1      45.212   7.040  12.053  0.00  0.00    +0.000 A 
ATOM     18  C   UNL     1      46.211   6.530  12.904  0.00  0.00    +0.000 A 
ATOM     19  C   UNL     1      46.320   5.159  13.157  0.00  0.00    +0.000 A 
ATOM     20  C   UNL     1      45.427   4.275  12.567  0.00  0.00    +0.000 A 
ATOM     21  F   UNL     1      45.555   2.965  12.823  0.00  0.00    +0.000 F 
BRANCH  17  22
ATOM     22  C   UNL     1      45.106   8.487  11.763  0.00  0.00    +0.000 A 
ATOM     23  C   UNL     1      44.048   9.030  11.015  0.00  0.00    +0.000 A 
ATOM     24  C   UNL     1      43.989  10.397  10.748  0.00  0.00    +0.000 A 
ATOM     25  C   UNL     1      44.992  11.208  11.246  0.00  0.00    +0.000 A 
ATOM     26  N   UNL     1      46.028  10.746  11.972  0.00  0.00    +0.000 NA
ATOM     27  C   UNL     1      46.060   9.410  12.204  0.00  0.00    +0.000 A 
ENDBRANCH  17  22
ENDBRANCH   1  15
TORSDOF 4
ENDMDL
MODEL 2
REMARK VINA RESULT:    -8.643      2.302      3.908
REMARK INTER + INTRA:         -11.063
REMARK INTER:                 -10.521
REMARK INTRA:                  -0.541
REMARK UNBOUND:                -0.398
REMARK  Name = 
REMARK  4 active torsions:
REMARK  status: ('A' for Active; 'I' for Inactive)
REMARK    1  A    between atoms: C_2  and  C_4
REMARK    2  A    between atoms: N_8  and  C_9
REMARK    3  A    between atoms: C_9  and  C_10
REMARK    4  A    between atoms: C_12  and  C_13
REMARK                            x       y       z     vdW  Elec       q    Type
REMARK                         _______ _______ _______ _____ _____    ______ ____
ROOT
ATOM      1  C   UNL     1      43.405   3.393  11.348  0.00  0.00    +0.000 C 
ENDROOT
BRANCH   1   6
ATOM      2  C   UNL     1      46.502   2.743   7.267  0.00  0.00    +0.000 A 
ATOM      3  C   UNL     1      45.837   3.875   7.722  0.00  0.00    +0.000 A 
ATOM      4  C   UNL     1      45.065   3.787   8.882  0.00  0.00    +0.000 A 
ATOM      5  C   UNL     1      44.971   2.581   9.565  0.00  0.00    +0.000 A 
ATOM      6  N   UNL     1      44.243   2.410  10.708  0.00  0.00    +0.000 N 
ATOM      7  N   UNL     1      45.604   1.476   9.124  0.00  0.00    +0.000 NA
ATOM      8  C   UNL     1      46.342   1.570   7.985  0.00  0.00    +0.000 A 
ATOM      9  H   UNL     1      44.299   1.474  11.087  0.00  0.00    +0.000 HD
BRANCH   2  11
ATOM     10  N   UNL     1      48.680   2.520   6.226  0.00  0.00    +0.000 N 
ATOM     11  C   UNL     1      47.343   2.748   6.055  0.00  0.00    +0.000 C 
ATOM     12  O   UNL     1      46.862   2.916   4.942  0.00  0.00    +0.000 OA
ATOM     13  H   UNL     1      49.232   2.422   5.382  0.00  0.00    +0.000 HD
ATOM     14  H   UNL     1      49.067   2.146   7.080  0.00  0.00    +0.000 HD
ENDBRANCH   2  11
ENDBRANCH   1   6
BRANCH   1  15
ATOM     15  C   UNL     1      44.222   4.545  11.867  0.00  0.00    +0.000 A 
ATOM     16  C   UNL     1      45.182   4.345  12.878  0.00  0.00    +0.000 A 
ATOM     17  C   UNL     1      45.949   5.406  13.404  0.00  0.00    +0.000 A 
ATOM     18  C   UNL     1      45.721   6.689  12.873  0.00  0.00    +0.000 A 
ATOM     19  C   UNL     1      44.768   6.904  11.873  0.00  0.00    +0.000 A 
ATOM     20  C   UNL     1      44.031   5.835  11.381  0.00  0.00    +0.000 A 
ATOM     21  F   UNL     1      43.120   6.068  10.424  0.00  0.00    +0.000 F 
BRANCH  17  22
ATOM     22  C   UNL     1      46.940   5.176  14.478  0.00  0.00    +0.000 A 
ATOM     23  C   UNL     1      46.913   4.034  15.296  0.00  0.00    +0.000 A 
ATOM     24  C   UNL     1      47.854   3.859  16.310  0.00  0.00    +0.000 A 
ATOM     25  C   UNL     1      48.820   4.831  16.485  0.00  0.00    +0.000 A 
ATOM     26  N   UNL     1      48.899   5.945  15.730  0.00  0.00    +0.000 NA
ATOM     27  C   UNL     1      47.962   6.088  14.760  0.00  0.00    +0.000 A 
ENDBRANCH  17  22
ENDBRANCH   1  15
TORSDOF 4
ENDMDL
MODEL 3
REMARK VINA RESULT:    -8.179      3.306      6.886
REMARK INTER + INTRA:         -10.489
REMARK INTER:                  -9.651
REMARK INTRA:                  -0.838
REMARK UNBOUND:                -0.398
REMARK  Name = 
REMARK  4 active torsions:
REMARK  status: ('A' for Active; 'I' for Inactive)
REMARK    1  A    between atoms: C_2  and  C_4
REMARK    2  A    between atoms: N_8  and  C_9
REMARK    3  A    between atoms: C_9  and  C_10
REMARK    4  A    between atoms: C_12  and  C_13
REMARK                            x       y       z     vdW  Elec       q    Type
REMARK                         _______ _______ _______ _____ _____    ______ ____
ROOT
ATOM      1  C   UNL     1      44.539   6.442  12.318  0.00  0.00    +0.000 C 
ENDROOT
BRANCH   1   6
ATOM      2  C   UNL     1      49.522   7.753  12.667  0.00  0.00    +0.000 A 
ATOM      3  C   UNL     1      48.621   7.908  11.620  0.00  0.00    +0.000 A 
ATOM      4  C   UNL     1      47.303   7.479  11.791  0.00  0.00    +0.000 A 
ATOM      5  C   UNL     1      46.909   6.909  12.996  0.00  0.00    +0.000 A 
ATOM      6  N   UNL     1      45.641   6.468  13.248  0.00  0.00    +0.000 N 
ATOM      7  N   UNL     1      47.779   6.746  14.012  0.00  0.00    +0.000 NA
ATOM      8  C   UNL     1      49.064   7.154  13.828  0.00  0.00    +0.000 A 
ATOM      9  H   UNL     1      45.519   6.099  14.182  0.00  0.00    +0.000 HD
BRANCH   2  11
ATOM     10  N   UNL     1      51.707   8.010  13.686  0.00  0.00    +0.000 N 
ATOM     11  C   UNL     1      50.930   8.183  12.573  0.00  0.00    +0.000 C 
ATOM     12  O   UNL     1      51.393   8.643  11.538  0.00  0.00    +0.000 OA
ATOM     13  H   UNL     1      52.694   8.211  13.582  0.00  0.00    +0.000 HD
ATOM     14  H   UNL     1      51.431   7.425  14.461  0.00  0.00    +0.000 HD
ENDBRANCH   2  11
ENDBRANCH   1   6
BRANCH   1  15
ATOM     15  C   UNL     1      44.368   5.071  11.721  0.00  0.00    +0.000 A 
ATOM     16  C   UNL     1      45.052   4.712  10.544  0.00  0.00    +0.000 A 
ATOM     17  C   UNL     1      44.898   3.444   9.944  0.00  0.00    +0.000 A 
ATOM     18  C   UNL     1      44.026   2.536  10.575  0.00  0.00    +0.000 A 
ATOM     19  C   UNL     1      43.336   2.881  11.741  0.00  0.00    +0.000 A 
ATOM     20  C   UNL     1      43.513   4.139  12.301  0.00  0.00    +0.000 A 
ATOM     21  F   UNL     1      42.837   4.446  13.418  0.00  0.00    +0.000 F 
BRANCH  17  22
ATOM     22  C   UNL     1      45.612   3.094   8.697  0.00  0.00    +0.000 A 
ATOM     23  C   UNL     1      46.041   1.786   8.417  0.00  0.00    +0.000 A 
ATOM     24  C   UNL     1      46.727   1.496   7.238  0.00  0.00    +0.000 A 
ATOM     25  C   UNL     1      46.965   2.524   6.346  0.00  0.00    +0.000 A 
ATOM     26  N   UNL     1      46.574   3.796   6.557  0.00  0.00    +0.000 NA
ATOM     27  C   UNL     1      45.920   4.045   7.719  0.00  0.00    +0.000 A 
ENDBRANCH  17  22
ENDBRANCH   1  15
TORSDOF 4
ENDMDL
MODEL 4
REMARK VINA RESULT:    -8.018      3.393      7.443
REMARK INTER + INTRA:         -10.291
REMARK INTER:                  -9.661
REMARK INTRA:                  -0.631
REMARK UNBOUND:                -0.398
REMARK  Name = 
REMARK  4 active torsions:
REMARK  status: ('A' for Active; 'I' for Inactive)
REMARK    1  A    between atoms: C_2  and  C_4
REMARK    2  A    between atoms: N_8  and  C_9
REMARK    3  A    between atoms: C_9  and  C_10
REMARK    4  A    between atoms: C_12  and  C_13
REMARK                            x       y       z     vdW  Elec       q    Type
REMARK                         _______ _______ _______ _____ _____    ______ ____
ROOT
ATOM      1  C   UNL     1      44.500   6.104  10.992  0.00  0.00    +0.000 C 
ENDROOT
BRANCH   1   6
ATOM      2  C   UNL     1      47.581   5.305  15.059  0.00  0.00    +0.000 A 
ATOM      3  C   UNL     1      46.372   4.712  14.713  0.00  0.00    +0.000 A 
ATOM      4  C   UNL     1      45.740   5.100  13.531  0.00  0.00    +0.000 A 
ATOM      5  C   UNL     1      46.321   6.064  12.716  0.00  0.00    +0.000 A 
ATOM      6  N   UNL     1      45.774   6.497  11.542  0.00  0.00    +0.000 N 
ATOM      7  N   UNL     1      47.488   6.651  13.049  0.00  0.00    +0.000 NA
ATOM      8  C   UNL     1      48.087   6.276  14.212  0.00  0.00    +0.000 A 
ATOM      9  H   UNL     1      46.336   7.187  11.063  0.00  0.00    +0.000 HD
BRANCH   2  11
ATOM     10  N   UNL     1      47.643   4.219  17.226  0.00  0.00    +0.000 N 
ATOM     11  C   UNL     1      48.318   4.951  16.287  0.00  0.00    +0.000 C 
ATOM     12  O   UNL     1      49.489   5.267  16.445  0.00  0.00    +0.000 OA
ATOM     13  H   UNL     1      48.186   3.892  18.017  0.00  0.00    +0.000 HD
ATOM     14  H   UNL     1      46.775   3.744  17.030  0.00  0.00    +0.000 HD
ENDBRANCH   2  11
ENDBRANCH   1   6
BRANCH   1  15
ATOM     15  C   UNL     1      44.547   4.694  10.468  0.00  0.00    +0.000 A 
ATOM     16  C   UNL     1      45.354   4.367   9.362  0.00  0.00    +0.000 A 
ATOM     17  C   UNL     1      45.406   3.062   8.831  0.00  0.00    +0.000 A 
ATOM     18  C   UNL     1      44.614   2.081   9.458  0.00  0.00    +0.000 A 
ATOM     19  C   UNL     1      43.804   2.392  10.554  0.00  0.00    +0.000 A 
ATOM     20  C   UNL     1      43.778   3.689  11.047  0.00  0.00    +0.000 A 
ATOM     21  F   UNL     1      42.990   3.963  12.098  0.00  0.00    +0.000 F 
BRANCH  17  22
ATOM     22  C   UNL     1      46.248   2.744   7.657  0.00  0.00    +0.000 A 
ATOM     23  C   UNL     1      46.334   3.592   6.540  0.00  0.00    +0.000 A 
ATOM     24  C   UNL     1      47.125   3.252   5.443  0.00  0.00    +0.000 A 
ATOM     25  C   UNL     1      47.831   2.065   5.485  0.00  0.00    +0.000 A 
ATOM     26  N   UNL     1      47.792   1.214   6.529  0.00  0.00    +0.000 NA
ATOM     27  C   UNL     1      47.004   1.571   7.574  0.00  0.00    +0.000 A 
ENDBRANCH  17  22
ENDBRANCH   1  15
TORSDOF 4
ENDMDL
MODEL 5
REMARK VINA RESULT:    -7.415      4.617      8.156
REMARK INTER + INTRA:          -9.547
REMARK INTER:                  -9.033
REMARK INTRA:                  -0.514
REMARK UNBOUND:                -0.398
REMARK  Name = 
REMARK  4 active torsions:
REMARK  status: ('A' for Active; 'I' for Inactive)
REMARK    1  A    between atoms: C_2  and  C_4
REMARK    2  A    between atoms: N_8  and  C_9
REMARK    3  A    between atoms: C_9  and  C_10
REMARK    4  A    between atoms: C_12  and  C_13
REMARK                            x       y       z     vdW  Elec       q    Type
REMARK                         _______ _______ _______ _____ _____    ______ ____
ROOT
ATOM      1  C   UNL     1      45.869   4.923  13.233  0.00  0.00    +0.000 C 
ENDROOT
BRANCH   1   6
ATOM      2  C   UNL     1      49.036   4.896  17.311  0.00  0.00    +0.000 A 
ATOM      3  C   UNL     1      48.793   5.885  16.366  0.00  0.00    +0.000 A 
ATOM      4  C   UNL     1      47.858   5.644  15.358  0.00  0.00    +0.000 A 
ATOM      5  C   UNL     1      47.185   4.429  15.310  0.00  0.00    +0.000 A 
ATOM      6  N   UNL     1      46.253   4.114  14.363  0.00  0.00    +0.000 N 
ATOM      7  N   UNL     1      47.423   3.461  16.217  0.00  0.00    +0.000 NA
ATOM      8  C   UNL     1      48.347   3.702  17.187  0.00  0.00    +0.000 A 
ATOM      9  H   UNL     1      45.845   3.197  14.486  0.00  0.00    +0.000 HD
BRANCH   2  11
ATOM     10  N   UNL     1      50.444   3.934  19.035  0.00  0.00    +0.000 N 
ATOM     11  C   UNL     1      50.003   5.069  18.413  0.00  0.00    +0.000 C 
ATOM     12  O   UNL     1      50.418   6.175  18.733  0.00  0.00    +0.000 OA
ATOM     13  H   UNL     1      51.182   4.053  19.718  0.00  0.00    +0.000 HD
ATOM     14  H   UNL     1      50.313   3.011  18.648  0.00  0.00    +0.000 HD
ENDBRANCH   2  11
ENDBRANCH   1   6
BRANCH   1  15
ATOM     15  C   UNL     1      45.154   4.100  12.195  0.00  0.00    +0.000 A 
ATOM     16  C   UNL     1      45.772   3.803  10.965  0.00  0.00    +0.000 A 
ATOM     17  C   UNL     1      45.123   3.054   9.962  0.00  0.00    +0.000 A 
ATOM     18  C   UNL     1      43.818   2.603  10.238  0.00  0.00    +0.000 A 
ATOM     19  C   UNL     1      43.190   2.894  11.453  0.00  0.00    +0.000 A 
ATOM     20  C   UNL     1      43.860   3.636  12.416  0.00  0.00    +0.000 A 
ATOM     21  F   UNL     1      43.235   3.905  13.572  0.00  0.00    +0.000 F 
BRANCH  17  22
ATOM     22  C   UNL     1      45.784   2.769   8.669  0.00  0.00    +0.000 A 
ATOM     23  C   UNL     1      46.025   3.767   7.711  0.00  0.00    +0.000 A 
ATOM     24  C   UNL     1      46.636   3.458   6.496  0.00  0.00    +0.000 A 
ATOM     25  C   UNL     1      47.009   2.148   6.262  0.00  0.00    +0.000 A 
ATOM     26  N   UNL     1      46.808   1.150   7.144  0.00  0.00    +0.000 NA
ATOM     27  C   UNL     1      46.202   1.484   8.310  0.00  0.00    +0.000 A 
ENDBRANCH  17  22
ENDBRANCH   1  15
TORSDOF 4
ENDMDL
MODEL 6
REMARK VINA RESULT:    -7.403      3.019      6.837
REMARK INTER + INTRA:          -9.532
REMARK INTER:                  -8.947
REMARK INTRA:                  -0.585
REMARK UNBOUND:                -0.398
REMARK  Name = 
REMARK  4 active torsions:
REMARK  status: ('A' for Active; 'I' for Inactive)
REMARK    1  A    between atoms: C_2  and  C_4
REMARK    2  A    between atoms: N_8  and  C_9
REMARK    3  A    between atoms: C_9  and  C_10
REMARK    4  A    between atoms: C_12  and  C_13
REMARK                            x       y       z     vdW  Elec       q    Type
REMARK                         _______ _______ _______ _____ _____    ______ ____
ROOT
ATOM      1  C   UNL     1      45.637   4.471  13.719  0.00  0.00    +0.000 C 
ENDROOT
BRANCH   1   6
ATOM      2  C   UNL     1      48.495   8.444  12.071  0.00  0.00    +0.000 A 
ATOM      3  C   UNL     1      47.116   8.312  12.186  0.00  0.00    +0.000 A 
ATOM      4  C   UNL     1      46.589   7.120  12.687  0.00  0.00    +0.000 A 
ATOM      5  C   UNL     1      47.439   6.088  13.064  0.00  0.00    +0.000 A 
ATOM      6  N   UNL     1      47.007   4.894  13.567  0.00  0.00    +0.000 N 
ATOM      7  N   UNL     1      48.777   6.204  12.945  0.00  0.00    +0.000 NA
ATOM      8  C   UNL     1      49.279   7.365  12.442  0.00  0.00    +0.000 A 
ATOM      9  H   UNL     1      47.758   4.261  13.809  0.00  0.00    +0.000 HD
BRANCH   2  11
ATOM     10  N   UNL     1      48.333  10.763  11.381  0.00  0.00    +0.000 N 
ATOM     11  C   UNL     1      49.136   9.669  11.557  0.00  0.00    +0.000 C 
ATOM     12  O   UNL     1      50.338   9.717  11.331  0.00  0.00    +0.000 OA
ATOM     13  H   UNL     1      48.798  11.626  11.128  0.00  0.00    +0.000 HD
ATOM     14  H   UNL     1      47.407  10.831  11.777  0.00  0.00    +0.000 HD
ENDBRANCH   2  11
ENDBRANCH   1   6
BRANCH   1  15
ATOM     15  C   UNL     1      44.934   4.424  12.389  0.00  0.00    +0.000 A 
ATOM     16  C   UNL     1      45.536   3.799  11.281  0.00  0.00    +0.000 A 
ATOM     17  C   UNL     1      44.916   3.756  10.015  0.00  0.00    +0.000 A 
ATOM     18  C   UNL     1      43.653   4.367   9.897  0.00  0.00    +0.000 A 
ATOM     19  C   UNL     1      43.045   4.996  10.987  0.00  0.00    +0.000 A 
ATOM     20  C   UNL     1      43.687   5.019  12.218  0.00  0.00    +0.000 A 
ATOM     21  F   UNL     1      43.084   5.632  13.247  0.00  0.00    +0.000 F 
BRANCH  17  22
ATOM     22  C   UNL     1      45.576   3.109   8.860  0.00  0.00    +0.000 A 
ATOM     23  C   UNL     1      46.020   3.835   7.743  0.00  0.00    +0.000 A 
ATOM     24  C   UNL     1      46.623   3.188   6.664  0.00  0.00    +0.000 A 
ATOM     25  C   UNL     1      46.783   1.817   6.725  0.00  0.00    +0.000 A 
ATOM     26  N   UNL     1      46.381   1.069   7.771  0.00  0.00    +0.000 NA
ATOM     27  C   UNL     1      45.789   1.728   8.797  0.00  0.00    +0.000 A 
ENDBRANCH  17  22
ENDBRANCH   1  15
TORSDOF 4
ENDMDL
MODEL 7
REMARK VINA RESULT:    -6.998      6.109      8.437
REMARK INTER + INTRA:          -9.033
REMARK INTER:                  -8.228
REMARK INTRA:                  -0.805
REMARK UNBOUND:                -0.398
REMARK  Name = 
REMARK  4 active torsions:
REMARK  status: ('A' for Active; 'I' for Inactive)
REMARK    1  A    between atoms: C_2  and  C_4
REMARK    2  A    between atoms: N_8  and  C_9
REMARK    3  A    between atoms: C_9  and  C_10
REMARK    4  A    between atoms: C_12  and  C_13
REMARK                            x       y       z     vdW  Elec       q    Type
REMARK                         _______ _______ _______ _____ _____    ______ ____
ROOT
ATOM      1  C   UNL     1      47.461   4.059  16.816  0.00  0.00    +0.000 C 
ENDROOT
BRANCH   1   6
ATOM      2  C   UNL     1      52.246   2.392  17.810  0.00  0.00    +0.000 A 
ATOM      3  C   UNL     1      51.636   3.606  18.102  0.00  0.00    +0.000 A 
ATOM      4  C   UNL     1      50.304   3.800  17.735  0.00  0.00    +0.000 A 
ATOM      5  C   UNL     1      49.605   2.787  17.090  0.00  0.00    +0.000 A 
ATOM      6  N   UNL     1      48.300   2.892  16.702  0.00  0.00    +0.000 N 
ATOM      7  N   UNL     1      50.193   1.611  16.794  0.00  0.00    +0.000 NA
ATOM      8  C   UNL     1      51.497   1.438  17.143  0.00  0.00    +0.000 A 
ATOM      9  H   UNL     1      47.939   2.055  16.264  0.00  0.00    +0.000 HD
BRANCH   2  11
ATOM     10  N   UNL     1      53.960   2.085  19.498  0.00  0.00    +0.000 N 
ATOM     11  C   UNL     1      53.648   2.101  18.166  0.00  0.00    +0.000 C 
ATOM     12  O   UNL     1      54.488   1.851  17.312  0.00  0.00    +0.000 OA
ATOM     13  H   UNL     1      54.897   1.783  19.738  0.00  0.00    +0.000 HD
ATOM     14  H   UNL     1      53.259   2.047  20.223  0.00  0.00    +0.000 HD
ENDBRANCH   2  11
ENDBRANCH   1   6
BRANCH   1  15
ATOM     15  C   UNL     1      47.415   4.821  15.519  0.00  0.00    +0.000 A 
ATOM     16  C   UNL     1      46.574   4.401  14.471  0.00  0.00    +0.000 A 
ATOM     17  C   UNL     1      46.522   5.077  13.234  0.00  0.00    +0.000 A 
ATOM     18  C   UNL     1      47.350   6.206  13.083  0.00  0.00    +0.000 A 
ATOM     19  C   UNL     1      48.194   6.632  14.113  0.00  0.00    +0.000 A 
ATOM     20  C   UNL     1      48.219   5.939  15.316  0.00  0.00    +0.000 A 
ATOM     21  F   UNL     1      49.039   6.366  16.287  0.00  0.00    +0.000 F 
BRANCH  17  22
ATOM     22  C   UNL     1      45.644   4.608  12.139  0.00  0.00    +0.000 A 
ATOM     23  C   UNL     1      45.479   5.329  10.946  0.00  0.00    +0.000 A 
ATOM     24  C   UNL     1      44.629   4.863   9.942  0.00  0.00    +0.000 A 
ATOM     25  C   UNL     1      43.963   3.670  10.146  0.00  0.00    +0.000 A 
ATOM     26  N   UNL     1      44.085   2.934  11.267  0.00  0.00    +0.000 NA
ATOM     27  C   UNL     1      44.910   3.421  12.227  0.00  0.00    +0.000 A 
ENDBRANCH  17  22
ENDBRANCH   1  15
TORSDOF 4
ENDMDL
MODEL 8
REMARK VINA RESULT:    -6.709      5.685      8.670
REMARK INTER + INTRA:          -8.677
REMARK INTER:                  -8.150
REMARK INTRA:                  -0.526
REMARK UNBOUND:                -0.398
REMARK  Name = 
REMARK  4 active torsions:
REMARK  status: ('A' for Active; 'I' for Inactive)
REMARK    1  A    between atoms: C_2  and  C_4
REMARK    2  A    between atoms: N_8  and  C_9
REMARK    3  A    between atoms: C_9  and  C_10
REMARK    4  A    between atoms: C_12  and  C_13
REMARK                            x       y       z     vdW  Elec       q    Type
REMARK                         _______ _______ _______ _____ _____    ______ ____
ROOT
ATOM      1  C   UNL     1      48.261   6.725  14.117  0.00  0.00    +0.000 C 
ENDROOT
BRANCH   1   6
ATOM      2  C   UNL     1      50.106   5.177  18.685  0.00  0.00    +0.000 A 
ATOM      3  C   UNL     1      50.695   5.947  17.689  0.00  0.00    +0.000 A 
ATOM      4  C   UNL     1      49.962   6.244  16.539  0.00  0.00    +0.000 A 
ATOM      5  C   UNL     1      48.661   5.774  16.403  0.00  0.00    +0.000 A 
ATOM      6  N   UNL     1      47.874   6.022  15.315  0.00  0.00    +0.000 N 
ATOM      7  N   UNL     1      48.087   5.018  17.359  0.00  0.00    +0.000 NA
ATOM      8  C   UNL     1      48.816   4.723  18.470  0.00  0.00    +0.000 A 
ATOM      9  H   UNL     1      46.948   5.623  15.386  0.00  0.00    +0.000 HD
BRANCH   2  11
ATOM     10  N   UNL     1      51.963   4.102  19.813  0.00  0.00    +0.000 N 
ATOM     11  C   UNL     1      50.806   4.821  19.934  0.00  0.00    +0.000 C 
ATOM     12  O   UNL     1      50.391   5.181  21.027  0.00  0.00    +0.000 OA
ATOM     13  H   UNL     1      52.491   3.951  20.665  0.00  0.00    +0.000 HD
ATOM     14  H   UNL     1      52.454   3.998  18.937  0.00  0.00    +0.000 HD
ENDBRANCH   2  11
ENDBRANCH   1   6
BRANCH   1  15
ATOM     15  C   UNL     1      47.088   6.904  13.191  0.00  0.00    +0.000 A 
ATOM     16  C   UNL     1      46.698   5.868  12.321  0.00  0.00    +0.000 A 
ATOM     17  C   UNL     1      45.619   6.009  11.424  0.00  0.00    +0.000 A 
ATOM     18  C   UNL     1      44.932   7.238  11.432  0.00  0.00    +0.000 A 
ATOM     19  C   UNL     1      45.311   8.277  12.287  0.00  0.00    +0.000 A 
ATOM     20  C   UNL     1      46.380   8.101  13.155  0.00  0.00    +0.000 A 
ATOM     21  F   UNL     1      46.726   9.115  13.963  0.00  0.00    +0.000 F 
BRANCH  17  22
ATOM     22  C   UNL     1      45.237   4.914  10.505  0.00  0.00    +0.000 A 
ATOM     23  C   UNL     1      45.608   4.903   9.151  0.00  0.00    +0.000 A 
ATOM     24  C   UNL     1      45.216   3.862   8.310  0.00  0.00    +0.000 A 
ATOM     25  C   UNL     1      44.462   2.834   8.845  0.00  0.00    +0.000 A 
ATOM     26  N   UNL     1      44.080   2.787  10.136  0.00  0.00    +0.000 NA
ATOM     27  C   UNL     1      44.470   3.821  10.922  0.00  0.00    +0.000 A 
ENDBRANCH  17  22
ENDBRANCH   1  15
TORSDOF 4
ENDMDL
MODEL 9
REMARK VINA RESULT:    -6.657      4.914      7.290
REMARK INTER + INTRA:          -8.611
REMARK INTER:                  -8.033
REMARK INTRA:                  -0.578
REMARK UNBOUND:                -0.398
REMARK  Name = 
REMARK  4 active torsions:
REMARK  status: ('A' for Active; 'I' for Inactive)
REMARK    1  A    between atoms: C_2  and  C_4
REMARK    2  A    between atoms: N_8  and  C_9
REMARK    3  A    between atoms: C_9  and  C_10
REMARK    4  A    between atoms: C_12  and  C_13
REMARK                            x       y       z     vdW  Elec       q    Type
REMARK                         _______ _______ _______ _____ _____    ______ ____
ROOT
ATOM      1  C   UNL     1      46.984   4.523  13.352  0.00  0.00    +0.000 C 
ENDROOT
BRANCH   1   6
ATOM      2  C   UNL     1      48.350   4.712  18.329  0.00  0.00    +0.000 A 
ATOM      3  C   UNL     1      48.843   5.408  17.231  0.00  0.00    +0.000 A 
ATOM      4  C   UNL     1      48.277   5.183  15.976  0.00  0.00    +0.000 A 
ATOM      5  C   UNL     1      47.234   4.276  15.835  0.00  0.00    +0.000 A 
ATOM      6  N   UNL     1      46.621   4.001  14.646  0.00  0.00    +0.000 N 
ATOM      7  N   UNL     1      46.757   3.589  16.893  0.00  0.00    +0.000 NA
ATOM      8  C   UNL     1      47.326   3.806  18.110  0.00  0.00    +0.000 A 
ATOM      9  H   UNL     1      45.867   3.331  14.725  0.00  0.00    +0.000 HD
BRANCH   2  11
ATOM     10  N   UNL     1      48.543   3.951  20.623  0.00  0.00    +0.000 N 
ATOM     11  C   UNL     1      48.885   4.893  19.691  0.00  0.00    +0.000 C 
ATOM     12  O   UNL     1      49.629   5.824  19.970  0.00  0.00    +0.000 OA
ATOM     13  H   UNL     1      48.996   4.025  21.525  0.00  0.00    +0.000 HD
ATOM     14  H   UNL     1      48.139   3.060  20.376  0.00  0.00    +0.000 HD
ENDBRANCH   2  11
ENDBRANCH   1   6
BRANCH   1  15
ATOM     15  C   UNL     1      45.800   5.154  12.671  0.00  0.00    +0.000 A 
ATOM     16  C   UNL     1      45.779   6.537  12.405  0.00  0.00    +0.000 A 
ATOM     17  C   UNL     1      44.677   7.166  11.790  0.00  0.00    +0.000 A 
ATOM     18  C   UNL     1      43.584   6.351  11.441  0.00  0.00    +0.000 A 
ATOM     19  C   UNL     1      43.587   4.977  11.704  0.00  0.00    +0.000 A 
ATOM     20  C   UNL     1      44.690   4.394  12.313  0.00  0.00    +0.000 A 
ATOM     21  F   UNL     1      44.668   3.075  12.557  0.00  0.00    +0.000 F 
BRANCH  17  22
ATOM     22  C   UNL     1      44.670   8.623  11.536  0.00  0.00    +0.000 A 
ATOM     23  C   UNL     1      45.672   9.478  12.023  0.00  0.00    +0.000 A 
ATOM     24  C   UNL     1      45.623  10.850  11.777  0.00  0.00    +0.000 A 
ATOM     25  C   UNL     1      44.570  11.347  11.034  0.00  0.00    +0.000 A 
ATOM     26  N   UNL     1      43.582  10.577  10.538  0.00  0.00    +0.000 NA
ATOM     27  C   UNL     1      43.655   9.249  10.804  0.00  0.00    +0.000 A 
ENDBRANCH  17  22
ENDBRANCH   1  15
TORSDOF 4
ENDMDL
