MODEL 1
REMARK VINA RESULT:    -7.417      0.000      0.000
REMARK INTER + INTRA:          -9.790
REMARK INTER:                  -9.368
REMARK INTRA:                  -0.422
REMARK UNBOUND:                -0.422
REMARK  Name = 
REMARK  5 active torsions:
REMARK  status: ('A' for Active; 'I' for Inactive)
REMARK    1  A    between atoms: N_1  and  C_2
REMARK    2  A    between atoms: C_2  and  C_3
REMARK    3  A    between atoms: C_3  and  C_4
REMARK    4  A    between atoms: C_8  and  C_9
REMARK    5  A    between atoms: C_9  and  N_10
REMARK                            x       y       z     vdW  Elec       q    Type
REMARK                         _______ _______ _______ _____ _____    ______ ____
ROOT
ATOM      1  C   UNL     1      45.491   5.306  12.571  0.00  0.00    +0.000 A 
ATOM      2  C   UNL     1      44.246   5.213  13.203  0.00  0.00    +0.000 A 
ATOM      3  C   UNL     1      43.098   4.958  12.458  0.00  0.00    +0.000 A 
ATOM      4  C   UNL     1      43.182   4.782  11.077  0.00  0.00    +0.000 A 
ATOM      5  C   UNL     1      44.423   4.863  10.427  0.00  0.00    +0.000 A 
ATOM      6  C   UNL     1      45.574   5.120  11.186  0.00  0.00    +0.000 A 
ENDROOT
BRANCH   1   7
ATOM      7  C   UNL     1      46.734   5.617  13.375  0.00  0.00    +0.000 C 
BRANCH   7   8
ATOM      8  C   UNL     1      46.975   4.633  14.521  0.00  0.00    +0.000 C 
BRANCH   8   9
ATOM      9  N   UNL     1      47.238   3.292  13.999  0.00  0.00    +0.000 NA
ATOM     10  H   UNL     1      47.858   2.792  14.632  0.00  0.00    +0.000 HD
ATOM     11  H   UNL     1      47.734   3.361  13.109  0.00  0.00    +0.000 HD
ENDBRANCH   8   9
ENDBRANCH   7   8
ENDBRANCH   1   7
BRANCH   5  12
ATOM     12  C   UNL     1      44.523   4.647   8.940  0.00  0.00    +0.000 C 
BRANCH  12  13
ATOM     13  N   UNL     1      44.838   3.284   8.536  0.00  0.00    +0.000 N 
ATOM     14  C   UNL     1      44.540   2.149   9.243  0.00  0.00    +0.000 A 
ATOM     15  N   UNL     1      45.349   1.159   8.939  0.00  0.00    +0.000 NA
ATOM     16  C   UNL     1      46.178   1.657   7.966  0.00  0.00    +0.000 A 
ATOM     17  C   UNL     1      47.290   1.066   7.349  0.00  0.00    +0.000 A 
ATOM     18  C   UNL     1      47.982   1.789   6.369  0.00  0.00    +0.000 A 
ATOM     19  C   UNL     1      47.548   3.058   5.980  0.00  0.00    +0.000 A 
ATOM     20  C   UNL     1      46.451   3.670   6.594  0.00  0.00    +0.000 A 
ATOM     21  C   UNL     1      45.813   2.954   7.616  0.00  0.00    +0.000 A 
ENDBRANCH  12  13
ENDBRANCH   5  12
TORSDOF 5
ENDMDL
MODEL 2
REMARK VINA RESULT:    -7.328      1.834      3.060
REMARK INTER + INTRA:          -9.678
REMARK INTER:                  -9.235
REMARK INTRA:                  -0.443
REMARK UNBOUND:                -0.422
REMARK  Name = 
REMARK  5 active torsions:
REMARK  status: ('A' for Active; 'I' for Inactive)
REMARK    1  A    between atoms: N_1  and  C_2
REMARK    2  A    between atoms: C_2  and  C_3
REMARK    3  A    between atoms: C_3  and  C_4
REMARK    4  A    between atoms: C_8  and  C_9
REMARK    5  A    between atoms: C_9  and  N_10
REMARK                            x       y       z     vdW  Elec       q    Type
REMARK                         _______ _______ _______ _____ _____    ______ ____
ROOT
ATOM      1  C   UNL     1      46.938   4.956  14.000  0.00  0.00    +0.000 A 
ATOM      2  C   UNL     1      47.894   5.969  13.866  0.00  0.00    +0.000 A 
ATOM      3  C   UNL     1      47.705   6.997  12.947  0.00  0.00    +0.000 A 
ATOM      4  C   UNL     1      46.554   7.032  12.160  0.00  0.00    +0.000 A 
ATOM      5  C   UNL     1      45.580   6.029  12.285  0.00  0.00    +0.000 A 
ATOM      6  C   UNL     1      45.780   4.998  13.214  0.00  0.00    +0.000 A 
ENDROOT
BRANCH   1   7
ATOM      7  C   UNL     1      47.160   3.820  14.973  0.00  0.00    +0.000 C 
BRANCH   7   8
ATOM      8  C   UNL     1      47.290   4.285  16.425  0.00  0.00    +0.000 C 
BRANCH   8   9
ATOM      9  N   UNL     1      46.705   3.300  17.334  0.00  0.00    +0.000 NA
ATOM     10  H   UNL     1      45.757   3.579  17.580  0.00  0.00    +0.000 HD
ATOM     11  H   UNL     1      47.233   3.285  18.208  0.00  0.00    +0.000 HD
ENDBRANCH   8   9
ENDBRANCH   7   8
ENDBRANCH   1   7
BRANCH   5  12
ATOM     12  C   UNL     1      44.323   6.076  11.457  0.00  0.00    +0.000 C 
BRANCH  12  13
ATOM     13  N   UNL     1      43.930   4.808  10.860  0.00  0.00    +0.000 N 
ATOM     14  C   UNL     1      43.166   3.842  11.460  0.00  0.00    +0.000 A 
ATOM     15  N   UNL     1      43.389   2.654  10.945  0.00  0.00    +0.000 NA
ATOM     16  C   UNL     1      44.303   2.862   9.944  0.00  0.00    +0.000 A 
ATOM     17  C   UNL     1      44.966   1.932   9.129  0.00  0.00    +0.000 A 
ATOM     18  C   UNL     1      45.867   2.400   8.164  0.00  0.00    +0.000 A 
ATOM     19  C   UNL     1      46.069   3.769   7.982  0.00  0.00    +0.000 A 
ATOM     20  C   UNL     1      45.429   4.712   8.794  0.00  0.00    +0.000 A 
ATOM     21  C   UNL     1      44.581   4.218   9.796  0.00  0.00    +0.000 A 
ENDBRANCH  12  13
ENDBRANCH   5  12
TORSDOF 5
ENDMDL
MODEL 3
REMARK VINA RESULT:    -7.142      2.059      6.037
REMARK INTER + INTRA:          -9.443
REMARK INTER:                  -8.829
REMARK INTRA:                  -0.614
REMARK UNBOUND:                -0.422
REMARK  Name = 
REMARK  5 active torsions:
REMARK  status: ('A' for Active; 'I' for Inactive)
REMARK    1  A    between atoms: N_1  and  C_2
REMARK    2  A    between atoms: C_2  and  C_3
REMARK    3  A    between atoms: C_3  and  C_4
REMARK    4  A    between atoms: C_8  and  C_9
REMARK    5  A    between atoms: C_9  and  N_10
REMARK                            x       y       z     vdW  Elec       q    Type
REMARK                         _______ _______ _______ _____ _____    ______ ____
ROOT
ATOM      1  C   UNL     1      45.790   3.544   8.167  0.00  0.00    +0.000 A 
ATOM      2  C   UNL     1      45.585   2.188   8.447  0.00  0.00    +0.000 A 
ATOM      3  C   UNL     1      44.722   1.805   9.471  0.00  0.00    +0.000 A 
ATOM      4  C   UNL     1      44.047   2.770  10.218  0.00  0.00    +0.000 A 
ATOM      5  C   UNL     1      44.235   4.134   9.947  0.00  0.00    +0.000 A 
ATOM      6  C   UNL     1      45.105   4.510   8.914  0.00  0.00    +0.000 A 
ENDROOT
BRANCH   1   7
ATOM      7  C   UNL     1      46.754   3.961   7.079  0.00  0.00    +0.000 C 
BRANCH   7   8
ATOM      8  C   UNL     1      47.173   2.806   6.168  0.00  0.00    +0.000 C 
BRANCH   8   9
ATOM      9  N   UNL     1      48.599   2.521   6.323  0.00  0.00    +0.000 NA
ATOM     10  H   UNL     1      49.145   3.321   6.011  0.00  0.00    +0.000 HD
ATOM     11  H   UNL     1      48.861   1.743   5.716  0.00  0.00    +0.000 HD
ENDBRANCH   8   9
ENDBRANCH   7   8
ENDBRANCH   1   7
BRANCH   5  12
ATOM     12  C   UNL     1      43.487   5.180  10.733  0.00  0.00    +0.000 C 
BRANCH  12  13
ATOM     13  N   UNL     1      44.323   6.060  11.537  0.00  0.00    +0.000 N 
ATOM     14  C   UNL     1      44.637   7.360  11.240  0.00  0.00    +0.000 A 
ATOM     15  N   UNL     1      45.759   7.733  11.812  0.00  0.00    +0.000 NA
ATOM     16  C   UNL     1      46.168   6.648  12.544  0.00  0.00    +0.000 A 
ATOM     17  C   UNL     1      47.350   6.454  13.275  0.00  0.00    +0.000 A 
ATOM     18  C   UNL     1      47.538   5.240  13.947  0.00  0.00    +0.000 A 
ATOM     19  C   UNL     1      46.549   4.255  13.928  0.00  0.00    +0.000 A 
ATOM     20  C   UNL     1      45.371   4.422  13.192  0.00  0.00    +0.000 A 
ATOM     21  C   UNL     1      45.233   5.619  12.476  0.00  0.00    +0.000 A 
ENDBRANCH  12  13
ENDBRANCH   5  12
TORSDOF 5
ENDMDL
MODEL 4
REMARK VINA RESULT:    -6.942      1.998      6.101
REMARK INTER + INTRA:          -9.190
REMARK INTER:                  -8.763
REMARK INTRA:                  -0.427
REMARK UNBOUND:                -0.422
REMARK  Name = 
REMARK  5 active torsions:
REMARK  status: ('A' for Active; 'I' for Inactive)
REMARK    1  A    between atoms: N_1  and  C_2
REMARK    2  A    between atoms: C_2  and  C_3
REMARK    3  A    between atoms: C_3  and  C_4
REMARK    4  A    between atoms: C_8  and  C_9
REMARK    5  A    between atoms: C_9  and  N_10
REMARK                            x       y       z     vdW  Elec       q    Type
REMARK                         _______ _______ _______ _____ _____    ______ ____
ROOT
ATOM      1  C   UNL     1      46.176   2.308   7.943  0.00  0.00    +0.000 A 
ATOM      2  C   UNL     1      46.297   3.624   7.483  0.00  0.00    +0.000 A 
ATOM      3  C   UNL     1      45.568   4.647   8.082  0.00  0.00    +0.000 A 
ATOM      4  C   UNL     1      44.719   4.370   9.153  0.00  0.00    +0.000 A 
ATOM      5  C   UNL     1      44.590   3.057   9.633  0.00  0.00    +0.000 A 
ATOM      6  C   UNL     1      45.329   2.034   9.023  0.00  0.00    +0.000 A 
ENDROOT
BRANCH   1   7
ATOM      7  C   UNL     1      46.941   1.190   7.269  0.00  0.00    +0.000 C 
BRANCH   7   8
ATOM      8  C   UNL     1      48.332   1.613   6.792  0.00  0.00    +0.000 C 
BRANCH   8   9
ATOM      9  N   UNL     1      48.328   1.860   5.351  0.00  0.00    +0.000 NA
ATOM     10  H   UNL     1      49.250   2.174   5.054  0.00  0.00    +0.000 HD
ATOM     11  H   UNL     1      47.684   2.623   5.136  0.00  0.00    +0.000 HD
ENDBRANCH   8   9
ENDBRANCH   7   8
ENDBRANCH   1   7
BRANCH   5  12
ATOM     12  C   UNL     1      43.695   2.757  10.807  0.00  0.00    +0.000 C 
BRANCH  12  13
ATOM     13  N   UNL     1      43.767   3.718  11.898  0.00  0.00    +0.000 N 
ATOM     14  C   UNL     1      42.920   4.777  12.090  0.00  0.00    +0.000 A 
ATOM     15  N   UNL     1      43.485   5.732  12.795  0.00  0.00    +0.000 NA
ATOM     16  C   UNL     1      44.733   5.256  13.109  0.00  0.00    +0.000 A 
ATOM     17  C   UNL     1      45.796   5.896  13.764  0.00  0.00    +0.000 A 
ATOM     18  C   UNL     1      46.987   5.188  13.968  0.00  0.00    +0.000 A 
ATOM     19  C   UNL     1      47.102   3.855  13.570  0.00  0.00    +0.000 A 
ATOM     20  C   UNL     1      46.059   3.205  12.901  0.00  0.00    +0.000 A 
ATOM     21  C   UNL     1      44.900   3.952  12.651  0.00  0.00    +0.000 A 
ENDBRANCH  12  13
ENDBRANCH   5  12
TORSDOF 5
ENDMDL
MODEL 5
REMARK VINA RESULT:    -6.920      1.851      2.132
REMARK INTER + INTRA:          -9.163
REMARK INTER:                  -8.932
REMARK INTRA:                  -0.231
REMARK UNBOUND:                -0.422
REMARK  Name = 
REMARK  5 active torsions:
REMARK  status: ('A' for Active; 'I' for Inactive)
REMARK    1  A    between atoms: N_1  and  C_2
REMARK    2  A    between atoms: C_2  and  C_3
REMARK    3  A    between atoms: C_3  and  C_4
REMARK    4  A    between atoms: C_8  and  C_9
REMARK    5  A    between atoms: C_9  and  N_10
REMARK                            x       y       z     vdW  Elec       q    Type
REMARK                         _______ _______ _______ _____ _____    ______ ____
ROOT
ATOM      1  C   UNL     1      46.236   6.341  11.953  0.00  0.00    +0.000 A 
ATOM      2  C   UNL     1      46.303   5.396  12.983  0.00  0.00    +0.000 A 
ATOM      3  C   UNL     1      45.711   4.145  12.828  0.00  0.00    +0.000 A 
ATOM      4  C   UNL     1      45.056   3.821  11.641  0.00  0.00    +0.000 A 
ATOM      5  C   UNL     1      44.985   4.753  10.594  0.00  0.00    +0.000 A 
ATOM      6  C   UNL     1      45.584   6.010  10.759  0.00  0.00    +0.000 A 
ENDROOT
BRANCH   1   7
ATOM      7  C   UNL     1      46.849   7.712  12.134  0.00  0.00    +0.000 C 
BRANCH   7   8
ATOM      8  C   UNL     1      46.194   8.523  13.254  0.00  0.00    +0.000 C 
BRANCH   8   9
ATOM      9  N   UNL     1      45.032   9.253  12.748  0.00  0.00    +0.000 NA
ATOM     10  H   UNL     1      45.337  10.107  12.285  0.00  0.00    +0.000 HD
ATOM     11  H   UNL     1      44.445   9.547  13.530  0.00  0.00    +0.000 HD
ENDBRANCH   8   9
ENDBRANCH   7   8
ENDBRANCH   1   7
BRANCH   5  12
ATOM     12  C   UNL     1      44.302   4.398   9.299  0.00  0.00    +0.000 C 
BRANCH  12  13
ATOM     13  N   UNL     1      44.710   3.128   8.715  0.00  0.00    +0.000 N 
ATOM     14  C   UNL     1      44.425   1.886   9.219  0.00  0.00    +0.000 A 
ATOM     15  N   UNL     1      45.300   0.988   8.825  0.00  0.00    +0.000 NA
ATOM     16  C   UNL     1      46.163   1.664   8.000  0.00  0.00    +0.000 A 
ATOM     17  C   UNL     1      47.340   1.221   7.379  0.00  0.00    +0.000 A 
ATOM     18  C   UNL     1      48.055   2.115   6.572  0.00  0.00    +0.000 A 
ATOM     19  C   UNL     1      47.584   3.410   6.351  0.00  0.00    +0.000 A 
ATOM     20  C   UNL     1      46.421   3.875   6.973  0.00  0.00    +0.000 A 
ATOM     21  C   UNL     1      45.756   2.984   7.827  0.00  0.00    +0.000 A 
ENDBRANCH  12  13
ENDBRANCH   5  12
TORSDOF 5
ENDMDL
MODEL 6
REMARK VINA RESULT:    -6.914      2.393      3.484
REMARK INTER + INTRA:          -9.154
REMARK INTER:                  -8.572
REMARK INTRA:                  -0.582
REMARK UNBOUND:                -0.422
REMARK  Name = 
REMARK  5 active torsions:
REMARK  status: ('A' for Active; 'I' for Inactive)
REMARK    1  A    between atoms: N_1  and  C_2
REMARK    2  A    between atoms: C_2  and  C_3
REMARK    3  A    between atoms: C_3  and  C_4
REMARK    4  A    between atoms: C_8  and  C_9
REMARK    5  A    between atoms: C_9  and  N_10
REMARK                            x       y       z     vdW  Elec       q    Type
REMARK                         _______ _______ _______ _____ _____    ______ ____
ROOT
ATOM      1  C   UNL     1      47.703   7.228  12.269  0.00  0.00    +0.000 A 
ATOM      2  C   UNL     1      48.074   6.297  13.246  0.00  0.00    +0.000 A 
ATOM      3  C   UNL     1      47.175   5.319  13.662  0.00  0.00    +0.000 A 
ATOM      4  C   UNL     1      45.900   5.254  13.101  0.00  0.00    +0.000 A 
ATOM      5  C   UNL     1      45.512   6.174  12.115  0.00  0.00    +0.000 A 
ATOM      6  C   UNL     1      46.425   7.155  11.702  0.00  0.00    +0.000 A 
ENDROOT
BRANCH   1   7
ATOM      7  C   UNL     1      48.668   8.311  11.842  0.00  0.00    +0.000 C 
BRANCH   7   8
ATOM      8  C   UNL     1      50.093   8.086  12.350  0.00  0.00    +0.000 C 
BRANCH   8   9
ATOM      9  N   UNL     1      50.893   7.391  11.343  0.00  0.00    +0.000 NA
ATOM     10  H   UNL     1      51.707   6.966  11.783  0.00  0.00    +0.000 HD
ATOM     11  H   UNL     1      51.255   8.065  10.667  0.00  0.00    +0.000 HD
ENDBRANCH   8   9
ENDBRANCH   7   8
ENDBRANCH   1   7
BRANCH   5  12
ATOM     12  C   UNL     1      44.146   6.091  11.486  0.00  0.00    +0.000 C 
BRANCH  12  13
ATOM     13  N   UNL     1      43.811   4.797  10.908  0.00  0.00    +0.000 N 
ATOM     14  C   UNL     1      43.106   3.800  11.530  0.00  0.00    +0.000 A 
ATOM     15  N   UNL     1      43.383   2.619  11.024  0.00  0.00    +0.000 NA
ATOM     16  C   UNL     1      44.271   2.863  10.008  0.00  0.00    +0.000 A 
ATOM     17  C   UNL     1      44.971   1.959   9.194  0.00  0.00    +0.000 A 
ATOM     18  C   UNL     1      45.833   2.462   8.211  0.00  0.00    +0.000 A 
ATOM     19  C   UNL     1      45.961   3.837   8.012  0.00  0.00    +0.000 A 
ATOM     20  C   UNL     1      45.285   4.755   8.823  0.00  0.00    +0.000 A 
ATOM     21  C   UNL     1      44.477   4.230   9.841  0.00  0.00    +0.000 A 
ENDBRANCH  12  13
ENDBRANCH   5  12
TORSDOF 5
ENDMDL
MODEL 7
REMARK VINA RESULT:    -6.834      2.131      6.273
REMARK INTER + INTRA:          -9.053
REMARK INTER:                  -8.641
REMARK INTRA:                  -0.413
REMARK UNBOUND:                -0.422
REMARK  Name = 
REMARK  5 active torsions:
REMARK  status: ('A' for Active; 'I' for Inactive)
REMARK    1  A    between atoms: N_1  and  C_2
REMARK    2  A    between atoms: C_2  and  C_3
REMARK    3  A    between atoms: C_3  and  C_4
REMARK    4  A    between atoms: C_8  and  C_9
REMARK    5  A    between atoms: C_9  and  N_10
REMARK                            x       y       z     vdW  Elec       q    Type
REMARK                         _______ _______ _______ _____ _____    ______ ____
ROOT
ATOM      1  C   UNL     1      45.857   3.387   7.943  0.00  0.00    +0.000 A 
ATOM      2  C   UNL     1      45.024   2.306   8.254  0.00  0.00    +0.000 A 
ATOM      3  C   UNL     1      44.278   2.311   9.430  0.00  0.00    +0.000 A 
ATOM      4  C   UNL     1      44.348   3.398  10.301  0.00  0.00    +0.000 A 
ATOM      5  C   UNL     1      45.172   4.494  10.002  0.00  0.00    +0.000 A 
ATOM      6  C   UNL     1      45.919   4.480   8.815  0.00  0.00    +0.000 A 
ENDROOT
BRANCH   1   7
ATOM      7  C   UNL     1      46.693   3.366   6.683  0.00  0.00    +0.000 C 
BRANCH   7   8
ATOM      8  C   UNL     1      47.924   2.464   6.789  0.00  0.00    +0.000 C 
BRANCH   8   9
ATOM      9  N   UNL     1      48.363   2.035   5.462  0.00  0.00    +0.000 NA
ATOM     10  H   UNL     1      49.377   2.095   5.399  0.00  0.00    +0.000 HD
ATOM     11  H   UNL     1      47.995   2.675   4.756  0.00  0.00    +0.000 HD
ENDBRANCH   8   9
ENDBRANCH   7   8
ENDBRANCH   1   7
BRANCH   5  12
ATOM     12  C   UNL     1      45.230   5.682  10.925  0.00  0.00    +0.000 C 
BRANCH  12  13
ATOM     13  N   UNL     1      46.160   5.553  12.038  0.00  0.00    +0.000 N 
ATOM     14  C   UNL     1      45.930   4.864  13.200  0.00  0.00    +0.000 A 
ATOM     15  N   UNL     1      46.666   5.317  14.189  0.00  0.00    +0.000 NA
ATOM     16  C   UNL     1      47.434   6.312  13.640  0.00  0.00    +0.000 A 
ATOM     17  C   UNL     1      48.328   7.199  14.259  0.00  0.00    +0.000 A 
ATOM     18  C   UNL     1      49.003   8.138  13.470  0.00  0.00    +0.000 A 
ATOM     19  C   UNL     1      48.826   8.165  12.085  0.00  0.00    +0.000 A 
ATOM     20  C   UNL     1      47.928   7.300  11.451  0.00  0.00    +0.000 A 
ATOM     21  C   UNL     1      47.216   6.411  12.268  0.00  0.00    +0.000 A 
ENDBRANCH  12  13
ENDBRANCH   5  12
TORSDOF 5
ENDMDL
MODEL 8
REMARK VINA RESULT:    -6.113      2.287      6.102
REMARK INTER + INTRA:          -8.143
REMARK INTER:                  -7.597
REMARK INTRA:                  -0.546
REMARK UNBOUND:                -0.422
REMARK  Name = 
REMARK  5 active torsions:
REMARK  status: ('A' for Active; 'I' for Inactive)
REMARK    1  A    between atoms: N_1  and  C_2
REMARK    2  A    between atoms: C_2  and  C_3
REMARK    3  A    between atoms: C_3  and  C_4
REMARK    4  A    between atoms: C_8  and  C_9
REMARK    5  A    between atoms: C_9  and  N_10
REMARK                            x       y       z     vdW  Elec       q    Type
REMARK                         _______ _______ _______ _____ _____    ______ ____
ROOT
ATOM      1  C   UNL     1      44.728   3.543   9.981  0.00  0.00    +0.000 A 
ATOM      2  C   UNL     1      43.819   2.635  10.537  0.00  0.00    +0.000 A 
ATOM      3  C   UNL     1      43.400   2.781  11.857  0.00  0.00    +0.000 A 
ATOM      4  C   UNL     1      43.875   3.840  12.631  0.00  0.00    +0.000 A 
ATOM      5  C   UNL     1      44.780   4.763  12.088  0.00  0.00    +0.000 A 
ATOM      6  C   UNL     1      45.197   4.609  10.758  0.00  0.00    +0.000 A 
ENDROOT
BRANCH   1   7
ATOM      7  C   UNL     1      45.210   3.364   8.558  0.00  0.00    +0.000 C 
BRANCH   7   8
ATOM      8  C   UNL     1      46.073   4.526   8.063  0.00  0.00    +0.000 C 
BRANCH   8   9
ATOM      9  N   UNL     1      46.808   4.143   6.858  0.00  0.00    +0.000 NA
ATOM     10  H   UNL     1      46.680   4.851   6.138  0.00  0.00    +0.000 HD
ATOM     11  H   UNL     1      46.419   3.278   6.479  0.00  0.00    +0.000 HD
ENDBRANCH   8   9
ENDBRANCH   7   8
ENDBRANCH   1   7
BRANCH   5  12
ATOM     12  C   UNL     1      45.275   5.924  12.911  0.00  0.00    +0.000 C 
BRANCH  12  13
ATOM     13  N   UNL     1      46.663   5.827  13.341  0.00  0.00    +0.000 N 
ATOM     14  C   UNL     1      47.102   5.272  14.514  0.00  0.00    +0.000 A 
ATOM     15  N   UNL     1      48.268   5.758  14.877  0.00  0.00    +0.000 NA
ATOM     16  C   UNL     1      48.620   6.631  13.879  0.00  0.00    +0.000 A 
ATOM     17  C   UNL     1      49.719   7.499  13.795  0.00  0.00    +0.000 A 
ATOM     18  C   UNL     1      49.859   8.303  12.657  0.00  0.00    +0.000 A 
ATOM     19  C   UNL     1      48.949   8.212  11.603  0.00  0.00    +0.000 A 
ATOM     20  C   UNL     1      47.838   7.364  11.674  0.00  0.00    +0.000 A 
ATOM     21  C   UNL     1      47.683   6.617  12.849  0.00  0.00    +0.000 A 
ENDBRANCH  12  13
ENDBRANCH   5  12
TORSDOF 5
ENDMDL
MODEL 9
REMARK VINA RESULT:    -5.903      2.855      3.745
REMARK INTER + INTRA:          -7.878
REMARK INTER:                  -7.627
REMARK INTRA:                  -0.251
REMARK UNBOUND:                -0.422
REMARK  Name = 
REMARK  5 active torsions:
REMARK  status: ('A' for Active; 'I' for Inactive)
REMARK    1  A    between atoms: N_1  and  C_2
REMARK    2  A    between atoms: C_2  and  C_3
REMARK    3  A    between atoms: C_3  and  C_4
REMARK    4  A    between atoms: C_8  and  C_9
REMARK    5  A    between atoms: C_9  and  N_10
REMARK                            x       y       z     vdW  Elec       q    Type
REMARK                         _______ _______ _______ _____ _____    ______ ____
ROOT
ATOM      1  C   UNL     1      46.796   8.788  12.672  0.00  0.00    +0.000 A 
ATOM      2  C   UNL     1      45.741   9.471  12.055  0.00  0.00    +0.000 A 
ATOM      3  C   UNL     1      44.626   8.775  11.597  0.00  0.00    +0.000 A 
ATOM      4  C   UNL     1      44.546   7.392  11.761  0.00  0.00    +0.000 A 
ATOM      5  C   UNL     1      45.590   6.691  12.384  0.00  0.00    +0.000 A 
ATOM      6  C   UNL     1      46.709   7.401  12.842  0.00  0.00    +0.000 A 
ENDROOT
BRANCH   1   7
ATOM      7  C   UNL     1      48.023   9.540  13.137  0.00  0.00    +0.000 C 
BRANCH   7   8
ATOM      8  C   UNL     1      48.516   9.098  14.516  0.00  0.00    +0.000 C 
BRANCH   8   9
ATOM      9  N   UNL     1      47.481   9.316  15.526  0.00  0.00    +0.000 NA
ATOM     10  H   UNL     1      47.600  10.235  15.948  0.00  0.00    +0.000 HD
ATOM     11  H   UNL     1      47.592   8.639  16.283  0.00  0.00    +0.000 HD
ENDBRANCH   8   9
ENDBRANCH   7   8
ENDBRANCH   1   7
BRANCH   5  12
ATOM     12  C   UNL     1      45.497   5.202  12.588  0.00  0.00    +0.000 C 
BRANCH  12  13
ATOM     13  N   UNL     1      44.645   4.502  11.637  0.00  0.00    +0.000 N 
ATOM     14  C   UNL     1      43.672   3.590  11.952  0.00  0.00    +0.000 A 
ATOM     15  N   UNL     1      43.433   2.768  10.955  0.00  0.00    +0.000 NA
ATOM     16  C   UNL     1      44.253   3.188   9.938  0.00  0.00    +0.000 A 
ATOM     17  C   UNL     1      44.481   2.617   8.677  0.00  0.00    +0.000 A 
ATOM     18  C   UNL     1      45.378   3.244   7.803  0.00  0.00    +0.000 A 
ATOM     19  C   UNL     1      46.001   4.441   8.160  0.00  0.00    +0.000 A 
ATOM     20  C   UNL     1      45.799   5.018   9.418  0.00  0.00    +0.000 A 
ATOM     21  C   UNL     1      44.947   4.339  10.300  0.00  0.00    +0.000 A 
ENDBRANCH  12  13
ENDBRANCH   5  12
TORSDOF 5
ENDMDL
