MODEL 1
REMARK VINA RESULT:    -8.454      0.000      0.000
REMARK INTER + INTRA:         -13.490
REMARK INTER:                 -12.656
REMARK INTRA:                  -0.834
REMARK UNBOUND:                -0.834
REMARK  Name = 
REMARK  9 active torsions:
REMARK  status: ('A' for Active; 'I' for Inactive)
REMARK    1  A    between atoms: C_2  and  C_22
REMARK    2  A    between atoms: N_3  and  C_4
REMARK    3  A    between atoms: C_4  and  C_5
REMARK    4  A    between atoms: C_9  and  C_10
REMARK    5  A    between atoms: C_10  and  N_11
REMARK    6  A    between atoms: N_11  and  CA_12
REMARK    7  A    between atoms: CA_12  and  C_13
REMARK    8  A    between atoms: CA_12  and  C_15
REMARK    9  A    between atoms: C_13  and  O_14
REMARK                            x       y       z     vdW  Elec       q    Type
REMARK                         _______ _______ _______ _____ _____    ______ ____
ROOT
ATOM      1  C   UNL     1      46.554   5.076  13.666  0.00  0.00    +0.000 A 
ATOM      2  C   UNL     1      47.548   5.995  13.306  0.00  0.00    +0.000 A 
ATOM      3  C   UNL     1      47.278   7.002  12.384  0.00  0.00    +0.000 A 
ATOM      4  C   UNL     1      46.011   7.095  11.807  0.00  0.00    +0.000 A 
ATOM      5  C   UNL     1      45.000   6.180  12.144  0.00  0.00    +0.000 A 
ATOM      6  C   UNL     1      45.276   5.187  13.094  0.00  0.00    +0.000 A 
ENDROOT
BRANCH   1   7
ATOM      7  C   UNL     1      46.856   3.999  14.671  0.00  0.00    +0.000 C 
BRANCH   7  10
ATOM      8  O   UNL     1      46.505   3.181  17.371  0.00  0.00    +0.000 OA
ATOM      9  C   UNL     1      47.229   4.139  17.108  0.00  0.00    +0.000 C 
ATOM     10  N   UNL     1      47.511   4.541  15.831  0.00  0.00    +0.000 N 
ATOM     11  H   UNL     1      48.093   5.353  15.680  0.00  0.00    +0.000 HD
BRANCH   9  12
ATOM     12  C   UNL     1      47.896   4.912  18.157  0.00  0.00    +0.000 A 
ATOM     13  C   UNL     1      47.186   5.805  18.946  0.00  0.00    +0.000 A 
ATOM     14  S   UNL     1      48.148   6.561  20.137  0.00  0.00    +0.000 S 
ATOM     15  C   UNL     1      49.549   5.753  19.605  0.00  0.00    +0.000 A 
ATOM     16  N   UNL     1      50.750   5.950  20.210  0.00  0.00    +0.000 NA
ATOM     17  C   UNL     1      51.728   5.293  19.681  0.00  0.00    +0.000 A 
ATOM     18  N   UNL     1      51.618   4.461  18.597  0.00  0.00    +0.000 N 
ATOM     19  C   UNL     1      50.424   4.222  17.960  0.00  0.00    +0.000 A 
ATOM     20  O   UNL     1      50.359   3.446  17.013  0.00  0.00    +0.000 OA
ATOM     21  C   UNL     1      49.289   4.924  18.529  0.00  0.00    +0.000 A 
ATOM     22  H   UNL     1      52.423   3.975  18.231  0.00  0.00    +0.000 HD
ENDBRANCH   9  12
ENDBRANCH   7  10
ENDBRANCH   1   7
BRANCH   5  23
ATOM     23  C   UNL     1      43.651   6.248  11.459  0.00  0.00    +0.000 C 
BRANCH  23  24
ATOM     24  N   UNL     1      43.599   5.252  10.391  0.00  0.00    +0.000 NA
ATOM     25  H   UNL     1      44.039   5.661   9.565  0.00  0.00    +0.000 HD
BRANCH  24  26
ATOM     26  CA  UNL     1      44.292   3.982  10.693  0.00  0.00    +0.000 C 
BRANCH  26  27
ATOM     27  C   UNL     1      45.087   3.488   9.476  0.00  0.00    +0.000 A 
ATOM     28  C   UNL     1      45.557   4.364   8.494  0.00  0.00    +0.000 A 
ATOM     29  C   UNL     1      46.258   3.851   7.406  0.00  0.00    +0.000 A 
ATOM     30  C   UNL     1      46.470   2.482   7.311  0.00  0.00    +0.000 A 
ATOM     31  C   UNL     1      45.955   1.676   8.311  0.00  0.00    +0.000 A 
ATOM     32  N   UNL     1      45.264   2.143   9.374  0.00  0.00    +0.000 NA
ENDBRANCH  26  27
BRANCH  26  33
ATOM     33  C   UNL     1      43.348   2.837  11.149  0.00  0.00    +0.000 C 
BRANCH  33  34
ATOM     34  O   UNL     1      43.824   2.143  12.307  0.00  0.00    +0.000 OA
ATOM     35  H   UNL     1      43.045   1.949  12.868  0.00  0.00    +0.000 HD
ENDBRANCH  33  34
ENDBRANCH  26  33
ENDBRANCH  24  26
ENDBRANCH  23  24
ENDBRANCH   5  23
TORSDOF 9
ENDMDL
MODEL 2
REMARK VINA RESULT:    -8.217      1.979      2.962
REMARK INTER + INTRA:         -13.134
REMARK INTER:                 -11.677
REMARK INTRA:                  -1.457
REMARK UNBOUND:                -0.834
REMARK  Name = 
REMARK  9 active torsions:
REMARK  status: ('A' for Active; 'I' for Inactive)
REMARK    1  A    between atoms: C_2  and  C_22
REMARK    2  A    between atoms: N_3  and  C_4
REMARK    3  A    between atoms: C_4  and  C_5
REMARK    4  A    between atoms: C_9  and  C_10
REMARK    5  A    between atoms: C_10  and  N_11
REMARK    6  A    between atoms: N_11  and  CA_12
REMARK    7  A    between atoms: CA_12  and  C_13
REMARK    8  A    between atoms: CA_12  and  C_15
REMARK    9  A    between atoms: C_13  and  O_14
REMARK                            x       y       z     vdW  Elec       q    Type
REMARK                         _______ _______ _______ _____ _____    ______ ____
ROOT
ATOM      1  C   UNL     1      47.456   7.903  12.288  0.00  0.00    +0.000 A 
ATOM      2  C   UNL     1      47.167   9.263  12.113  0.00  0.00    +0.000 A 
ATOM      3  C   UNL     1      45.863   9.681  11.864  0.00  0.00    +0.000 A 
ATOM      4  C   UNL     1      44.835   8.742  11.782  0.00  0.00    +0.000 A 
ATOM      5  C   UNL     1      45.100   7.372  11.944  0.00  0.00    +0.000 A 
ATOM      6  C   UNL     1      46.413   6.965  12.220  0.00  0.00    +0.000 A 
ENDROOT
BRANCH   1   7
ATOM      7  C   UNL     1      48.867   7.465  12.567  0.00  0.00    +0.000 C 
BRANCH   7  10
ATOM      8  O   UNL     1      48.556   8.505  15.194  0.00  0.00    +0.000 OA
ATOM      9  C   UNL     1      48.861   7.325  15.032  0.00  0.00    +0.000 C 
ATOM     10  N   UNL     1      48.950   6.733  13.802  0.00  0.00    +0.000 N 
ATOM     11  H   UNL     1      49.230   5.765  13.733  0.00  0.00    +0.000 HD
BRANCH   9  12
ATOM     12  C   UNL     1      49.113   6.431  16.163  0.00  0.00    +0.000 A 
ATOM     13  C   UNL     1      50.124   6.701  17.074  0.00  0.00    +0.000 A 
ATOM     14  S   UNL     1      50.211   5.559  18.340  0.00  0.00    +0.000 S 
ATOM     15  C   UNL     1      48.931   4.647  17.685  0.00  0.00    +0.000 A 
ATOM     16  N   UNL     1      48.489   3.514  18.294  0.00  0.00    +0.000 NA
ATOM     17  C   UNL     1      47.532   2.911  17.669  0.00  0.00    +0.000 A 
ATOM     18  N   UNL     1      46.982   3.332  16.487  0.00  0.00    +0.000 N 
ATOM     19  C   UNL     1      47.387   4.476  15.841  0.00  0.00    +0.000 A 
ATOM     20  O   UNL     1      46.848   4.838  14.801  0.00  0.00    +0.000 OA
ATOM     21  C   UNL     1      48.449   5.200  16.514  0.00  0.00    +0.000 A 
ATOM     22  H   UNL     1      46.234   2.815  16.048  0.00  0.00    +0.000 HD
ENDBRANCH   9  12
ENDBRANCH   7  10
ENDBRANCH   1   7
BRANCH   5  23
ATOM     23  C   UNL     1      43.989   6.356  11.782  0.00  0.00    +0.000 C 
BRANCH  23  24
ATOM     24  N   UNL     1      44.224   5.568  10.574  0.00  0.00    +0.000 NA
ATOM     25  H   UNL     1      44.966   6.029  10.044  0.00  0.00    +0.000 HD
BRANCH  24  26
ATOM     26  CA  UNL     1      44.641   4.171  10.817  0.00  0.00    +0.000 C 
BRANCH  26  27
ATOM     27  C   UNL     1      45.285   3.564   9.561  0.00  0.00    +0.000 A 
ATOM     28  C   UNL     1      45.765   4.360   8.518  0.00  0.00    +0.000 A 
ATOM     29  C   UNL     1      46.322   3.748   7.399  0.00  0.00    +0.000 A 
ATOM     30  C   UNL     1      46.383   2.362   7.334  0.00  0.00    +0.000 A 
ATOM     31  C   UNL     1      45.867   1.641   8.397  0.00  0.00    +0.000 A 
ATOM     32  N   UNL     1      45.313   2.206   9.492  0.00  0.00    +0.000 NA
ENDBRANCH  26  27
BRANCH  26  33
ATOM     33  C   UNL     1      43.489   3.234  11.269  0.00  0.00    +0.000 C 
BRANCH  33  34
ATOM     34  O   UNL     1      43.842   2.400  12.376  0.00  0.00    +0.000 OA
ATOM     35  H   UNL     1      44.646   1.903  12.119  0.00  0.00    +0.000 HD
ENDBRANCH  33  34
ENDBRANCH  26  33
ENDBRANCH  24  26
ENDBRANCH  23  24
ENDBRANCH   5  23
TORSDOF 9
ENDMDL
MODEL 3
REMARK VINA RESULT:    -8.189      1.610      2.020
REMARK INTER + INTRA:         -13.092
REMARK INTER:                 -12.370
REMARK INTRA:                  -0.722
REMARK UNBOUND:                -0.834
REMARK  Name = 
REMARK  9 active torsions:
REMARK  status: ('A' for Active; 'I' for Inactive)
REMARK    1  A    between atoms: C_2  and  C_22
REMARK    2  A    between atoms: N_3  and  C_4
REMARK    3  A    between atoms: C_4  and  C_5
REMARK    4  A    between atoms: C_9  and  C_10
REMARK    5  A    between atoms: C_10  and  N_11
REMARK    6  A    between atoms: N_11  and  CA_12
REMARK    7  A    between atoms: CA_12  and  C_13
REMARK    8  A    between atoms: CA_12  and  C_15
REMARK    9  A    between atoms: C_13  and  O_14
REMARK                            x       y       z     vdW  Elec       q    Type
REMARK                         _______ _______ _______ _____ _____    ______ ____
ROOT
ATOM      1  C   UNL     1      46.547   6.215  13.123  0.00  0.00    +0.000 A 
ATOM      2  C   UNL     1      46.935   7.530  12.834  0.00  0.00    +0.000 A 
ATOM      3  C   UNL     1      46.097   8.368  12.105  0.00  0.00    +0.000 A 
ATOM      4  C   UNL     1      44.865   7.898  11.651  0.00  0.00    +0.000 A 
ATOM      5  C   UNL     1      44.458   6.580  11.919  0.00  0.00    +0.000 A 
ATOM      6  C   UNL     1      45.298   5.753  12.678  0.00  0.00    +0.000 A 
ENDROOT
BRANCH   1   7
ATOM      7  C   UNL     1      47.457   5.322  13.921  0.00  0.00    +0.000 C 
BRANCH   7  10
ATOM      8  O   UNL     1      49.706   6.581  15.121  0.00  0.00    +0.000 OA
ATOM      9  C   UNL     1      48.718   6.309  15.801  0.00  0.00    +0.000 C 
ATOM     10  N   UNL     1      47.570   5.779  15.281  0.00  0.00    +0.000 N 
ATOM     11  H   UNL     1      46.801   5.552  15.896  0.00  0.00    +0.000 HD
BRANCH   9  12
ATOM     12  C   UNL     1      48.675   6.579  17.239  0.00  0.00    +0.000 A 
ATOM     13  C   UNL     1      48.692   7.878  17.722  0.00  0.00    +0.000 A 
ATOM     14  S   UNL     1      48.584   7.965  19.424  0.00  0.00    +0.000 S 
ATOM     15  C   UNL     1      48.557   6.268  19.568  0.00  0.00    +0.000 A 
ATOM     16  N   UNL     1      48.470   5.665  20.783  0.00  0.00    +0.000 NA
ATOM     17  C   UNL     1      48.488   4.374  20.740  0.00  0.00    +0.000 A 
ATOM     18  N   UNL     1      48.593   3.630  19.594  0.00  0.00    +0.000 N 
ATOM     19  C   UNL     1      48.672   4.194  18.343  0.00  0.00    +0.000 A 
ATOM     20  O   UNL     1      48.732   3.494  17.338  0.00  0.00    +0.000 OA
ATOM     21  C   UNL     1      48.636   5.645  18.337  0.00  0.00    +0.000 A 
ATOM     22  H   UNL     1      48.601   2.621  19.628  0.00  0.00    +0.000 HD
ENDBRANCH   9  12
ENDBRANCH   7  10
ENDBRANCH   1   7
BRANCH   5  23
ATOM     23  C   UNL     1      43.149   6.058  11.362  0.00  0.00    +0.000 C 
BRANCH  23  24
ATOM     24  N   UNL     1      43.425   5.140  10.259  0.00  0.00    +0.000 NA
ATOM     25  H   UNL     1      43.894   5.671   9.524  0.00  0.00    +0.000 HD
BRANCH  24  26
ATOM     26  CA  UNL     1      44.287   3.991  10.609  0.00  0.00    +0.000 C 
BRANCH  26  27
ATOM     27  C   UNL     1      45.103   3.527   9.394  0.00  0.00    +0.000 A 
ATOM     28  C   UNL     1      45.353   2.177   9.142  0.00  0.00    +0.000 A 
ATOM     29  C   UNL     1      46.115   1.822   8.032  0.00  0.00    +0.000 A 
ATOM     30  C   UNL     1      46.619   2.815   7.202  0.00  0.00    +0.000 A 
ATOM     31  C   UNL     1      46.348   4.133   7.529  0.00  0.00    +0.000 A 
ATOM     32  N   UNL     1      45.619   4.507   8.603  0.00  0.00    +0.000 NA
ENDBRANCH  26  27
BRANCH  26  33
ATOM     33  C   UNL     1      43.515   2.766  11.168  0.00  0.00    +0.000 C 
BRANCH  33  34
ATOM     34  O   UNL     1      43.844   2.465  12.528  0.00  0.00    +0.000 OA
ATOM     35  H   UNL     1      44.455   1.699  12.515  0.00  0.00    +0.000 HD
ENDBRANCH  33  34
ENDBRANCH  26  33
ENDBRANCH  24  26
ENDBRANCH  23  24
ENDBRANCH   5  23
TORSDOF 9
ENDMDL
MODEL 4
REMARK VINA RESULT:    -7.908      3.023      8.663
REMARK INTER + INTRA:         -12.672
REMARK INTER:                 -11.421
REMARK INTRA:                  -1.251
REMARK UNBOUND:                -0.834
REMARK  Name = 
REMARK  9 active torsions:
REMARK  status: ('A' for Active; 'I' for Inactive)
REMARK    1  A    between atoms: C_2  and  C_22
REMARK    2  A    between atoms: N_3  and  C_4
REMARK    3  A    between atoms: C_4  and  C_5
REMARK    4  A    between atoms: C_9  and  C_10
REMARK    5  A    between atoms: C_10  and  N_11
REMARK    6  A    between atoms: N_11  and  CA_12
REMARK    7  A    between atoms: CA_12  and  C_13
REMARK    8  A    between atoms: CA_12  and  C_15
REMARK    9  A    between atoms: C_13  and  O_14
REMARK                            x       y       z     vdW  Elec       q    Type
REMARK                         _______ _______ _______ _____ _____    ______ ____
ROOT
ATOM      1  C   UNL     1      48.690   7.804  13.061  0.00  0.00    +0.000 A 
ATOM      2  C   UNL     1      49.977   8.352  12.961  0.00  0.00    +0.000 A 
ATOM      3  C   UNL     1      50.895   8.188  13.994  0.00  0.00    +0.000 A 
ATOM      4  C   UNL     1      50.534   7.480  15.140  0.00  0.00    +0.000 A 
ATOM      5  C   UNL     1      49.248   6.930  15.269  0.00  0.00    +0.000 A 
ATOM      6  C   UNL     1      48.341   7.078  14.211  0.00  0.00    +0.000 A 
ENDROOT
BRANCH   1   7
ATOM      7  C   UNL     1      47.710   7.979  11.934  0.00  0.00    +0.000 C 
BRANCH   7  10
ATOM      8  O   UNL     1      44.891   7.802  11.617  0.00  0.00    +0.000 OA
ATOM      9  C   UNL     1      45.570   6.778  11.660  0.00  0.00    +0.000 C 
ATOM     10  N   UNL     1      46.936   6.784  11.729  0.00  0.00    +0.000 N 
ATOM     11  H   UNL     1      47.437   5.908  11.788  0.00  0.00    +0.000 HD
BRANCH   9  12
ATOM     12  C   UNL     1      44.964   5.447  11.594  0.00  0.00    +0.000 A 
ATOM     13  C   UNL     1      44.309   4.907  12.690  0.00  0.00    +0.000 A 
ATOM     14  S   UNL     1      43.635   3.369  12.380  0.00  0.00    +0.000 S 
ATOM     15  C   UNL     1      44.237   3.361  10.787  0.00  0.00    +0.000 A 
ATOM     16  N   UNL     1      44.010   2.312   9.952  0.00  0.00    +0.000 NA
ATOM     17  C   UNL     1      44.550   2.432   8.785  0.00  0.00    +0.000 A 
ATOM     18  N   UNL     1      45.303   3.502   8.377  0.00  0.00    +0.000 N 
ATOM     19  C   UNL     1      45.550   4.589   9.180  0.00  0.00    +0.000 A 
ATOM     20  O   UNL     1      46.202   5.543   8.768  0.00  0.00    +0.000 OA
ATOM     21  C   UNL     1      44.947   4.511  10.498  0.00  0.00    +0.000 A 
ATOM     22  H   UNL     1      45.699   3.535   7.449  0.00  0.00    +0.000 HD
ENDBRANCH   9  12
ENDBRANCH   7  10
ENDBRANCH   1   7
BRANCH   5  23
ATOM     23  C   UNL     1      48.845   6.224  16.547  0.00  0.00    +0.000 C 
BRANCH  23  24
ATOM     24  N   UNL     1      48.786   4.784  16.307  0.00  0.00    +0.000 NA
ATOM     25  H   UNL     1      49.572   4.539  15.702  0.00  0.00    +0.000 HD
BRANCH  24  26
ATOM     26  CA  UNL     1      48.871   3.949  17.524  0.00  0.00    +0.000 C 
BRANCH  26  27
ATOM     27  C   UNL     1      50.256   3.297  17.646  0.00  0.00    +0.000 A 
ATOM     28  C   UNL     1      51.386   4.025  18.024  0.00  0.00    +0.000 A 
ATOM     29  C   UNL     1      52.617   3.379  18.099  0.00  0.00    +0.000 A 
ATOM     30  C   UNL     1      52.702   2.029  17.789  0.00  0.00    +0.000 A 
ATOM     31  C   UNL     1      51.543   1.378  17.401  0.00  0.00    +0.000 A 
ATOM     32  N   UNL     1      50.337   1.981  17.311  0.00  0.00    +0.000 NA
ENDBRANCH  26  27
BRANCH  26  33
ATOM     33  C   UNL     1      47.801   2.827  17.600  0.00  0.00    +0.000 C 
BRANCH  33  34
ATOM     34  O   UNL     1      46.463   3.315  17.466  0.00  0.00    +0.000 OA
ATOM     35  H   UNL     1      45.898   2.775  18.056  0.00  0.00    +0.000 HD
ENDBRANCH  33  34
ENDBRANCH  26  33
ENDBRANCH  24  26
ENDBRANCH  23  24
ENDBRANCH   5  23
TORSDOF 9
ENDMDL
MODEL 5
REMARK VINA RESULT:    -7.738      2.503      3.413
REMARK INTER + INTRA:         -12.417
REMARK INTER:                 -11.293
REMARK INTRA:                  -1.124
REMARK UNBOUND:                -0.834
REMARK  Name = 
REMARK  9 active torsions:
REMARK  status: ('A' for Active; 'I' for Inactive)
REMARK    1  A    between atoms: C_2  and  C_22
REMARK    2  A    between atoms: N_3  and  C_4
REMARK    3  A    between atoms: C_4  and  C_5
REMARK    4  A    between atoms: C_9  and  C_10
REMARK    5  A    between atoms: C_10  and  N_11
REMARK    6  A    between atoms: N_11  and  CA_12
REMARK    7  A    between atoms: CA_12  and  C_13
REMARK    8  A    between atoms: CA_12  and  C_15
REMARK    9  A    between atoms: C_13  and  O_14
REMARK                            x       y       z     vdW  Elec       q    Type
REMARK                         _______ _______ _______ _____ _____    ______ ____
ROOT
ATOM      1  C   UNL     1      49.316   7.311  14.545  0.00  0.00    +0.000 A 
ATOM      2  C   UNL     1      49.740   7.815  13.308  0.00  0.00    +0.000 A 
ATOM      3  C   UNL     1      49.058   7.487  12.140  0.00  0.00    +0.000 A 
ATOM      4  C   UNL     1      47.947   6.645  12.197  0.00  0.00    +0.000 A 
ATOM      5  C   UNL     1      47.507   6.119  13.423  0.00  0.00    +0.000 A 
ATOM      6  C   UNL     1      48.186   6.479  14.596  0.00  0.00    +0.000 A 
ENDROOT
BRANCH   1   7
ATOM      7  C   UNL     1      50.056   7.682  15.800  0.00  0.00    +0.000 C 
BRANCH   7  10
ATOM      8  O   UNL     1      49.485   5.898  17.938  0.00  0.00    +0.000 OA
ATOM      9  C   UNL     1      50.560   5.826  17.348  0.00  0.00    +0.000 C 
ATOM     10  N   UNL     1      50.875   6.593  16.261  0.00  0.00    +0.000 N 
ATOM     11  H   UNL     1      51.787   6.505  15.834  0.00  0.00    +0.000 HD
BRANCH   9  12
ATOM     12  C   UNL     1      51.591   4.864  17.740  0.00  0.00    +0.000 A 
ATOM     13  C   UNL     1      52.807   5.290  18.254  0.00  0.00    +0.000 A 
ATOM     14  S   UNL     1      53.841   4.004  18.692  0.00  0.00    +0.000 S 
ATOM     15  C   UNL     1      52.714   2.840  18.165  0.00  0.00    +0.000 A 
ATOM     16  N   UNL     1      52.978   1.510  18.260  0.00  0.00    +0.000 NA
ATOM     17  C   UNL     1      52.045   0.747  17.796  0.00  0.00    +0.000 A 
ATOM     18  N   UNL     1      50.874   1.192  17.238  0.00  0.00    +0.000 N 
ATOM     19  C   UNL     1      50.559   2.525  17.131  0.00  0.00    +0.000 A 
ATOM     20  O   UNL     1      49.487   2.883  16.655  0.00  0.00    +0.000 OA
ATOM     21  C   UNL     1      51.569   3.424  17.657  0.00  0.00    +0.000 A 
ATOM     22  H   UNL     1      50.183   0.542  16.893  0.00  0.00    +0.000 HD
ENDBRANCH   9  12
ENDBRANCH   7  10
ENDBRANCH   1   7
BRANCH   5  23
ATOM     23  C   UNL     1      46.343   5.151  13.465  0.00  0.00    +0.000 C 
BRANCH  23  24
ATOM     24  N   UNL     1      45.335   5.563  12.490  0.00  0.00    +0.000 NA
ATOM     25  H   UNL     1      45.827   5.906  11.663  0.00  0.00    +0.000 HD
BRANCH  24  26
ATOM     26  CA  UNL     1      44.415   4.490  12.059  0.00  0.00    +0.000 C 
BRANCH  26  27
ATOM     27  C   UNL     1      44.740   4.030  10.630  0.00  0.00    +0.000 A 
ATOM     28  C   UNL     1      45.364   4.871   9.706  0.00  0.00    +0.000 A 
ATOM     29  C   UNL     1      45.616   4.400   8.420  0.00  0.00    +0.000 A 
ATOM     30  C   UNL     1      45.236   3.109   8.077  0.00  0.00    +0.000 A 
ATOM     31  C   UNL     1      44.602   2.342   9.040  0.00  0.00    +0.000 A 
ATOM     32  N   UNL     1      44.337   2.776  10.292  0.00  0.00    +0.000 NA
ENDBRANCH  26  27
BRANCH  26  33
ATOM     33  C   UNL     1      42.914   4.883  12.110  0.00  0.00    +0.000 C 
BRANCH  33  34
ATOM     34  O   UNL     1      42.512   5.409  13.379  0.00  0.00    +0.000 OA
ATOM     35  H   UNL     1      41.692   5.922  13.232  0.00  0.00    +0.000 HD
ENDBRANCH  33  34
ENDBRANCH  26  33
ENDBRANCH  24  26
ENDBRANCH  23  24
ENDBRANCH   5  23
TORSDOF 9
ENDMDL
MODEL 6
REMARK VINA RESULT:    -7.635      2.229      3.110
REMARK INTER + INTRA:         -12.263
REMARK INTER:                 -10.955
REMARK INTRA:                  -1.309
REMARK UNBOUND:                -0.834
REMARK  Name = 
REMARK  9 active torsions:
REMARK  status: ('A' for Active; 'I' for Inactive)
REMARK    1  A    between atoms: C_2  and  C_22
REMARK    2  A    between atoms: N_3  and  C_4
REMARK    3  A    between atoms: C_4  and  C_5
REMARK    4  A    between atoms: C_9  and  C_10
REMARK    5  A    between atoms: C_10  and  N_11
REMARK    6  A    between atoms: N_11  and  CA_12
REMARK    7  A    between atoms: CA_12  and  C_13
REMARK    8  A    between atoms: CA_12  and  C_15
REMARK    9  A    between atoms: C_13  and  O_14
REMARK                            x       y       z     vdW  Elec       q    Type
REMARK                         _______ _______ _______ _____ _____    ______ ____
ROOT
ATOM      1  C   UNL     1      46.124   8.684  12.335  0.00  0.00    +0.000 A 
ATOM      2  C   UNL     1      45.581   9.847  11.771  0.00  0.00    +0.000 A 
ATOM      3  C   UNL     1      44.337   9.813  11.148  0.00  0.00    +0.000 A 
ATOM      4  C   UNL     1      43.626   8.615  11.077  0.00  0.00    +0.000 A 
ATOM      5  C   UNL     1      44.154   7.434  11.626  0.00  0.00    +0.000 A 
ATOM      6  C   UNL     1      45.396   7.486  12.274  0.00  0.00    +0.000 A 
ENDROOT
BRANCH   1   7
ATOM      7  C   UNL     1      47.465   8.736  13.014  0.00  0.00    +0.000 C 
BRANCH   7  10
ATOM      8  O   UNL     1      48.965   6.325  13.137  0.00  0.00    +0.000 OA
ATOM      9  C   UNL     1      48.217   6.630  14.063  0.00  0.00    +0.000 C 
ATOM     10  N   UNL     1      47.526   7.810  14.113  0.00  0.00    +0.000 N 
ATOM     11  H   UNL     1      46.906   7.993  14.890  0.00  0.00    +0.000 HD
BRANCH   9  12
ATOM     12  C   UNL     1      48.036   5.762  15.227  0.00  0.00    +0.000 A 
ATOM     13  C   UNL     1      47.281   4.602  15.142  0.00  0.00    +0.000 A 
ATOM     14  S   UNL     1      47.243   3.716  16.601  0.00  0.00    +0.000 S 
ATOM     15  C   UNL     1      48.197   4.878  17.402  0.00  0.00    +0.000 A 
ATOM     16  N   UNL     1      48.545   4.727  18.707  0.00  0.00    +0.000 NA
ATOM     17  C   UNL     1      49.246   5.700  19.189  0.00  0.00    +0.000 A 
ATOM     18  N   UNL     1      49.623   6.815  18.487  0.00  0.00    +0.000 N 
ATOM     19  C   UNL     1      49.304   7.007  17.164  0.00  0.00    +0.000 A 
ATOM     20  O   UNL     1      49.688   8.003  16.561  0.00  0.00    +0.000 OA
ATOM     21  C   UNL     1      48.533   5.930  16.571  0.00  0.00    +0.000 A 
ATOM     22  H   UNL     1      50.171   7.542  18.922  0.00  0.00    +0.000 HD
ENDBRANCH   9  12
ENDBRANCH   7  10
ENDBRANCH   1   7
BRANCH   5  23
ATOM     23  C   UNL     1      43.406   6.125  11.481  0.00  0.00    +0.000 C 
BRANCH  23  24
ATOM     24  N   UNL     1      43.913   5.404  10.316  0.00  0.00    +0.000 NA
ATOM     25  H   UNL     1      44.591   6.009   9.849  0.00  0.00    +0.000 HD
BRANCH  24  26
ATOM     26  CA  UNL     1      44.583   4.123  10.623  0.00  0.00    +0.000 C 
BRANCH  26  27
ATOM     27  C   UNL     1      45.278   3.554   9.377  0.00  0.00    +0.000 A 
ATOM     28  C   UNL     1      45.450   2.182   9.187  0.00  0.00    +0.000 A 
ATOM     29  C   UNL     1      46.104   1.731   8.044  0.00  0.00    +0.000 A 
ATOM     30  C   UNL     1      46.580   2.651   7.120  0.00  0.00    +0.000 A 
ATOM     31  C   UNL     1      46.392   3.996   7.387  0.00  0.00    +0.000 A 
ATOM     32  N   UNL     1      45.769   4.463   8.492  0.00  0.00    +0.000 NA
ENDBRANCH  26  27
BRANCH  26  33
ATOM     33  C   UNL     1      43.636   3.031  11.188  0.00  0.00    +0.000 C 
BRANCH  33  34
ATOM     34  O   UNL     1      44.076   2.495  12.440  0.00  0.00    +0.000 OA
ATOM     35  H   UNL     1      44.963   2.870  12.619  0.00  0.00    +0.000 HD
ENDBRANCH  33  34
ENDBRANCH  26  33
ENDBRANCH  24  26
ENDBRANCH  23  24
ENDBRANCH   5  23
TORSDOF 9
ENDMDL
MODEL 7
REMARK VINA RESULT:    -6.757      3.069      5.802
REMARK INTER + INTRA:         -10.948
REMARK INTER:                  -8.557
REMARK INTRA:                  -2.391
REMARK UNBOUND:                -0.834
REMARK  Name = 
REMARK  9 active torsions:
REMARK  status: ('A' for Active; 'I' for Inactive)
REMARK    1  A    between atoms: C_2  and  C_22
REMARK    2  A    between atoms: N_3  and  C_4
REMARK    3  A    between atoms: C_4  and  C_5
REMARK    4  A    between atoms: C_9  and  C_10
REMARK    5  A    between atoms: C_10  and  N_11
REMARK    6  A    between atoms: N_11  and  CA_12
REMARK    7  A    between atoms: CA_12  and  C_13
REMARK    8  A    between atoms: CA_12  and  C_15
REMARK    9  A    between atoms: C_13  and  O_14
REMARK                            x       y       z     vdW  Elec       q    Type
REMARK                         _______ _______ _______ _____ _____    ______ ____
ROOT
ATOM      1  C   UNL     1      46.558   4.977  13.654  0.00  0.00    +0.000 A 
ATOM      2  C   UNL     1      45.278   5.194  13.126  0.00  0.00    +0.000 A 
ATOM      3  C   UNL     1      45.060   6.209  12.199  0.00  0.00    +0.000 A 
ATOM      4  C   UNL     1      46.118   7.022  11.795  0.00  0.00    +0.000 A 
ATOM      5  C   UNL     1      47.409   6.832  12.318  0.00  0.00    +0.000 A 
ATOM      6  C   UNL     1      47.622   5.789  13.230  0.00  0.00    +0.000 A 
ENDROOT
BRANCH   1   7
ATOM      7  C   UNL     1      46.783   3.871  14.647  0.00  0.00    +0.000 C 
BRANCH   7  10
ATOM      8  O   UNL     1      46.405   2.997  17.326  0.00  0.00    +0.000 OA
ATOM      9  C   UNL     1      47.165   3.932  17.086  0.00  0.00    +0.000 C 
ATOM     10  N   UNL     1      47.460   4.356  15.820  0.00  0.00    +0.000 N 
ATOM     11  H   UNL     1      48.074   5.148  15.689  0.00  0.00    +0.000 HD
BRANCH   9  12
ATOM     12  C   UNL     1      47.864   4.650  18.153  0.00  0.00    +0.000 A 
ATOM     13  C   UNL     1      47.204   5.592  18.929  0.00  0.00    +0.000 A 
ATOM     14  S   UNL     1      48.192   6.271  20.146  0.00  0.00    +0.000 S 
ATOM     15  C   UNL     1      49.541   5.362  19.642  0.00  0.00    +0.000 A 
ATOM     16  N   UNL     1      50.739   5.467  20.276  0.00  0.00    +0.000 NA
ATOM     17  C   UNL     1      51.677   4.739  19.767  0.00  0.00    +0.000 A 
ATOM     18  N   UNL     1      51.530   3.921  18.678  0.00  0.00    +0.000 N 
ATOM     19  C   UNL     1      50.337   3.773  18.012  0.00  0.00    +0.000 A 
ATOM     20  O   UNL     1      50.236   3.006  17.060  0.00  0.00    +0.000 OA
ATOM     21  C   UNL     1      49.245   4.557  18.558  0.00  0.00    +0.000 A 
ATOM     22  H   UNL     1      52.305   3.377  18.328  0.00  0.00    +0.000 HD
ENDBRANCH   9  12
ENDBRANCH   7  10
ENDBRANCH   1   7
BRANCH   5  23
ATOM     23  C   UNL     1      48.536   7.766  11.926  0.00  0.00    +0.000 C 
BRANCH  23  24
ATOM     24  N   UNL     1      49.797   7.249  12.450  0.00  0.00    +0.000 NA
ATOM     25  H   UNL     1      50.370   6.964  11.654  0.00  0.00    +0.000 HD
BRANCH  24  26
ATOM     26  CA  UNL     1      50.579   8.216  13.249  0.00  0.00    +0.000 C 
BRANCH  26  27
ATOM     27  C   UNL     1      49.886   8.509  14.588  0.00  0.00    +0.000 A 
ATOM     28  C   UNL     1      49.656   7.510  15.536  0.00  0.00    +0.000 A 
ATOM     29  C   UNL     1      49.007   7.836  16.724  0.00  0.00    +0.000 A 
ATOM     30  C   UNL     1      48.593   9.144  16.941  0.00  0.00    +0.000 A 
ATOM     31  C   UNL     1      48.837  10.075  15.946  0.00  0.00    +0.000 A 
ATOM     32  N   UNL     1      49.456   9.785  14.780  0.00  0.00    +0.000 NA
ENDBRANCH  26  27
BRANCH  26  33
ATOM     33  C   UNL     1      50.837   9.569  12.533  0.00  0.00    +0.000 C 
BRANCH  33  34
ATOM     34  O   UNL     1      51.953  10.286  13.069  0.00  0.00    +0.000 OA
ATOM     35  H   UNL     1      52.549  10.494  12.320  0.00  0.00    +0.000 HD
ENDBRANCH  33  34
ENDBRANCH  26  33
ENDBRANCH  24  26
ENDBRANCH  23  24
ENDBRANCH   5  23
TORSDOF 9
ENDMDL
MODEL 8
REMARK VINA RESULT:    -6.698      2.940      5.101
REMARK INTER + INTRA:         -10.860
REMARK INTER:                  -9.347
REMARK INTRA:                  -1.513
REMARK UNBOUND:                -0.834
REMARK  Name = 
REMARK  9 active torsions:
REMARK  status: ('A' for Active; 'I' for Inactive)
REMARK    1  A    between atoms: C_2  and  C_22
REMARK    2  A    between atoms: N_3  and  C_4
REMARK    3  A    between atoms: C_4  and  C_5
REMARK    4  A    between atoms: C_9  and  C_10
REMARK    5  A    between atoms: C_10  and  N_11
REMARK    6  A    between atoms: N_11  and  CA_12
REMARK    7  A    between atoms: CA_12  and  C_13
REMARK    8  A    between atoms: CA_12  and  C_15
REMARK    9  A    between atoms: C_13  and  O_14
REMARK                            x       y       z     vdW  Elec       q    Type
REMARK                         _______ _______ _______ _____ _____    ______ ____
ROOT
ATOM      1  C   UNL     1      48.825   4.758  18.162  0.00  0.00    +0.000 A 
ATOM      2  C   UNL     1      48.157   3.541  18.356  0.00  0.00    +0.000 A 
ATOM      3  C   UNL     1      47.368   3.000  17.345  0.00  0.00    +0.000 A 
ATOM      4  C   UNL     1      47.233   3.675  16.132  0.00  0.00    +0.000 A 
ATOM      5  C   UNL     1      47.883   4.902  15.917  0.00  0.00    +0.000 A 
ATOM      6  C   UNL     1      48.697   5.423  16.932  0.00  0.00    +0.000 A 
ENDROOT
BRANCH   1   7
ATOM      7  C   UNL     1      49.683   5.326  19.259  0.00  0.00    +0.000 C 
BRANCH   7  10
ATOM      8  O   UNL     1      52.253   5.744  18.118  0.00  0.00    +0.000 OA
ATOM      9  C   UNL     1      52.043   4.754  18.816  0.00  0.00    +0.000 C 
ATOM     10  N   UNL     1      50.860   4.526  19.463  0.00  0.00    +0.000 N 
ATOM     11  H   UNL     1      50.740   3.680  20.002  0.00  0.00    +0.000 HD
BRANCH   9  12
ATOM     12  C   UNL     1      53.077   3.744  19.051  0.00  0.00    +0.000 A 
ATOM     13  C   UNL     1      54.216   4.046  19.783  0.00  0.00    +0.000 A 
ATOM     14  S   UNL     1      55.263   2.711  19.977  0.00  0.00    +0.000 S 
ATOM     15  C   UNL     1      54.248   1.704  19.052  0.00  0.00    +0.000 A 
ATOM     16  N   UNL     1      54.564   0.401  18.826  0.00  0.00    +0.000 NA
ATOM     17  C   UNL     1      53.716  -0.233  18.085  0.00  0.00    +0.000 A 
ATOM     18  N   UNL     1      52.585   0.319  17.543  0.00  0.00    +0.000 N 
ATOM     19  C   UNL     1      52.219   1.626  17.752  0.00  0.00    +0.000 A 
ATOM     20  O   UNL     1      51.182   2.076  17.276  0.00  0.00    +0.000 OA
ATOM     21  C   UNL     1      53.131   2.377  18.596  0.00  0.00    +0.000 A 
ATOM     22  H   UNL     1      51.962  -0.231  16.970  0.00  0.00    +0.000 HD
ENDBRANCH   9  12
ENDBRANCH   7  10
ENDBRANCH   1   7
BRANCH   5  23
ATOM     23  C   UNL     1      47.672   5.660  14.623  0.00  0.00    +0.000 C 
BRANCH  23  24
ATOM     24  N   UNL     1      46.939   4.817  13.681  0.00  0.00    +0.000 NA
ATOM     25  H   UNL     1      46.660   3.969  14.178  0.00  0.00    +0.000 HD
BRANCH  24  26
ATOM     26  CA  UNL     1      45.721   5.433  13.115  0.00  0.00    +0.000 C 
BRANCH  26  27
ATOM     27  C   UNL     1      45.363   4.798  11.763  0.00  0.00    +0.000 A 
ATOM     28  C   UNL     1      44.785   3.530  11.671  0.00  0.00    +0.000 A 
ATOM     29  C   UNL     1      44.499   3.004  10.414  0.00  0.00    +0.000 A 
ATOM     30  C   UNL     1      44.801   3.742   9.278  0.00  0.00    +0.000 A 
ATOM     31  C   UNL     1      45.393   4.982   9.448  0.00  0.00    +0.000 A 
ATOM     32  N   UNL     1      45.689   5.515  10.653  0.00  0.00    +0.000 NA
ENDBRANCH  26  27
BRANCH  26  33
ATOM     33  C   UNL     1      45.821   6.969  12.916  0.00  0.00    +0.000 C 
BRANCH  33  34
ATOM     34  O   UNL     1      44.575   7.573  12.557  0.00  0.00    +0.000 OA
ATOM     35  H   UNL     1      44.387   7.320  11.630  0.00  0.00    +0.000 HD
ENDBRANCH  33  34
ENDBRANCH  26  33
ENDBRANCH  24  26
ENDBRANCH  23  24
ENDBRANCH   5  23
TORSDOF 9
ENDMDL
MODEL 9
REMARK VINA RESULT:    -6.684      3.300      5.332
REMARK INTER + INTRA:         -10.839
REMARK INTER:                  -8.535
REMARK INTRA:                  -2.305
REMARK UNBOUND:                -0.834
REMARK  Name = 
REMARK  9 active torsions:
REMARK  status: ('A' for Active; 'I' for Inactive)
REMARK    1  A    between atoms: C_2  and  C_22
REMARK    2  A    between atoms: N_3  and  C_4
REMARK    3  A    between atoms: C_4  and  C_5
REMARK    4  A    between atoms: C_9  and  C_10
REMARK    5  A    between atoms: C_10  and  N_11
REMARK    6  A    between atoms: N_11  and  CA_12
REMARK    7  A    between atoms: CA_12  and  C_13
REMARK    8  A    between atoms: CA_12  and  C_15
REMARK    9  A    between atoms: C_13  and  O_14
REMARK                            x       y       z     vdW  Elec       q    Type
REMARK                         _______ _______ _______ _____ _____    ______ ____
ROOT
ATOM      1  C   UNL     1      45.407   5.528  12.868  0.00  0.00    +0.000 A 
ATOM      2  C   UNL     1      44.282   5.374  12.046  0.00  0.00    +0.000 A 
ATOM      3  C   UNL     1      43.782   6.453  11.324  0.00  0.00    +0.000 A 
ATOM      4  C   UNL     1      44.398   7.701  11.422  0.00  0.00    +0.000 A 
ATOM      5  C   UNL     1      45.520   7.884  12.247  0.00  0.00    +0.000 A 
ATOM      6  C   UNL     1      46.031   6.783  12.948  0.00  0.00    +0.000 A 
ENDROOT
BRANCH   1   7
ATOM      7  C   UNL     1      45.944   4.351  13.634  0.00  0.00    +0.000 C 
BRANCH   7  10
ATOM      8  O   UNL     1      47.873   2.883  15.118  0.00  0.00    +0.000 OA
ATOM      9  C   UNL     1      47.487   3.976  15.525  0.00  0.00    +0.000 C 
ATOM     10  N   UNL     1      46.624   4.776  14.828  0.00  0.00    +0.000 N 
ATOM     11  H   UNL     1      46.323   5.654  15.229  0.00  0.00    +0.000 HD
BRANCH   9  12
ATOM     12  C   UNL     1      47.963   4.540  16.789  0.00  0.00    +0.000 A 
ATOM     13  C   UNL     1      47.770   3.869  17.987  0.00  0.00    +0.000 A 
ATOM     14  S   UNL     1      48.447   4.680  19.329  0.00  0.00    +0.000 S 
ATOM     15  C   UNL     1      48.978   5.973  18.355  0.00  0.00    +0.000 A 
ATOM     16  N   UNL     1      49.648   7.029  18.889  0.00  0.00    +0.000 NA
ATOM     17  C   UNL     1      49.963   7.947  18.036  0.00  0.00    +0.000 A 
ATOM     18  N   UNL     1      49.662   7.910  16.699  0.00  0.00    +0.000 N 
ATOM     19  C   UNL     1      48.997   6.860  16.113  0.00  0.00    +0.000 A 
ATOM     20  O   UNL     1      48.774   6.849  14.907  0.00  0.00    +0.000 OA
ATOM     21  C   UNL     1      48.637   5.792  17.028  0.00  0.00    +0.000 A 
ATOM     22  H   UNL     1      49.937   8.662  16.084  0.00  0.00    +0.000 HD
ENDBRANCH   9  12
ENDBRANCH   7  10
ENDBRANCH   1   7
BRANCH   5  23
ATOM     23  C   UNL     1      46.137   9.259  12.401  0.00  0.00    +0.000 C 
BRANCH  23  24
ATOM     24  N   UNL     1      47.252   9.187  13.342  0.00  0.00    +0.000 NA
ATOM     25  H   UNL     1      47.641   8.244  13.290  0.00  0.00    +0.000 HD
BRANCH  24  26
ATOM     26  CA  UNL     1      48.347  10.145  13.081  0.00  0.00    +0.000 C 
BRANCH  26  27
ATOM     27  C   UNL     1      49.478   9.480  12.282  0.00  0.00    +0.000 A 
ATOM     28  C   UNL     1      49.400   8.154  11.852  0.00  0.00    +0.000 A 
ATOM     29  C   UNL     1      50.467   7.605  11.146  0.00  0.00    +0.000 A 
ATOM     30  C   UNL     1      51.590   8.380  10.890  0.00  0.00    +0.000 A 
ATOM     31  C   UNL     1      51.604   9.680  11.367  0.00  0.00    +0.000 A 
ATOM     32  N   UNL     1      50.588  10.236  12.062  0.00  0.00    +0.000 NA
ENDBRANCH  26  27
BRANCH  26  33
ATOM     33  C   UNL     1      48.963  10.769  14.362  0.00  0.00    +0.000 C 
BRANCH  33  34
ATOM     34  O   UNL     1      48.314  10.343  15.564  0.00  0.00    +0.000 OA
ATOM     35  H   UNL     1      49.017  10.077  16.193  0.00  0.00    +0.000 HD
ENDBRANCH  33  34
ENDBRANCH  26  33
ENDBRANCH  24  26
ENDBRANCH  23  24
ENDBRANCH   5  23
TORSDOF 9
ENDMDL
