MODEL 1
REMARK VINA RESULT:    -8.281      0.000      0.000
REMARK INTER + INTRA:         -12.859
REMARK INTER:                 -11.670
REMARK INTRA:                  -1.189
REMARK UNBOUND:                -1.189
REMARK  Name = 
REMARK  7 active torsions:
REMARK  status: ('A' for Active; 'I' for Inactive)
REMARK    1  A    between atoms: C_2  and  C_3
REMARK    2  A    between atoms: C_6  and  N_7
REMARK    3  A    between atoms: N_7  and  C_8
REMARK    4  A    between atoms: C_8  and  C_9
REMARK    5  A    between atoms: C_14  and  C_15
REMARK    6  A    between atoms: C_19  and  O_20
REMARK    7  A    between atoms: O_20  and  C_21
REMARK                            x       y       z     vdW  Elec       q    Type
REMARK                         _______ _______ _______ _____ _____    ______ ____
ROOT
ATOM      1  C   UNL     1      45.343   5.238  12.089  0.00  0.00    +0.000 A 
ATOM      2  C   UNL     1      46.059   6.378  11.690  0.00  0.00    +0.000 A 
ATOM      3  C   UNL     1      47.114   6.867  12.458  0.00  0.00    +0.000 A 
ATOM      4  C   UNL     1      47.498   6.197  13.618  0.00  0.00    +0.000 A 
ATOM      5  F   UNL     1      48.489   6.734  14.347  0.00  0.00    +0.000 F 
ATOM      6  C   UNL     1      46.876   5.006  14.020  0.00  0.00    +0.000 A 
ATOM      7  C   UNL     1      45.799   4.554  13.231  0.00  0.00    +0.000 A 
ENDROOT
BRANCH   6   8
ATOM      8  C   UNL     1      47.284   4.238  15.218  0.00  0.00    +0.000 A 
ATOM      9  C   UNL     1      46.703   4.521  16.469  0.00  0.00    +0.000 A 
ATOM     10  C   UNL     1      47.109   3.863  17.629  0.00  0.00    +0.000 A 
ATOM     11  C   UNL     1      48.089   2.880  17.553  0.00  0.00    +0.000 A 
ATOM     12  C   UNL     1      48.656   2.543  16.325  0.00  0.00    +0.000 A 
ATOM     13  C   UNL     1      48.275   3.236  15.169  0.00  0.00    +0.000 A 
BRANCH  12  14
ATOM     14  O   UNL     1      49.600   1.556  16.382  0.00  0.00    +0.000 OA
BRANCH  14  15
ATOM     15  C   UNL     1      50.682   1.799  17.262  0.00  0.00    +0.000 C 
ATOM     16  F   UNL     1      51.713   0.988  16.919  0.00  0.00    +0.000 F 
ATOM     17  F   UNL     1      51.098   3.073  17.039  0.00  0.00    +0.000 F 
ENDBRANCH  14  15
ENDBRANCH  12  14
ENDBRANCH   6   8
BRANCH   1  18
ATOM     18  C   UNL     1      44.053   4.830  11.389  0.00  0.00    +0.000 C 
ATOM     19  C   UNL     1      42.999   4.074  12.179  0.00  0.00    +0.000 C 
ATOM     20  C   UNL     1      42.806   5.532  11.927  0.00  0.00    +0.000 C 
BRANCH  18  21
ATOM     21  N   UNL     1      44.139   4.737   9.938  0.00  0.00    +0.000 N 
ATOM     22  H   UNL     1      43.689   5.440   9.361  0.00  0.00    +0.000 HD
BRANCH  21  26
ATOM     23  C   UNL     1      46.725   2.721   7.465  0.00  0.00    +0.000 A 
ATOM     24  C   UNL     1      46.622   4.100   7.484  0.00  0.00    +0.000 A 
ATOM     25  N   UNL     1      45.780   4.756   8.323  0.00  0.00    +0.000 NA
ATOM     26  C   UNL     1      45.021   4.005   9.156  0.00  0.00    +0.000 A 
ATOM     27  C   UNL     1      45.136   2.617   9.128  0.00  0.00    +0.000 A 
ATOM     28  N   UNL     1      45.983   1.944   8.294  0.00  0.00    +0.000 NA
BRANCH  23  30
ATOM     29  N   UNL     1      48.381   1.586   5.822  0.00  0.00    +0.000 NA
ATOM     30  C   UNL     1      47.621   2.068   6.554  0.00  0.00    +0.000 C 
ENDBRANCH  23  30
ENDBRANCH  21  26
ENDBRANCH  18  21
ENDBRANCH   1  18
TORSDOF 7
ENDMDL
MODEL 2
REMARK VINA RESULT:    -8.168      2.961      4.898
REMARK INTER + INTRA:         -12.699
REMARK INTER:                 -11.428
REMARK INTRA:                  -1.271
REMARK UNBOUND:                -1.189
REMARK  Name = 
REMARK  7 active torsions:
REMARK  status: ('A' for Active; 'I' for Inactive)
REMARK    1  A    between atoms: C_2  and  C_3
REMARK    2  A    between atoms: C_6  and  N_7
REMARK    3  A    between atoms: N_7  and  C_8
REMARK    4  A    between atoms: C_8  and  C_9
REMARK    5  A    between atoms: C_14  and  C_15
REMARK    6  A    between atoms: C_19  and  O_20
REMARK    7  A    between atoms: O_20  and  C_21
REMARK                            x       y       z     vdW  Elec       q    Type
REMARK                         _______ _______ _______ _____ _____    ______ ____
ROOT
ATOM      1  C   UNL     1      45.182   5.273  12.208  0.00  0.00    +0.000 A 
ATOM      2  C   UNL     1      45.588   4.530  13.330  0.00  0.00    +0.000 A 
ATOM      3  C   UNL     1      46.751   4.858  14.023  0.00  0.00    +0.000 A 
ATOM      4  C   UNL     1      47.507   5.961  13.630  0.00  0.00    +0.000 A 
ATOM      5  F   UNL     1      48.643   6.207  14.302  0.00  0.00    +0.000 F 
ATOM      6  C   UNL     1      47.105   6.789  12.573  0.00  0.00    +0.000 A 
ATOM      7  C   UNL     1      45.936   6.414  11.881  0.00  0.00    +0.000 A 
ENDROOT
BRANCH   6   8
ATOM      8  C   UNL     1      47.853   7.997  12.155  0.00  0.00    +0.000 A 
ATOM      9  C   UNL     1      47.206   9.247  12.109  0.00  0.00    +0.000 A 
ATOM     10  C   UNL     1      47.860  10.392  11.659  0.00  0.00    +0.000 A 
ATOM     11  C   UNL     1      49.193  10.314  11.274  0.00  0.00    +0.000 A 
ATOM     12  C   UNL     1      49.879   9.103  11.347  0.00  0.00    +0.000 A 
ATOM     13  C   UNL     1      49.205   7.947  11.760  0.00  0.00    +0.000 A 
BRANCH  12  14
ATOM     14  O   UNL     1      51.185   9.161  10.950  0.00  0.00    +0.000 OA
BRANCH  14  15
ATOM     15  C   UNL     1      51.877   7.925  10.950  0.00  0.00    +0.000 C 
ATOM     16  F   UNL     1      51.646   7.297   9.771  0.00  0.00    +0.000 F 
ATOM     17  F   UNL     1      53.204   8.211  10.985  0.00  0.00    +0.000 F 
ENDBRANCH  14  15
ENDBRANCH  12  14
ENDBRANCH   6   8
BRANCH   1  18
ATOM     18  C   UNL     1      44.049   4.791  11.310  0.00  0.00    +0.000 C 
ATOM     19  C   UNL     1      43.033   3.815  11.875  0.00  0.00    +0.000 C 
ATOM     20  C   UNL     1      42.663   5.255  11.758  0.00  0.00    +0.000 C 
BRANCH  18  21
ATOM     21  N   UNL     1      44.308   4.891   9.881  0.00  0.00    +0.000 N 
ATOM     22  H   UNL     1      44.045   5.733   9.379  0.00  0.00    +0.000 HD
BRANCH  21  26
ATOM     23  C   UNL     1      46.829   2.823   7.384  0.00  0.00    +0.000 A 
ATOM     24  C   UNL     1      46.783   4.205   7.432  0.00  0.00    +0.000 A 
ATOM     25  N   UNL     1      45.962   4.877   8.279  0.00  0.00    +0.000 NA
ATOM     26  C   UNL     1      45.165   4.140   9.090  0.00  0.00    +0.000 A 
ATOM     27  C   UNL     1      45.223   2.750   9.032  0.00  0.00    +0.000 A 
ATOM     28  N   UNL     1      46.048   2.061   8.189  0.00  0.00    +0.000 NA
BRANCH  23  30
ATOM     29  N   UNL     1      48.448   1.601   5.768  0.00  0.00    +0.000 NA
ATOM     30  C   UNL     1      47.705   2.154   6.465  0.00  0.00    +0.000 C 
ENDBRANCH  23  30
ENDBRANCH  21  26
ENDBRANCH  18  21
ENDBRANCH   1  18
TORSDOF 7
ENDMDL
MODEL 3
REMARK VINA RESULT:    -8.119      2.061      2.466
REMARK INTER + INTRA:         -12.631
REMARK INTER:                 -11.753
REMARK INTRA:                  -0.877
REMARK UNBOUND:                -1.189
REMARK  Name = 
REMARK  7 active torsions:
REMARK  status: ('A' for Active; 'I' for Inactive)
REMARK    1  A    between atoms: C_2  and  C_3
REMARK    2  A    between atoms: C_6  and  N_7
REMARK    3  A    between atoms: N_7  and  C_8
REMARK    4  A    between atoms: C_8  and  C_9
REMARK    5  A    between atoms: C_14  and  C_15
REMARK    6  A    between atoms: C_19  and  O_20
REMARK    7  A    between atoms: O_20  and  C_21
REMARK                            x       y       z     vdW  Elec       q    Type
REMARK                         _______ _______ _______ _____ _____    ______ ____
ROOT
ATOM      1  C   UNL     1      45.405   5.235  12.024  0.00  0.00    +0.000 A 
ATOM      2  C   UNL     1      46.128   6.268  11.404  0.00  0.00    +0.000 A 
ATOM      3  C   UNL     1      47.237   6.838  12.025  0.00  0.00    +0.000 A 
ATOM      4  C   UNL     1      47.667   6.354  13.260  0.00  0.00    +0.000 A 
ATOM      5  F   UNL     1      48.712   6.968  13.837  0.00  0.00    +0.000 F 
ATOM      6  C   UNL     1      47.037   5.270  13.885  0.00  0.00    +0.000 A 
ATOM      7  C   UNL     1      45.905   4.734  13.239  0.00  0.00    +0.000 A 
ENDROOT
BRANCH   6   8
ATOM      8  C   UNL     1      47.491   4.696  15.172  0.00  0.00    +0.000 A 
ATOM      9  C   UNL     1      47.568   3.299  15.334  0.00  0.00    +0.000 A 
ATOM     10  C   UNL     1      47.929   2.723  16.550  0.00  0.00    +0.000 A 
ATOM     11  C   UNL     1      48.252   3.540  17.627  0.00  0.00    +0.000 A 
ATOM     12  C   UNL     1      48.229   4.927  17.492  0.00  0.00    +0.000 A 
ATOM     13  C   UNL     1      47.825   5.501  16.280  0.00  0.00    +0.000 A 
BRANCH  12  14
ATOM     14  O   UNL     1      48.577   5.618  18.619  0.00  0.00    +0.000 OA
BRANCH  14  15
ATOM     15  C   UNL     1      47.500   6.194  19.336  0.00  0.00    +0.000 C 
ATOM     16  F   UNL     1      47.391   7.498  18.983  0.00  0.00    +0.000 F 
ATOM     17  F   UNL     1      46.365   5.579  18.913  0.00  0.00    +0.000 F 
ENDBRANCH  14  15
ENDBRANCH  12  14
ENDBRANCH   6   8
BRANCH   1  18
ATOM     18  C   UNL     1      44.067   4.764  11.468  0.00  0.00    +0.000 C 
ATOM     19  C   UNL     1      43.085   4.082  12.404  0.00  0.00    +0.000 C 
ATOM     20  C   UNL     1      42.860   5.511  12.038  0.00  0.00    +0.000 C 
BRANCH  18  21
ATOM     21  N   UNL     1      44.038   4.542  10.029  0.00  0.00    +0.000 N 
ATOM     22  H   UNL     1      43.451   5.125   9.440  0.00  0.00    +0.000 HD
BRANCH  21  26
ATOM     23  C   UNL     1      46.658   2.640   7.502  0.00  0.00    +0.000 A 
ATOM     24  C   UNL     1      46.454   4.008   7.485  0.00  0.00    +0.000 A 
ATOM     25  N   UNL     1      45.603   4.628   8.343  0.00  0.00    +0.000 NA
ATOM     26  C   UNL     1      44.937   3.851   9.230  0.00  0.00    +0.000 A 
ATOM     27  C   UNL     1      45.153   2.475   9.237  0.00  0.00    +0.000 A 
ATOM     28  N   UNL     1      46.011   1.839   8.385  0.00  0.00    +0.000 NA
BRANCH  23  30
ATOM     29  N   UNL     1      48.285   1.576   5.785  0.00  0.00    +0.000 NA
ATOM     30  C   UNL     1      47.560   2.025   6.571  0.00  0.00    +0.000 C 
ENDBRANCH  23  30
ENDBRANCH  21  26
ENDBRANCH  18  21
ENDBRANCH   1  18
TORSDOF 7
ENDMDL
MODEL 4
REMARK VINA RESULT:    -7.916      1.713      2.238
REMARK INTER + INTRA:         -12.344
REMARK INTER:                 -11.444
REMARK INTRA:                  -0.901
REMARK UNBOUND:                -1.189
REMARK  Name = 
REMARK  7 active torsions:
REMARK  status: ('A' for Active; 'I' for Inactive)
REMARK    1  A    between atoms: C_2  and  C_3
REMARK    2  A    between atoms: C_6  and  N_7
REMARK    3  A    between atoms: N_7  and  C_8
REMARK    4  A    between atoms: C_8  and  C_9
REMARK    5  A    between atoms: C_14  and  C_15
REMARK    6  A    between atoms: C_19  and  O_20
REMARK    7  A    between atoms: O_20  and  C_21
REMARK                            x       y       z     vdW  Elec       q    Type
REMARK                         _______ _______ _______ _____ _____    ______ ____
ROOT
ATOM      1  C   UNL     1      45.000   6.082  11.803  0.00  0.00    +0.000 A 
ATOM      2  C   UNL     1      44.874   7.390  11.308  0.00  0.00    +0.000 A 
ATOM      3  C   UNL     1      45.610   8.438  11.857  0.00  0.00    +0.000 A 
ATOM      4  C   UNL     1      46.518   8.186  12.884  0.00  0.00    +0.000 A 
ATOM      5  F   UNL     1      47.168   9.236  13.410  0.00  0.00    +0.000 F 
ATOM      6  C   UNL     1      46.748   6.888  13.360  0.00  0.00    +0.000 A 
ATOM      7  C   UNL     1      45.969   5.857  12.797  0.00  0.00    +0.000 A 
ENDROOT
BRANCH   6   8
ATOM      8  C   UNL     1      47.736   6.571  14.415  0.00  0.00    +0.000 A 
ATOM      9  C   UNL     1      48.895   7.359  14.558  0.00  0.00    +0.000 A 
ATOM     10  C   UNL     1      49.877   7.052  15.497  0.00  0.00    +0.000 A 
ATOM     11  C   UNL     1      49.703   5.960  16.340  0.00  0.00    +0.000 A 
ATOM     12  C   UNL     1      48.549   5.182  16.257  0.00  0.00    +0.000 A 
ATOM     13  C   UNL     1      47.585   5.471  15.284  0.00  0.00    +0.000 A 
BRANCH  12  14
ATOM     14  O   UNL     1      48.494   4.145  17.146  0.00  0.00    +0.000 OA
BRANCH  14  15
ATOM     15  C   UNL     1      47.885   2.961  16.663  0.00  0.00    +0.000 C 
ATOM     16  F   UNL     1      48.844   2.020  16.485  0.00  0.00    +0.000 F 
ATOM     17  F   UNL     1      47.068   2.503  17.647  0.00  0.00    +0.000 F 
ENDBRANCH  14  15
ENDBRANCH  12  14
ENDBRANCH   6   8
BRANCH   1  18
ATOM     18  C   UNL     1      44.041   4.979  11.372  0.00  0.00    +0.000 C 
ATOM     19  C   UNL     1      43.603   3.949  12.398  0.00  0.00    +0.000 C 
ATOM     20  C   UNL     1      42.667   5.055  12.039  0.00  0.00    +0.000 C 
BRANCH  18  21
ATOM     21  N   UNL     1      44.025   4.696   9.943  0.00  0.00    +0.000 N 
ATOM     22  H   UNL     1      43.447   5.256   9.325  0.00  0.00    +0.000 HD
BRANCH  21  26
ATOM     23  C   UNL     1      46.671   2.686   7.530  0.00  0.00    +0.000 A 
ATOM     24  C   UNL     1      46.528   4.061   7.509  0.00  0.00    +0.000 A 
ATOM     25  N   UNL     1      45.667   4.717   8.330  0.00  0.00    +0.000 NA
ATOM     26  C   UNL     1      44.929   3.967   9.183  0.00  0.00    +0.000 A 
ATOM     27  C   UNL     1      45.084   2.584   9.195  0.00  0.00    +0.000 A 
ATOM     28  N   UNL     1      45.951   1.912   8.379  0.00  0.00    +0.000 NA
BRANCH  23  30
ATOM     29  N   UNL     1      48.337   1.559   5.892  0.00  0.00    +0.000 NA
ATOM     30  C   UNL     1      47.586   2.033   6.638  0.00  0.00    +0.000 C 
ENDBRANCH  23  30
ENDBRANCH  21  26
ENDBRANCH  18  21
ENDBRANCH   1  18
TORSDOF 7
ENDMDL
MODEL 5
REMARK VINA RESULT:    -7.605      4.714      7.916
REMARK INTER + INTRA:         -11.906
REMARK INTER:                 -11.474
REMARK INTRA:                  -0.432
REMARK UNBOUND:                -1.189
REMARK  Name = 
REMARK  7 active torsions:
REMARK  status: ('A' for Active; 'I' for Inactive)
REMARK    1  A    between atoms: C_2  and  C_3
REMARK    2  A    between atoms: C_6  and  N_7
REMARK    3  A    between atoms: N_7  and  C_8
REMARK    4  A    between atoms: C_8  and  C_9
REMARK    5  A    between atoms: C_14  and  C_15
REMARK    6  A    between atoms: C_19  and  O_20
REMARK    7  A    between atoms: O_20  and  C_21
REMARK                            x       y       z     vdW  Elec       q    Type
REMARK                         _______ _______ _______ _____ _____    ______ ____
ROOT
ATOM      1  C   UNL     1      47.222   7.650  12.382  0.00  0.00    +0.000 A 
ATOM      2  C   UNL     1      46.221   8.566  12.743  0.00  0.00    +0.000 A 
ATOM      3  C   UNL     1      44.916   8.422  12.275  0.00  0.00    +0.000 A 
ATOM      4  C   UNL     1      44.582   7.334  11.471  0.00  0.00    +0.000 A 
ATOM      5  F   UNL     1      43.324   7.266  11.008  0.00  0.00    +0.000 F 
ATOM      6  C   UNL     1      45.519   6.342  11.148  0.00  0.00    +0.000 A 
ATOM      7  C   UNL     1      46.834   6.533  11.621  0.00  0.00    +0.000 A 
ENDROOT
BRANCH   6   8
ATOM      8  C   UNL     1      45.194   5.147  10.338  0.00  0.00    +0.000 A 
ATOM      9  C   UNL     1      44.454   4.091  10.903  0.00  0.00    +0.000 A 
ATOM     10  C   UNL     1      44.186   2.924  10.190  0.00  0.00    +0.000 A 
ATOM     11  C   UNL     1      44.629   2.804   8.878  0.00  0.00    +0.000 A 
ATOM     12  C   UNL     1      45.327   3.846   8.271  0.00  0.00    +0.000 A 
ATOM     13  C   UNL     1      45.630   5.000   9.005  0.00  0.00    +0.000 A 
BRANCH  12  14
ATOM     14  O   UNL     1      45.697   3.609   6.977  0.00  0.00    +0.000 OA
BRANCH  14  15
ATOM     15  C   UNL     1      46.719   2.644   6.804  0.00  0.00    +0.000 C 
ATOM     16  F   UNL     1      46.800   2.327   5.489  0.00  0.00    +0.000 F 
ATOM     17  F   UNL     1      47.893   3.243   7.134  0.00  0.00    +0.000 F 
ENDBRANCH  14  15
ENDBRANCH  12  14
ENDBRANCH   6   8
BRANCH   1  18
ATOM     18  C   UNL     1      48.689   7.920  12.694  0.00  0.00    +0.000 C 
ATOM     19  C   UNL     1      49.693   7.909  11.555  0.00  0.00    +0.000 C 
ATOM     20  C   UNL     1      49.223   9.220  12.091  0.00  0.00    +0.000 C 
BRANCH  18  21
ATOM     21  N   UNL     1      49.086   7.664  14.072  0.00  0.00    +0.000 N 
ATOM     22  H   UNL     1      49.518   8.402  14.617  0.00  0.00    +0.000 HD
BRANCH  21  26
ATOM     23  C   UNL     1      47.728   4.615  16.466  0.00  0.00    +0.000 A 
ATOM     24  C   UNL     1      47.528   4.645  15.098  0.00  0.00    +0.000 A 
ATOM     25  N   UNL     1      48.003   5.647  14.313  0.00  0.00    +0.000 NA
ATOM     26  C   UNL     1      48.688   6.643  14.923  0.00  0.00    +0.000 A 
ATOM     27  C   UNL     1      48.884   6.600  16.301  0.00  0.00    +0.000 A 
ATOM     28  N   UNL     1      48.417   5.596  17.101  0.00  0.00    +0.000 NA
BRANCH  23  30
ATOM     29  N   UNL     1      46.774   2.640  17.850  0.00  0.00    +0.000 NA
ATOM     30  C   UNL     1      47.200   3.542  17.258  0.00  0.00    +0.000 C 
ENDBRANCH  23  30
ENDBRANCH  21  26
ENDBRANCH  18  21
ENDBRANCH   1  18
TORSDOF 7
ENDMDL
MODEL 6
REMARK VINA RESULT:    -7.565      5.213      8.301
REMARK INTER + INTRA:         -11.850
REMARK INTER:                 -10.636
REMARK INTRA:                  -1.214
REMARK UNBOUND:                -1.189
REMARK  Name = 
REMARK  7 active torsions:
REMARK  status: ('A' for Active; 'I' for Inactive)
REMARK    1  A    between atoms: C_2  and  C_3
REMARK    2  A    between atoms: C_6  and  N_7
REMARK    3  A    between atoms: N_7  and  C_8
REMARK    4  A    between atoms: C_8  and  C_9
REMARK    5  A    between atoms: C_14  and  C_15
REMARK    6  A    between atoms: C_19  and  O_20
REMARK    7  A    between atoms: O_20  and  C_21
REMARK                            x       y       z     vdW  Elec       q    Type
REMARK                         _______ _______ _______ _____ _____    ______ ____
ROOT
ATOM      1  C   UNL     1      47.301   7.679  12.434  0.00  0.00    +0.000 A 
ATOM      2  C   UNL     1      46.246   8.479  12.901  0.00  0.00    +0.000 A 
ATOM      3  C   UNL     1      44.935   8.251  12.485  0.00  0.00    +0.000 A 
ATOM      4  C   UNL     1      44.654   7.191  11.625  0.00  0.00    +0.000 A 
ATOM      5  F   UNL     1      43.383   7.042  11.217  0.00  0.00    +0.000 F 
ATOM      6  C   UNL     1      45.653   6.307  11.194  0.00  0.00    +0.000 A 
ATOM      7  C   UNL     1      46.970   6.582  11.617  0.00  0.00    +0.000 A 
ENDROOT
BRANCH   6   8
ATOM      8  C   UNL     1      45.389   5.142  10.321  0.00  0.00    +0.000 A 
ATOM      9  C   UNL     1      44.715   4.015  10.831  0.00  0.00    +0.000 A 
ATOM     10  C   UNL     1      44.507   2.876  10.056  0.00  0.00    +0.000 A 
ATOM     11  C   UNL     1      44.943   2.854   8.737  0.00  0.00    +0.000 A 
ATOM     12  C   UNL     1      45.574   3.967   8.184  0.00  0.00    +0.000 A 
ATOM     13  C   UNL     1      45.819   5.093   8.979  0.00  0.00    +0.000 A 
BRANCH  12  14
ATOM     14  O   UNL     1      45.945   3.823   6.876  0.00  0.00    +0.000 OA
BRANCH  14  15
ATOM     15  C   UNL     1      46.664   2.640   6.574  0.00  0.00    +0.000 C 
ATOM     16  F   UNL     1      46.871   2.587   5.236  0.00  0.00    +0.000 F 
ATOM     17  F   UNL     1      47.887   2.759   7.153  0.00  0.00    +0.000 F 
ENDBRANCH  14  15
ENDBRANCH  12  14
ENDBRANCH   6   8
BRANCH   1  18
ATOM     18  C   UNL     1      48.754   8.055  12.696  0.00  0.00    +0.000 C 
ATOM     19  C   UNL     1      49.807   7.662  11.676  0.00  0.00    +0.000 C 
ATOM     20  C   UNL     1      49.320   9.072  11.704  0.00  0.00    +0.000 C 
BRANCH  18  21
ATOM     21  N   UNL     1      49.088   8.296  14.093  0.00  0.00    +0.000 N 
ATOM     22  H   UNL     1      48.771   9.145  14.548  0.00  0.00    +0.000 HD
BRANCH  21  26
ATOM     23  C   UNL     1      50.569   5.642  16.856  0.00  0.00    +0.000 A 
ATOM     24  C   UNL     1      51.330   6.657  16.302  0.00  0.00    +0.000 A 
ATOM     25  N   UNL     1      50.821   7.543  15.407  0.00  0.00    +0.000 NA
ATOM     26  C   UNL     1      49.521   7.398  15.058  0.00  0.00    +0.000 A 
ATOM     27  C   UNL     1      48.766   6.373  15.624  0.00  0.00    +0.000 A 
ATOM     28  N   UNL     1      49.263   5.479  16.530  0.00  0.00    +0.000 NA
BRANCH  23  30
ATOM     29  N   UNL     1      51.611   3.934  18.506  0.00  0.00    +0.000 NA
ATOM     30  C   UNL     1      51.150   4.721  17.790  0.00  0.00    +0.000 C 
ENDBRANCH  23  30
ENDBRANCH  21  26
ENDBRANCH  18  21
ENDBRANCH   1  18
TORSDOF 7
ENDMDL
MODEL 7
REMARK VINA RESULT:    -7.397      3.649      4.396
REMARK INTER + INTRA:         -11.613
REMARK INTER:                 -10.673
REMARK INTRA:                  -0.939
REMARK UNBOUND:                -1.189
REMARK  Name = 
REMARK  7 active torsions:
REMARK  status: ('A' for Active; 'I' for Inactive)
REMARK    1  A    between atoms: C_2  and  C_3
REMARK    2  A    between atoms: C_6  and  N_7
REMARK    3  A    between atoms: N_7  and  C_8
REMARK    4  A    between atoms: C_8  and  C_9
REMARK    5  A    between atoms: C_14  and  C_15
REMARK    6  A    between atoms: C_19  and  O_20
REMARK    7  A    between atoms: O_20  and  C_21
REMARK                            x       y       z     vdW  Elec       q    Type
REMARK                         _______ _______ _______ _____ _____    ______ ____
ROOT
ATOM      1  C   UNL     1      44.709   6.537  11.421  0.00  0.00    +0.000 A 
ATOM      2  C   UNL     1      44.094   7.763  11.116  0.00  0.00    +0.000 A 
ATOM      3  C   UNL     1      44.687   8.971  11.477  0.00  0.00    +0.000 A 
ATOM      4  C   UNL     1      45.928   8.974  12.112  0.00  0.00    +0.000 A 
ATOM      5  F   UNL     1      46.435  10.161  12.481  0.00  0.00    +0.000 F 
ATOM      6  C   UNL     1      46.628   7.786  12.364  0.00  0.00    +0.000 A 
ATOM      7  C   UNL     1      45.987   6.582  12.006  0.00  0.00    +0.000 A 
ENDROOT
BRANCH   6   8
ATOM      8  C   UNL     1      47.968   7.748  12.992  0.00  0.00    +0.000 A 
ATOM      9  C   UNL     1      48.152   7.090  14.224  0.00  0.00    +0.000 A 
ATOM     10  C   UNL     1      49.384   7.089  14.875  0.00  0.00    +0.000 A 
ATOM     11  C   UNL     1      50.471   7.724  14.287  0.00  0.00    +0.000 A 
ATOM     12  C   UNL     1      50.338   8.348  13.047  0.00  0.00    +0.000 A 
ATOM     13  C   UNL     1      49.088   8.382  12.417  0.00  0.00    +0.000 A 
BRANCH  12  14
ATOM     14  O   UNL     1      51.482   8.926  12.572  0.00  0.00    +0.000 OA
BRANCH  14  15
ATOM     15  C   UNL     1      51.854   8.550  11.259  0.00  0.00    +0.000 C 
ATOM     16  F   UNL     1      51.370   7.308  11.009  0.00  0.00    +0.000 F 
ATOM     17  F   UNL     1      51.216   9.394  10.407  0.00  0.00    +0.000 F 
ENDBRANCH  14  15
ENDBRANCH  12  14
ENDBRANCH   6   8
BRANCH   1  18
ATOM     18  C   UNL     1      43.970   5.217  11.240  0.00  0.00    +0.000 C 
ATOM     19  C   UNL     1      43.847   4.280  12.429  0.00  0.00    +0.000 C 
ATOM     20  C   UNL     1      42.673   5.117  12.043  0.00  0.00    +0.000 C 
BRANCH  18  21
ATOM     21  N   UNL     1      43.893   4.733   9.869  0.00  0.00    +0.000 N 
ATOM     22  H   UNL     1      43.223   5.144   9.227  0.00  0.00    +0.000 HD
BRANCH  21  26
ATOM     23  C   UNL     1      46.606   2.679   7.570  0.00  0.00    +0.000 A 
ATOM     24  C   UNL     1      46.487   4.056   7.543  0.00  0.00    +0.000 A 
ATOM     25  N   UNL     1      45.602   4.726   8.327  0.00  0.00    +0.000 NA
ATOM     26  C   UNL     1      44.816   3.989   9.148  0.00  0.00    +0.000 A 
ATOM     27  C   UNL     1      44.947   2.603   9.165  0.00  0.00    +0.000 A 
ATOM     28  N   UNL     1      45.837   1.917   8.388  0.00  0.00    +0.000 NA
BRANCH  23  30
ATOM     29  N   UNL     1      48.351   1.505   6.051  0.00  0.00    +0.000 NA
ATOM     30  C   UNL     1      47.547   2.011   6.717  0.00  0.00    +0.000 C 
ENDBRANCH  23  30
ENDBRANCH  21  26
ENDBRANCH  18  21
ENDBRANCH   1  18
TORSDOF 7
ENDMDL
MODEL 8
REMARK VINA RESULT:    -7.044      3.543      4.238
REMARK INTER + INTRA:         -11.115
REMARK INTER:                  -9.949
REMARK INTRA:                  -1.166
REMARK UNBOUND:                -1.189
REMARK  Name = 
REMARK  7 active torsions:
REMARK  status: ('A' for Active; 'I' for Inactive)
REMARK    1  A    between atoms: C_2  and  C_3
REMARK    2  A    between atoms: C_6  and  N_7
REMARK    3  A    between atoms: N_7  and  C_8
REMARK    4  A    between atoms: C_8  and  C_9
REMARK    5  A    between atoms: C_14  and  C_15
REMARK    6  A    between atoms: C_19  and  O_20
REMARK    7  A    between atoms: O_20  and  C_21
REMARK                            x       y       z     vdW  Elec       q    Type
REMARK                         _______ _______ _______ _____ _____    ______ ____
ROOT
ATOM      1  C   UNL     1      44.739   6.425  11.795  0.00  0.00    +0.000 A 
ATOM      2  C   UNL     1      44.080   7.529  11.229  0.00  0.00    +0.000 A 
ATOM      3  C   UNL     1      44.568   8.823  11.407  0.00  0.00    +0.000 A 
ATOM      4  C   UNL     1      45.748   9.028  12.120  0.00  0.00    +0.000 A 
ATOM      5  F   UNL     1      46.150  10.296  12.303  0.00  0.00    +0.000 F 
ATOM      6  C   UNL     1      46.493   7.958  12.634  0.00  0.00    +0.000 A 
ATOM      7  C   UNL     1      45.957   6.666  12.454  0.00  0.00    +0.000 A 
ENDROOT
BRANCH   6   8
ATOM      8  C   UNL     1      47.774   8.130  13.356  0.00  0.00    +0.000 A 
ATOM      9  C   UNL     1      48.977   7.685  12.774  0.00  0.00    +0.000 A 
ATOM     10  C   UNL     1      50.192   7.771  13.451  0.00  0.00    +0.000 A 
ATOM     11  C   UNL     1      50.232   8.338  14.719  0.00  0.00    +0.000 A 
ATOM     12  C   UNL     1      49.068   8.830  15.309  0.00  0.00    +0.000 A 
ATOM     13  C   UNL     1      47.844   8.702  14.642  0.00  0.00    +0.000 A 
BRANCH  12  14
ATOM     14  O   UNL     1      49.242   9.372  16.552  0.00  0.00    +0.000 OA
BRANCH  14  15
ATOM     15  C   UNL     1      48.743   8.598  17.628  0.00  0.00    +0.000 C 
ATOM     16  F   UNL     1      47.458   8.959  17.865  0.00  0.00    +0.000 F 
ATOM     17  F   UNL     1      48.714   7.306  17.210  0.00  0.00    +0.000 F 
ENDBRANCH  14  15
ENDBRANCH  12  14
ENDBRANCH   6   8
BRANCH   1  18
ATOM     18  C   UNL     1      44.098   5.043  11.804  0.00  0.00    +0.000 C 
ATOM     19  C   UNL     1      44.304   4.149  13.014  0.00  0.00    +0.000 C 
ATOM     20  C   UNL     1      43.007   4.871  12.862  0.00  0.00    +0.000 C 
BRANCH  18  21
ATOM     21  N   UNL     1      43.782   4.499  10.490  0.00  0.00    +0.000 N 
ATOM     22  H   UNL     1      42.903   4.738  10.044  0.00  0.00    +0.000 HD
BRANCH  21  26
ATOM     23  C   UNL     1      46.337   2.658   7.854  0.00  0.00    +0.000 A 
ATOM     24  C   UNL     1      45.570   1.962   8.771  0.00  0.00    +0.000 A 
ATOM     25  N   UNL     1      44.711   2.580   9.621  0.00  0.00    +0.000 NA
ATOM     26  C   UNL     1      44.629   3.930   9.550  0.00  0.00    +0.000 A 
ATOM     27  C   UNL     1      45.406   4.619   8.621  0.00  0.00    +0.000 A 
ATOM     28  N   UNL     1      46.269   4.009   7.756  0.00  0.00    +0.000 NA
BRANCH  23  30
ATOM     29  N   UNL     1      47.944   1.353   6.290  0.00  0.00    +0.000 NA
ATOM     30  C   UNL     1      47.240   1.965   6.981  0.00  0.00    +0.000 C 
ENDBRANCH  23  30
ENDBRANCH  21  26
ENDBRANCH  18  21
ENDBRANCH   1  18
TORSDOF 7
ENDMDL
MODEL 9
REMARK VINA RESULT:    -6.686      4.821      7.899
REMARK INTER + INTRA:         -10.611
REMARK INTER:                  -9.793
REMARK INTRA:                  -0.818
REMARK UNBOUND:                -1.189
REMARK  Name = 
REMARK  7 active torsions:
REMARK  status: ('A' for Active; 'I' for Inactive)
REMARK    1  A    between atoms: C_2  and  C_3
REMARK    2  A    between atoms: C_6  and  N_7
REMARK    3  A    between atoms: N_7  and  C_8
REMARK    4  A    between atoms: C_8  and  C_9
REMARK    5  A    between atoms: C_14  and  C_15
REMARK    6  A    between atoms: C_19  and  O_20
REMARK    7  A    between atoms: O_20  and  C_21
REMARK                            x       y       z     vdW  Elec       q    Type
REMARK                         _______ _______ _______ _____ _____    ______ ____
ROOT
ATOM      1  C   UNL     1      48.322   6.643  14.483  0.00  0.00    +0.000 A 
ATOM      2  C   UNL     1      49.054   7.338  13.507  0.00  0.00    +0.000 A 
ATOM      3  C   UNL     1      48.655   7.330  12.172  0.00  0.00    +0.000 A 
ATOM      4  C   UNL     1      47.492   6.659  11.798  0.00  0.00    +0.000 A 
ATOM      5  F   UNL     1      47.177   6.642  10.493  0.00  0.00    +0.000 F 
ATOM      6  C   UNL     1      46.676   6.020  12.742  0.00  0.00    +0.000 A 
ATOM      7  C   UNL     1      47.122   6.031  14.079  0.00  0.00    +0.000 A 
ENDROOT
BRANCH   6   8
ATOM      8  C   UNL     1      45.409   5.339  12.394  0.00  0.00    +0.000 A 
ATOM      9  C   UNL     1      44.186   5.820  12.900  0.00  0.00    +0.000 A 
ATOM     10  C   UNL     1      42.982   5.165  12.647  0.00  0.00    +0.000 A 
ATOM     11  C   UNL     1      42.974   4.027  11.849  0.00  0.00    +0.000 A 
ATOM     12  C   UNL     1      44.159   3.546  11.294  0.00  0.00    +0.000 A 
ATOM     13  C   UNL     1      45.372   4.184  11.587  0.00  0.00    +0.000 A 
BRANCH  12  14
ATOM     14  O   UNL     1      44.017   2.428  10.522  0.00  0.00    +0.000 OA
BRANCH  14  15
ATOM     15  C   UNL     1      44.845   2.371   9.375  0.00  0.00    +0.000 C 
ATOM     16  F   UNL     1      44.756   1.131   8.835  0.00  0.00    +0.000 F 
ATOM     17  F   UNL     1      44.322   3.231   8.463  0.00  0.00    +0.000 F 
ENDBRANCH  14  15
ENDBRANCH  12  14
ENDBRANCH   6   8
BRANCH   1  18
ATOM     18  C   UNL     1      48.867   6.454  15.893  0.00  0.00    +0.000 C 
ATOM     19  C   UNL     1      50.091   7.247  16.317  0.00  0.00    +0.000 C 
ATOM     20  C   UNL     1      48.745   7.695  16.778  0.00  0.00    +0.000 C 
BRANCH  18  21
ATOM     21  N   UNL     1      48.508   5.195  16.532  0.00  0.00    +0.000 N 
ATOM     22  H   UNL     1      47.534   4.914  16.579  0.00  0.00    +0.000 HD
BRANCH  21  26
ATOM     23  C   UNL     1      51.061   2.096  17.394  0.00  0.00    +0.000 A 
ATOM     24  C   UNL     1      51.340   3.413  17.713  0.00  0.00    +0.000 A 
ATOM     25  N   UNL     1      50.477   4.426  17.444  0.00  0.00    +0.000 NA
ATOM     26  C   UNL     1      49.311   4.105  16.834  0.00  0.00    +0.000 A 
ATOM     27  C   UNL     1      49.042   2.775  16.520  0.00  0.00    +0.000 A 
ATOM     28  N   UNL     1      49.899   1.745  16.790  0.00  0.00    +0.000 NA
BRANCH  23  30
ATOM     29  N   UNL     1      52.812   0.260  17.936  0.00  0.00    +0.000 NA
ATOM     30  C   UNL     1      52.008   1.058  17.687  0.00  0.00    +0.000 C 
ENDBRANCH  23  30
ENDBRANCH  21  26
ENDBRANCH  18  21
ENDBRANCH   1  18
TORSDOF 7
ENDMDL
