MODEL 1
REMARK VINA RESULT:    -8.114      0.000      0.000
REMARK INTER + INTRA:         -11.908
REMARK INTER:                 -10.960
REMARK INTRA:                  -0.948
REMARK UNBOUND:                -0.948
REMARK  Name = 
REMARK  7 active torsions:
REMARK  status: ('A' for Active; 'I' for Inactive)
REMARK    1  A    between atoms: C_1  and  N_2
REMARK    2  A    between atoms: C_8  and  C_9
REMARK    3  A    between atoms: N_11  and  C_12
REMARK    4  A    between atoms: C_12  and  C_13
REMARK    5  A    between atoms: C_16  and  C_17
REMARK    6  A    between atoms: C_17  and  O_18
REMARK    7  A    between atoms: O_18  and  C_19
REMARK                            x       y       z     vdW  Elec       q    Type
REMARK                         _______ _______ _______ _____ _____    ______ ____
ROOT
ATOM      1  C   UNL     1      48.305   7.453  13.803  0.00  0.00    +0.000 C 
ATOM      2  O   UNL     1      48.780   7.383  12.673  0.00  0.00    +0.000 OA
ATOM      3  N   UNL     1      47.004   7.802  14.045  0.00  0.00    +0.000 N 
ATOM      4  H   UNL     1      46.638   7.732  14.987  0.00  0.00    +0.000 HD
ENDROOT
BRANCH   1  12
ATOM      5  C   UNL     1      47.478   3.017  17.296  0.00  0.00    +0.000 C 
ATOM      6  N   UNL     1      48.353   4.161  17.144  0.00  0.00    +0.000 N 
ATOM      7  C   UNL     1      49.360   4.405  18.056  0.00  0.00    +0.000 A 
ATOM      8  N   UNL     1      50.185   5.400  18.011  0.00  0.00    +0.000 NA
ATOM      9  C   UNL     1      50.005   6.236  16.957  0.00  0.00    +0.000 A 
ATOM     10  S   UNL     1      51.029   7.573  16.714  0.00  0.00    +0.000 S 
ATOM     11  C   UNL     1      50.203   8.019  15.290  0.00  0.00    +0.000 A 
ATOM     12  C   UNL     1      49.127   7.195  14.994  0.00  0.00    +0.000 A 
ATOM     13  C   UNL     1      49.035   6.140  15.978  0.00  0.00    +0.000 A 
ATOM     14  C   UNL     1      48.115   5.019  16.075  0.00  0.00    +0.000 A 
ATOM     15  O   UNL     1      47.179   4.861  15.295  0.00  0.00    +0.000 OA
ENDBRANCH   1  12
BRANCH   3  16
ATOM     16  C   UNL     1      46.032   7.989  12.998  0.00  0.00    +0.000 C 
BRANCH  16  17
ATOM     17  C   UNL     1      45.654   6.688  12.343  0.00  0.00    +0.000 A 
ATOM     18  C   UNL     1      44.998   5.697  13.086  0.00  0.00    +0.000 A 
ATOM     19  C   UNL     1      44.646   4.482  12.498  0.00  0.00    +0.000 A 
ATOM     20  C   UNL     1      44.962   4.226  11.158  0.00  0.00    +0.000 A 
ATOM     21  C   UNL     1      45.613   5.218  10.411  0.00  0.00    +0.000 A 
ATOM     22  C   UNL     1      45.966   6.435  11.000  0.00  0.00    +0.000 A 
BRANCH  20  23
ATOM     23  C   UNL     1      44.634   2.891  10.535  0.00  0.00    +0.000 C 
BRANCH  23  24
ATOM     24  O   UNL     1      44.321   3.064   9.154  0.00  0.00    +0.000 OA
BRANCH  24  25
ATOM     25  C   UNL     1      45.329   2.578   8.340  0.00  0.00    +0.000 A 
ATOM     26  C   UNL     1      45.788   3.417   7.337  0.00  0.00    +0.000 A 
ATOM     27  C   UNL     1      46.819   2.961   6.517  0.00  0.00    +0.000 A 
ATOM     28  C   UNL     1      47.352   1.695   6.732  0.00  0.00    +0.000 A 
ATOM     29  C   UNL     1      46.823   0.928   7.755  0.00  0.00    +0.000 A 
ATOM     30  N   UNL     1      45.826   1.341   8.564  0.00  0.00    +0.000 NA
ENDBRANCH  24  25
ENDBRANCH  23  24
ENDBRANCH  20  23
ENDBRANCH  16  17
ENDBRANCH   3  16
TORSDOF 6
ENDMDL
MODEL 2
REMARK VINA RESULT:    -8.073      2.543      3.064
REMARK INTER + INTRA:         -11.853
REMARK INTER:                 -10.844
REMARK INTRA:                  -1.009
REMARK UNBOUND:                -0.948
REMARK  Name = 
REMARK  7 active torsions:
REMARK  status: ('A' for Active; 'I' for Inactive)
REMARK    1  A    between atoms: C_1  and  N_2
REMARK    2  A    between atoms: C_8  and  C_9
REMARK    3  A    between atoms: N_11  and  C_12
REMARK    4  A    between atoms: C_12  and  C_13
REMARK    5  A    between atoms: C_16  and  C_17
REMARK    6  A    between atoms: C_17  and  O_18
REMARK    7  A    between atoms: O_18  and  C_19
REMARK                            x       y       z     vdW  Elec       q    Type
REMARK                         _______ _______ _______ _____ _____    ______ ____
ROOT
ATOM      1  C   UNL     1      49.015   6.525  15.759  0.00  0.00    +0.000 C 
ATOM      2  O   UNL     1      50.142   6.627  15.282  0.00  0.00    +0.000 OA
ATOM      3  N   UNL     1      47.877   6.812  15.055  0.00  0.00    +0.000 N 
ATOM      4  H   UNL     1      46.975   6.601  15.462  0.00  0.00    +0.000 HD
ENDROOT
BRANCH   1  12
ATOM      5  C   UNL     1      46.969  10.001  19.796  0.00  0.00    +0.000 C 
ATOM      6  N   UNL     1      47.432   8.638  19.636  0.00  0.00    +0.000 N 
ATOM      7  C   UNL     1      47.458   7.771  20.710  0.00  0.00    +0.000 A 
ATOM      8  N   UNL     1      47.859   6.543  20.671  0.00  0.00    +0.000 NA
ATOM      9  C   UNL     1      48.272   6.123  19.448  0.00  0.00    +0.000 A 
ATOM     10  S   UNL     1      48.792   4.521  19.201  0.00  0.00    +0.000 S 
ATOM     11  C   UNL     1      49.070   4.807  17.543  0.00  0.00    +0.000 A 
ATOM     12  C   UNL     1      48.812   6.114  17.156  0.00  0.00    +0.000 A 
ATOM     13  C   UNL     1      48.327   6.871  18.289  0.00  0.00    +0.000 A 
ATOM     14  C   UNL     1      47.886   8.253  18.379  0.00  0.00    +0.000 A 
ATOM     15  O   UNL     1      47.941   9.030  17.429  0.00  0.00    +0.000 OA
ENDBRANCH   1  12
BRANCH   3  16
ATOM     16  C   UNL     1      47.882   7.129  13.649  0.00  0.00    +0.000 C 
BRANCH  16  17
ATOM     17  C   UNL     1      46.927   6.262  12.874  0.00  0.00    +0.000 A 
ATOM     18  C   UNL     1      46.544   5.015  13.385  0.00  0.00    +0.000 A 
ATOM     19  C   UNL     1      45.666   4.194  12.678  0.00  0.00    +0.000 A 
ATOM     20  C   UNL     1      45.168   4.597  11.433  0.00  0.00    +0.000 A 
ATOM     21  C   UNL     1      45.544   5.846  10.922  0.00  0.00    +0.000 A 
ATOM     22  C   UNL     1      46.425   6.668  11.630  0.00  0.00    +0.000 A 
BRANCH  20  23
ATOM     23  C   UNL     1      44.263   3.686  10.639  0.00  0.00    +0.000 C 
BRANCH  23  24
ATOM     24  O   UNL     1      44.251   4.089   9.269  0.00  0.00    +0.000 OA
BRANCH  24  25
ATOM     25  C   UNL     1      45.219   3.424   8.537  0.00  0.00    +0.000 A 
ATOM     26  C   UNL     1      45.376   2.070   8.786  0.00  0.00    +0.000 A 
ATOM     27  C   UNL     1      46.328   1.370   8.046  0.00  0.00    +0.000 A 
ATOM     28  C   UNL     1      47.077   2.045   7.088  0.00  0.00    +0.000 A 
ATOM     29  C   UNL     1      46.851   3.399   6.915  0.00  0.00    +0.000 A 
ATOM     30  N   UNL     1      45.938   4.103   7.616  0.00  0.00    +0.000 NA
ENDBRANCH  24  25
ENDBRANCH  23  24
ENDBRANCH  20  23
ENDBRANCH  16  17
ENDBRANCH   3  16
TORSDOF 6
ENDMDL
MODEL 3
REMARK VINA RESULT:    -7.892      1.803      2.038
REMARK INTER + INTRA:         -11.608
REMARK INTER:                 -10.442
REMARK INTRA:                  -1.166
REMARK UNBOUND:                -0.948
REMARK  Name = 
REMARK  7 active torsions:
REMARK  status: ('A' for Active; 'I' for Inactive)
REMARK    1  A    between atoms: C_1  and  N_2
REMARK    2  A    between atoms: C_8  and  C_9
REMARK    3  A    between atoms: N_11  and  C_12
REMARK    4  A    between atoms: C_12  and  C_13
REMARK    5  A    between atoms: C_16  and  C_17
REMARK    6  A    between atoms: C_17  and  O_18
REMARK    7  A    between atoms: O_18  and  C_19
REMARK                            x       y       z     vdW  Elec       q    Type
REMARK                         _______ _______ _______ _____ _____    ______ ____
ROOT
ATOM      1  C   UNL     1      48.769   8.194  15.580  0.00  0.00    +0.000 C 
ATOM      2  O   UNL     1      49.615   8.965  15.133  0.00  0.00    +0.000 OA
ATOM      3  N   UNL     1      47.819   7.595  14.799  0.00  0.00    +0.000 N 
ATOM      4  H   UNL     1      47.221   6.884  15.202  0.00  0.00    +0.000 HD
ENDROOT
BRANCH   1  12
ATOM      5  C   UNL     1      48.862   2.886  17.670  0.00  0.00    +0.000 C 
ATOM      6  N   UNL     1      48.783   4.257  18.129  0.00  0.00    +0.000 N 
ATOM      7  C   UNL     1      48.687   4.546  19.475  0.00  0.00    +0.000 A 
ATOM      8  N   UNL     1      48.605   5.733  19.982  0.00  0.00    +0.000 NA
ATOM      9  C   UNL     1      48.624   6.739  19.069  0.00  0.00    +0.000 A 
ATOM     10  S   UNL     1      48.570   8.367  19.560  0.00  0.00    +0.000 S 
ATOM     11  C   UNL     1      48.663   8.915  17.948  0.00  0.00    +0.000 A 
ATOM     12  C   UNL     1      48.700   7.888  17.016  0.00  0.00    +0.000 A 
ATOM     13  C   UNL     1      48.693   6.612  17.696  0.00  0.00    +0.000 A 
ATOM     14  C   UNL     1      48.764   5.261  17.166  0.00  0.00    +0.000 A 
ATOM     15  O   UNL     1      48.774   5.021  15.961  0.00  0.00    +0.000 OA
ENDBRANCH   1  12
BRANCH   3  16
ATOM     16  C   UNL     1      47.800   7.701  13.363  0.00  0.00    +0.000 C 
BRANCH  16  17
ATOM     17  C   UNL     1      46.772   6.791  12.745  0.00  0.00    +0.000 A 
ATOM     18  C   UNL     1      46.737   5.437  13.098  0.00  0.00    +0.000 A 
ATOM     19  C   UNL     1      45.796   4.576  12.531  0.00  0.00    +0.000 A 
ATOM     20  C   UNL     1      44.883   5.053  11.582  0.00  0.00    +0.000 A 
ATOM     21  C   UNL     1      44.912   6.409  11.231  0.00  0.00    +0.000 A 
ATOM     22  C   UNL     1      45.855   7.270  11.799  0.00  0.00    +0.000 A 
BRANCH  20  23
ATOM     23  C   UNL     1      43.902   4.112  10.925  0.00  0.00    +0.000 C 
BRANCH  23  24
ATOM     24  O   UNL     1      43.844   4.375   9.523  0.00  0.00    +0.000 OA
BRANCH  24  25
ATOM     25  C   UNL     1      44.826   3.683   8.836  0.00  0.00    +0.000 A 
ATOM     26  C   UNL     1      44.936   2.326   9.095  0.00  0.00    +0.000 A 
ATOM     27  C   UNL     1      45.902   1.599   8.400  0.00  0.00    +0.000 A 
ATOM     28  C   UNL     1      46.710   2.250   7.475  0.00  0.00    +0.000 A 
ATOM     29  C   UNL     1      46.529   3.609   7.290  0.00  0.00    +0.000 A 
ATOM     30  N   UNL     1      45.604   4.339   7.947  0.00  0.00    +0.000 NA
ENDBRANCH  24  25
ENDBRANCH  23  24
ENDBRANCH  20  23
ENDBRANCH  16  17
ENDBRANCH   3  16
TORSDOF 6
ENDMDL
MODEL 4
REMARK VINA RESULT:    -7.826      1.783      3.363
REMARK INTER + INTRA:         -11.519
REMARK INTER:                 -10.449
REMARK INTRA:                  -1.070
REMARK UNBOUND:                -0.948
REMARK  Name = 
REMARK  7 active torsions:
REMARK  status: ('A' for Active; 'I' for Inactive)
REMARK    1  A    between atoms: C_1  and  N_2
REMARK    2  A    between atoms: C_8  and  C_9
REMARK    3  A    between atoms: N_11  and  C_12
REMARK    4  A    between atoms: C_12  and  C_13
REMARK    5  A    between atoms: C_16  and  C_17
REMARK    6  A    between atoms: C_17  and  O_18
REMARK    7  A    between atoms: O_18  and  C_19
REMARK                            x       y       z     vdW  Elec       q    Type
REMARK                         _______ _______ _______ _____ _____    ______ ____
ROOT
ATOM      1  C   UNL     1      48.504   5.672  16.012  0.00  0.00    +0.000 C 
ATOM      2  O   UNL     1      48.826   4.703  16.693  0.00  0.00    +0.000 OA
ATOM      3  N   UNL     1      47.553   5.611  15.029  0.00  0.00    +0.000 N 
ATOM      4  H   UNL     1      47.248   6.465  14.579  0.00  0.00    +0.000 HD
ENDROOT
BRANCH   1  12
ATOM      5  C   UNL     1      50.569   8.765  11.684  0.00  0.00    +0.000 C 
ATOM      6  N   UNL     1      50.438   8.823  13.124  0.00  0.00    +0.000 N 
ATOM      7  C   UNL     1      50.923   9.902  13.835  0.00  0.00    +0.000 A 
ATOM      8  N   UNL     1      50.862  10.043  15.119  0.00  0.00    +0.000 NA
ATOM      9  C   UNL     1      50.255   9.018  15.770  0.00  0.00    +0.000 A 
ATOM     10  S   UNL     1      50.045   9.055  17.458  0.00  0.00    +0.000 S 
ATOM     11  C   UNL     1      49.246   7.549  17.449  0.00  0.00    +0.000 A 
ATOM     12  C   UNL     1      49.155   6.978  16.187  0.00  0.00    +0.000 A 
ATOM     13  C   UNL     1      49.741   7.866  15.208  0.00  0.00    +0.000 A 
ATOM     14  C   UNL     1      49.847   7.737  13.764  0.00  0.00    +0.000 A 
ATOM     15  O   UNL     1      49.476   6.735  13.159  0.00  0.00    +0.000 OA
ENDBRANCH   1  12
BRANCH   3  16
ATOM     16  C   UNL     1      46.744   4.443  14.790  0.00  0.00    +0.000 C 
BRANCH  16  17
ATOM     17  C   UNL     1      46.168   4.434  13.399  0.00  0.00    +0.000 A 
ATOM     18  C   UNL     1      45.621   3.255  12.878  0.00  0.00    +0.000 A 
ATOM     19  C   UNL     1      45.089   3.225  11.589  0.00  0.00    +0.000 A 
ATOM     20  C   UNL     1      45.112   4.373  10.787  0.00  0.00    +0.000 A 
ATOM     21  C   UNL     1      45.652   5.556  11.309  0.00  0.00    +0.000 A 
ATOM     22  C   UNL     1      46.186   5.585  12.600  0.00  0.00    +0.000 A 
BRANCH  20  23
ATOM     23  C   UNL     1      44.589   4.329   9.372  0.00  0.00    +0.000 C 
BRANCH  23  24
ATOM     24  O   UNL     1      44.408   2.973   8.965  0.00  0.00    +0.000 OA
BRANCH  24  25
ATOM     25  C   UNL     1      45.473   2.525   8.203  0.00  0.00    +0.000 A 
ATOM     26  C   UNL     1      46.015   3.418   7.293  0.00  0.00    +0.000 A 
ATOM     27  C   UNL     1      47.103   3.001   6.528  0.00  0.00    +0.000 A 
ATOM     28  C   UNL     1      47.609   1.718   6.705  0.00  0.00    +0.000 A 
ATOM     29  C   UNL     1      46.996   0.896   7.635  0.00  0.00    +0.000 A 
ATOM     30  N   UNL     1      45.942   1.271   8.388  0.00  0.00    +0.000 NA
ENDBRANCH  24  25
ENDBRANCH  23  24
ENDBRANCH  20  23
ENDBRANCH  16  17
ENDBRANCH   3  16
TORSDOF 6
ENDMDL
MODEL 5
REMARK VINA RESULT:    -7.492      2.070      2.861
REMARK INTER + INTRA:         -11.067
REMARK INTER:                 -10.250
REMARK INTRA:                  -0.817
REMARK UNBOUND:                -0.948
REMARK  Name = 
REMARK  7 active torsions:
REMARK  status: ('A' for Active; 'I' for Inactive)
REMARK    1  A    between atoms: C_1  and  N_2
REMARK    2  A    between atoms: C_8  and  C_9
REMARK    3  A    between atoms: N_11  and  C_12
REMARK    4  A    between atoms: C_12  and  C_13
REMARK    5  A    between atoms: C_16  and  C_17
REMARK    6  A    between atoms: C_17  and  O_18
REMARK    7  A    between atoms: O_18  and  C_19
REMARK                            x       y       z     vdW  Elec       q    Type
REMARK                         _______ _______ _______ _____ _____    ______ ____
ROOT
ATOM      1  C   UNL     1      48.641   7.096  16.018  0.00  0.00    +0.000 C 
ATOM      2  O   UNL     1      48.767   8.317  16.059  0.00  0.00    +0.000 OA
ATOM      3  N   UNL     1      48.082   6.439  14.956  0.00  0.00    +0.000 N 
ATOM      4  H   UNL     1      48.108   5.427  14.928  0.00  0.00    +0.000 HD
ENDROOT
BRANCH   1  12
ATOM      5  C   UNL     1      54.086   5.783  17.109  0.00  0.00    +0.000 C 
ATOM      6  N   UNL     1      52.759   5.537  17.634  0.00  0.00    +0.000 N 
ATOM      7  C   UNL     1      52.577   4.744  18.749  0.00  0.00    +0.000 A 
ATOM      8  N   UNL     1      51.436   4.460  19.288  0.00  0.00    +0.000 NA
ATOM      9  C   UNL     1      50.365   5.018  18.669  0.00  0.00    +0.000 A 
ATOM     10  S   UNL     1      48.789   4.788  19.268  0.00  0.00    +0.000 S 
ATOM     11  C   UNL     1      48.119   5.764  18.040  0.00  0.00    +0.000 A 
ATOM     12  C   UNL     1      49.060   6.248  17.143  0.00  0.00    +0.000 A 
ATOM     13  C   UNL     1      50.381   5.811  17.539  0.00  0.00    +0.000 A 
ATOM     14  C   UNL     1      51.680   6.091  16.952  0.00  0.00    +0.000 A 
ATOM     15  O   UNL     1      51.815   6.737  15.916  0.00  0.00    +0.000 OA
ENDBRANCH   1  12
BRANCH   3  16
ATOM     16  C   UNL     1      47.710   7.098  13.730  0.00  0.00    +0.000 C 
BRANCH  16  17
ATOM     17  C   UNL     1      46.800   6.246  12.887  0.00  0.00    +0.000 A 
ATOM     18  C   UNL     1      46.350   5.012  13.373  0.00  0.00    +0.000 A 
ATOM     19  C   UNL     1      45.512   4.206  12.603  0.00  0.00    +0.000 A 
ATOM     20  C   UNL     1      45.122   4.611  11.321  0.00  0.00    +0.000 A 
ATOM     21  C   UNL     1      45.565   5.848  10.835  0.00  0.00    +0.000 A 
ATOM     22  C   UNL     1      46.406   6.655  11.605  0.00  0.00    +0.000 A 
BRANCH  20  23
ATOM     23  C   UNL     1      44.261   3.714  10.464  0.00  0.00    +0.000 C 
BRANCH  23  24
ATOM     24  O   UNL     1      44.338   4.129   9.100  0.00  0.00    +0.000 OA
BRANCH  24  25
ATOM     25  C   UNL     1      45.298   3.414   8.405  0.00  0.00    +0.000 A 
ATOM     26  C   UNL     1      45.440   2.074   8.729  0.00  0.00    +0.000 A 
ATOM     27  C   UNL     1      46.383   1.323   8.029  0.00  0.00    +0.000 A 
ATOM     28  C   UNL     1      47.140   1.935   7.035  0.00  0.00    +0.000 A 
ATOM     29  C   UNL     1      46.930   3.280   6.789  0.00  0.00    +0.000 A 
ATOM     30  N   UNL     1      46.025   4.032   7.449  0.00  0.00    +0.000 NA
ENDBRANCH  24  25
ENDBRANCH  23  24
ENDBRANCH  20  23
ENDBRANCH  16  17
ENDBRANCH   3  16
TORSDOF 6
ENDMDL
MODEL 6
REMARK VINA RESULT:    -7.490      2.555      3.206
REMARK INTER + INTRA:         -11.065
REMARK INTER:                 -10.257
REMARK INTRA:                  -0.808
REMARK UNBOUND:                -0.948
REMARK  Name = 
REMARK  7 active torsions:
REMARK  status: ('A' for Active; 'I' for Inactive)
REMARK    1  A    between atoms: C_1  and  N_2
REMARK    2  A    between atoms: C_8  and  C_9
REMARK    3  A    between atoms: N_11  and  C_12
REMARK    4  A    between atoms: C_12  and  C_13
REMARK    5  A    between atoms: C_16  and  C_17
REMARK    6  A    between atoms: C_17  and  O_18
REMARK    7  A    between atoms: O_18  and  C_19
REMARK                            x       y       z     vdW  Elec       q    Type
REMARK                         _______ _______ _______ _____ _____    ______ ____
ROOT
ATOM      1  C   UNL     1      48.580   6.010  16.053  0.00  0.00    +0.000 C 
ATOM      2  O   UNL     1      49.180   5.101  16.620  0.00  0.00    +0.000 OA
ATOM      3  N   UNL     1      47.597   5.792  15.126  0.00  0.00    +0.000 N 
ATOM      4  H   UNL     1      47.061   6.576  14.778  0.00  0.00    +0.000 HD
ENDROOT
BRANCH   1  12
ATOM      5  C   UNL     1      47.286   8.694  20.919  0.00  0.00    +0.000 C 
ATOM      6  N   UNL     1      47.927   8.953  19.647  0.00  0.00    +0.000 N 
ATOM      7  C   UNL     1      48.439  10.201  19.355  0.00  0.00    +0.000 A 
ATOM      8  N   UNL     1      49.021  10.532  18.249  0.00  0.00    +0.000 NA
ATOM      9  C   UNL     1      49.115   9.528  17.339  0.00  0.00    +0.000 A 
ATOM     10  S   UNL     1      49.891   9.771  15.844  0.00  0.00    +0.000 S 
ATOM     11  C   UNL     1      49.616   8.155  15.374  0.00  0.00    +0.000 A 
ATOM     12  C   UNL     1      48.909   7.419  16.313  0.00  0.00    +0.000 A 
ATOM     13  C   UNL     1      48.636   8.240  17.472  0.00  0.00    +0.000 A 
ATOM     14  C   UNL     1      47.970   7.914  18.722  0.00  0.00    +0.000 A 
ATOM     15  O   UNL     1      47.456   6.819  18.933  0.00  0.00    +0.000 OA
ENDBRANCH   1  12
BRANCH   3  16
ATOM     16  C   UNL     1      47.078   4.483  14.824  0.00  0.00    +0.000 C 
BRANCH  16  17
ATOM     17  C   UNL     1      46.317   4.465  13.526  0.00  0.00    +0.000 A 
ATOM     18  C   UNL     1      45.884   3.247  12.987  0.00  0.00    +0.000 A 
ATOM     19  C   UNL     1      45.184   3.211  11.780  0.00  0.00    +0.000 A 
ATOM     20  C   UNL     1      44.920   4.393  11.079  0.00  0.00    +0.000 A 
ATOM     21  C   UNL     1      45.347   5.614  11.619  0.00  0.00    +0.000 A 
ATOM     22  C   UNL     1      46.049   5.651  12.827  0.00  0.00    +0.000 A 
BRANCH  20  23
ATOM     23  C   UNL     1      44.214   4.351   9.746  0.00  0.00    +0.000 C 
BRANCH  23  24
ATOM     24  O   UNL     1      44.248   3.024   9.221  0.00  0.00    +0.000 OA
BRANCH  24  25
ATOM     25  C   UNL     1      45.320   2.845   8.364  0.00  0.00    +0.000 A 
ATOM     26  C   UNL     1      45.927   1.599   8.368  0.00  0.00    +0.000 A 
ATOM     27  C   UNL     1      46.994   1.383   7.499  0.00  0.00    +0.000 A 
ATOM     28  C   UNL     1      47.408   2.412   6.659  0.00  0.00    +0.000 A 
ATOM     29  C   UNL     1      46.743   3.623   6.732  0.00  0.00    +0.000 A 
ATOM     30  N   UNL     1      45.708   3.862   7.563  0.00  0.00    +0.000 NA
ENDBRANCH  24  25
ENDBRANCH  23  24
ENDBRANCH  20  23
ENDBRANCH  16  17
ENDBRANCH   3  16
TORSDOF 6
ENDMDL
MODEL 7
REMARK VINA RESULT:    -7.191      2.601      8.349
REMARK INTER + INTRA:         -10.661
REMARK INTER:                  -9.588
REMARK INTRA:                  -1.073
REMARK UNBOUND:                -0.948
REMARK  Name = 
REMARK  7 active torsions:
REMARK  status: ('A' for Active; 'I' for Inactive)
REMARK    1  A    between atoms: C_1  and  N_2
REMARK    2  A    between atoms: C_8  and  C_9
REMARK    3  A    between atoms: N_11  and  C_12
REMARK    4  A    between atoms: C_12  and  C_13
REMARK    5  A    between atoms: C_16  and  C_17
REMARK    6  A    between atoms: C_17  and  O_18
REMARK    7  A    between atoms: O_18  and  C_19
REMARK                            x       y       z     vdW  Elec       q    Type
REMARK                         _______ _______ _______ _____ _____    ______ ____
ROOT
ATOM      1  C   UNL     1      45.186   6.586  11.494  0.00  0.00    +0.000 C 
ATOM      2  O   UNL     1      44.443   7.563  11.442  0.00  0.00    +0.000 OA
ATOM      3  N   UNL     1      46.533   6.684  11.717  0.00  0.00    +0.000 N 
ATOM      4  H   UNL     1      47.075   5.842  11.863  0.00  0.00    +0.000 HD
ENDROOT
BRANCH   1  12
ATOM      5  C   UNL     1      46.379   3.457   6.874  0.00  0.00    +0.000 C 
ATOM      6  N   UNL     1      45.631   3.368   8.111  0.00  0.00    +0.000 N 
ATOM      7  C   UNL     1      44.913   2.231   8.421  0.00  0.00    +0.000 A 
ATOM      8  N   UNL     1      44.209   2.059   9.492  0.00  0.00    +0.000 NA
ATOM      9  C   UNL     1      44.218   3.112  10.349  0.00  0.00    +0.000 A 
ATOM     10  S   UNL     1      43.383   3.044  11.830  0.00  0.00    +0.000 S 
ATOM     11  C   UNL     1      43.898   4.612  12.257  0.00  0.00    +0.000 A 
ATOM     12  C   UNL     1      44.674   5.225  11.283  0.00  0.00    +0.000 A 
ATOM     13  C   UNL     1      44.865   4.319  10.172  0.00  0.00    +0.000 A 
ATOM     14  C   UNL     1      45.629   4.481   8.946  0.00  0.00    +0.000 A 
ATOM     15  O   UNL     1      46.200   5.528   8.654  0.00  0.00    +0.000 OA
ENDBRANCH   1  12
BRANCH   3  16
ATOM     16  C   UNL     1      47.187   7.925  12.046  0.00  0.00    +0.000 C 
BRANCH  16  17
ATOM     17  C   UNL     1      47.829   7.880  13.406  0.00  0.00    +0.000 A 
ATOM     18  C   UNL     1      48.645   6.798  13.757  0.00  0.00    +0.000 A 
ATOM     19  C   UNL     1      49.243   6.735  15.016  0.00  0.00    +0.000 A 
ATOM     20  C   UNL     1      49.017   7.746  15.958  0.00  0.00    +0.000 A 
ATOM     21  C   UNL     1      48.206   8.833  15.607  0.00  0.00    +0.000 A 
ATOM     22  C   UNL     1      47.607   8.896  14.346  0.00  0.00    +0.000 A 
BRANCH  20  23
ATOM     23  C   UNL     1      49.616   7.652  17.341  0.00  0.00    +0.000 C 
BRANCH  23  24
ATOM     24  O   UNL     1      48.715   6.971  18.213  0.00  0.00    +0.000 OA
BRANCH  24  25
ATOM     25  C   UNL     1      48.754   5.602  18.016  0.00  0.00    +0.000 A 
ATOM     26  C   UNL     1      47.546   4.966  17.777  0.00  0.00    +0.000 A 
ATOM     27  C   UNL     1      47.558   3.590  17.552  0.00  0.00    +0.000 A 
ATOM     28  C   UNL     1      48.770   2.908  17.568  0.00  0.00    +0.000 A 
ATOM     29  C   UNL     1      49.923   3.629  17.822  0.00  0.00    +0.000 A 
ATOM     30  N   UNL     1      49.943   4.960  18.044  0.00  0.00    +0.000 NA
ENDBRANCH  24  25
ENDBRANCH  23  24
ENDBRANCH  20  23
ENDBRANCH  16  17
ENDBRANCH   3  16
TORSDOF 6
ENDMDL
MODEL 8
REMARK VINA RESULT:    -7.122      2.430      4.372
REMARK INTER + INTRA:         -10.567
REMARK INTER:                  -9.474
REMARK INTRA:                  -1.094
REMARK UNBOUND:                -0.948
REMARK  Name = 
REMARK  7 active torsions:
REMARK  status: ('A' for Active; 'I' for Inactive)
REMARK    1  A    between atoms: C_1  and  N_2
REMARK    2  A    between atoms: C_8  and  C_9
REMARK    3  A    between atoms: N_11  and  C_12
REMARK    4  A    between atoms: C_12  and  C_13
REMARK    5  A    between atoms: C_16  and  C_17
REMARK    6  A    between atoms: C_17  and  O_18
REMARK    7  A    between atoms: O_18  and  C_19
REMARK                            x       y       z     vdW  Elec       q    Type
REMARK                         _______ _______ _______ _____ _____    ______ ____
ROOT
ATOM      1  C   UNL     1      48.645   7.633  14.764  0.00  0.00    +0.000 C 
ATOM      2  O   UNL     1      48.281   7.785  15.928  0.00  0.00    +0.000 OA
ATOM      3  N   UNL     1      48.217   6.599  13.977  0.00  0.00    +0.000 N 
ATOM      4  H   UNL     1      48.460   6.589  12.994  0.00  0.00    +0.000 HD
ENDROOT
BRANCH   1  12
ATOM      5  C   UNL     1      47.242  11.381  10.696  0.00  0.00    +0.000 C 
ATOM      6  N   UNL     1      48.397  10.946  11.453  0.00  0.00    +0.000 N 
ATOM      7  C   UNL     1      49.636  11.515  11.239  0.00  0.00    +0.000 A 
ATOM      8  N   UNL     1      50.726  11.193  11.856  0.00  0.00    +0.000 NA
ATOM      9  C   UNL     1      50.579  10.213  12.784  0.00  0.00    +0.000 A 
ATOM     10  S   UNL     1      51.898   9.693  13.724  0.00  0.00    +0.000 S 
ATOM     11  C   UNL     1      50.927   8.577  14.573  0.00  0.00    +0.000 A 
ATOM     12  C   UNL     1      49.608   8.551  14.141  0.00  0.00    +0.000 A 
ATOM     13  C   UNL     1      49.418   9.534  13.097  0.00  0.00    +0.000 A 
ATOM     14  C   UNL     1      48.220   9.913  12.367  0.00  0.00    +0.000 A 
ATOM     15  O   UNL     1      47.143   9.343  12.520  0.00  0.00    +0.000 OA
ENDBRANCH   1  12
BRANCH   3  16
ATOM     16  C   UNL     1      47.198   5.667  14.388  0.00  0.00    +0.000 C 
BRANCH  16  17
ATOM     17  C   UNL     1      46.444   5.103  13.214  0.00  0.00    +0.000 A 
ATOM     18  C   UNL     1      46.155   5.920  12.113  0.00  0.00    +0.000 A 
ATOM     19  C   UNL     1      45.451   5.417  11.019  0.00  0.00    +0.000 A 
ATOM     20  C   UNL     1      45.005   4.090  11.013  0.00  0.00    +0.000 A 
ATOM     21  C   UNL     1      45.298   3.269  12.110  0.00  0.00    +0.000 A 
ATOM     22  C   UNL     1      46.002   3.773  13.207  0.00  0.00    +0.000 A 
BRANCH  20  23
ATOM     23  C   UNL     1      44.193   3.560   9.855  0.00  0.00    +0.000 C 
BRANCH  23  24
ATOM     24  O   UNL     1      44.590   2.222   9.559  0.00  0.00    +0.000 OA
BRANCH  24  25
ATOM     25  C   UNL     1      45.495   2.180   8.513  0.00  0.00    +0.000 A 
ATOM     26  C   UNL     1      45.643   3.336   7.763  0.00  0.00    +0.000 A 
ATOM     27  C   UNL     1      46.564   3.329   6.717  0.00  0.00    +0.000 A 
ATOM     28  C   UNL     1      47.302   2.177   6.466  0.00  0.00    +0.000 A 
ATOM     29  C   UNL     1      47.079   1.070   7.266  0.00  0.00    +0.000 A 
ATOM     30  N   UNL     1      46.195   1.047   8.284  0.00  0.00    +0.000 NA
ENDBRANCH  24  25
ENDBRANCH  23  24
ENDBRANCH  20  23
ENDBRANCH  16  17
ENDBRANCH   3  16
TORSDOF 6
ENDMDL
MODEL 9
REMARK VINA RESULT:    -6.934      4.468      7.689
REMARK INTER + INTRA:         -10.313
REMARK INTER:                  -9.357
REMARK INTRA:                  -0.956
REMARK UNBOUND:                -0.948
REMARK  Name = 
REMARK  7 active torsions:
REMARK  status: ('A' for Active; 'I' for Inactive)
REMARK    1  A    between atoms: C_1  and  N_2
REMARK    2  A    between atoms: C_8  and  C_9
REMARK    3  A    between atoms: N_11  and  C_12
REMARK    4  A    between atoms: C_12  and  C_13
REMARK    5  A    between atoms: C_16  and  C_17
REMARK    6  A    between atoms: C_17  and  O_18
REMARK    7  A    between atoms: O_18  and  C_19
REMARK                            x       y       z     vdW  Elec       q    Type
REMARK                         _______ _______ _______ _____ _____    ______ ____
ROOT
ATOM      1  C   UNL     1      44.908   6.725  11.592  0.00  0.00    +0.000 C 
ATOM      2  O   UNL     1      44.177   7.640  11.221  0.00  0.00    +0.000 OA
ATOM      3  N   UNL     1      46.137   6.935  12.158  0.00  0.00    +0.000 N 
ATOM      4  H   UNL     1      46.644   6.150  12.547  0.00  0.00    +0.000 HD
ENDROOT
BRANCH   1  12
ATOM      5  C   UNL     1      46.488   3.558   7.116  0.00  0.00    +0.000 C 
ATOM      6  N   UNL     1      45.717   3.447   8.336  0.00  0.00    +0.000 N 
ATOM      7  C   UNL     1      45.090   2.263   8.669  0.00  0.00    +0.000 A 
ATOM      8  N   UNL     1      44.375   2.067   9.729  0.00  0.00    +0.000 NA
ATOM      9  C   UNL     1      44.271   3.145  10.547  0.00  0.00    +0.000 A 
ATOM     10  S   UNL     1      43.405   3.054  12.009  0.00  0.00    +0.000 S 
ATOM     11  C   UNL     1      43.773   4.675  12.393  0.00  0.00    +0.000 A 
ATOM     12  C   UNL     1      44.519   5.319  11.417  0.00  0.00    +0.000 A 
ATOM     13  C   UNL     1      44.817   4.397  10.343  0.00  0.00    +0.000 A 
ATOM     14  C   UNL     1      45.597   4.582   9.132  0.00  0.00    +0.000 A 
ATOM     15  O   UNL     1      46.085   5.665   8.816  0.00  0.00    +0.000 OA
ENDBRANCH   1  12
BRANCH   3  16
ATOM     16  C   UNL     1      46.633   8.244  12.498  0.00  0.00    +0.000 C 
BRANCH  16  17
ATOM     17  C   UNL     1      48.069   8.425  12.086  0.00  0.00    +0.000 A 
ATOM     18  C   UNL     1      48.937   7.326  12.081  0.00  0.00    +0.000 A 
ATOM     19  C   UNL     1      50.274   7.476  11.709  0.00  0.00    +0.000 A 
ATOM     20  C   UNL     1      50.773   8.735  11.354  0.00  0.00    +0.000 A 
ATOM     21  C   UNL     1      49.905   9.835  11.352  0.00  0.00    +0.000 A 
ATOM     22  C   UNL     1      48.566   9.685  11.725  0.00  0.00    +0.000 A 
BRANCH  20  23
ATOM     23  C   UNL     1      52.231   8.910  11.006  0.00  0.00    +0.000 C 
BRANCH  23  24
ATOM     24  O   UNL     1      52.373   9.121   9.602  0.00  0.00    +0.000 OA
BRANCH  24  25
ATOM     25  C   UNL     1      52.796   7.973   8.956  0.00  0.00    +0.000 A 
ATOM     26  C   UNL     1      53.255   6.936   9.752  0.00  0.00    +0.000 A 
ATOM     27  C   UNL     1      53.666   5.759   9.129  0.00  0.00    +0.000 A 
ATOM     28  C   UNL     1      53.598   5.661   7.744  0.00  0.00    +0.000 A 
ATOM     29  C   UNL     1      53.131   6.753   7.033  0.00  0.00    +0.000 A 
ATOM     30  N   UNL     1      52.727   7.905   7.608  0.00  0.00    +0.000 NA
ENDBRANCH  24  25
ENDBRANCH  23  24
ENDBRANCH  20  23
ENDBRANCH  16  17
ENDBRANCH   3  16
TORSDOF 6
ENDMDL
