MODEL 1
REMARK VINA RESULT:    -8.121      0.000      0.000
REMARK INTER + INTRA:         -12.396
REMARK INTER:                 -11.207
REMARK INTRA:                  -1.189
REMARK UNBOUND:                -1.189
REMARK  Name = 
REMARK  8 active torsions:
REMARK  status: ('A' for Active; 'I' for Inactive)
REMARK    1  A    between atoms: C_1  and  C_2
REMARK    2  A    between atoms: C_2  and  C_3
REMARK    3  A    between atoms: C_7  and  C_8
REMARK    4  A    between atoms: C_8  and  C_9
REMARK    5  A    between atoms: C_9  and  N_10
REMARK    6  A    between atoms: N_10  and  C_11
REMARK    7  A    between atoms: C_14  and  C_15
REMARK    8  A    between atoms: C_23  and  O_24
REMARK                            x       y       z     vdW  Elec       q    Type
REMARK                         _______ _______ _______ _____ _____    ______ ____
ROOT
ATOM      1  C   UNL     1      46.956   6.595  12.963  0.00  0.00    +0.000 A 
ATOM      2  C   UNL     1      47.546   5.469  13.554  0.00  0.00    +0.000 A 
ATOM      3  C   UNL     1      46.826   4.282  13.728  0.00  0.00    +0.000 A 
ATOM      4  C   UNL     1      45.491   4.196  13.327  0.00  0.00    +0.000 A 
ATOM      5  C   UNL     1      44.867   5.292  12.727  0.00  0.00    +0.000 A 
ATOM      6  C   UNL     1      45.628   6.459  12.532  0.00  0.00    +0.000 A 
ENDROOT
BRANCH   1   8
ATOM      7  C   UNL     1      48.101   8.305  14.344  0.00  0.00    +0.000 C 
ATOM      8  C   UNL     1      47.693   7.955  12.891  0.00  0.00    +0.000 C 
ATOM      9  C   UNL     1      48.940   7.846  11.975  0.00  0.00    +0.000 C 
ATOM     10  C   UNL     1      49.677   9.175  11.783  0.00  0.00    +0.000 C 
ATOM     11  C   UNL     1      48.756  10.283  11.280  0.00  0.00    +0.000 C 
ATOM     12  C   UNL     1      47.522  10.439  12.157  0.00  0.00    +0.000 C 
ATOM     13  C   UNL     1      46.797   9.110  12.338  0.00  0.00    +0.000 C 
BRANCH  11  14
ATOM     14  O   UNL     1      49.467  11.515  11.241  0.00  0.00    +0.000 OA
ATOM     15  H   UNL     1      49.507  11.813  10.316  0.00  0.00    +0.000 HD
ENDBRANCH  11  14
ENDBRANCH   1   8
BRANCH   5  16
ATOM     16  C   UNL     1      43.392   5.216  12.356  0.00  0.00    +0.000 C 
BRANCH  16  17
ATOM     17  C   UNL     1      43.126   4.383  11.096  0.00  0.00    +0.000 C 
BRANCH  17  18
ATOM     18  N   UNL     1      43.775   4.899   9.889  0.00  0.00    +0.000 N 
ATOM     19  H   UNL     1      44.207   5.808  10.046  0.00  0.00    +0.000 HD
BRANCH  18  20
ATOM     20  C   UNL     1      44.678   4.001   9.277  0.00  0.00    +0.000 A 
ATOM     21  C   UNL     1      44.608   2.610   9.438  0.00  0.00    +0.000 A 
ATOM     22  C   UNL     1      45.474   1.761   8.751  0.00  0.00    +0.000 A 
ATOM     23  C   UNL     1      46.386   2.328   7.878  0.00  0.00    +0.000 A 
ATOM     24  N   UNL     1      46.484   3.667   7.651  0.00  0.00    +0.000 NA
ATOM     25  C   UNL     1      45.619   4.453   8.343  0.00  0.00    +0.000 A 
BRANCH  23  26
ATOM     26  C   UNL     1      47.304   1.436   7.102  0.00  0.00    +0.000 C 
ATOM     27  N   UNL     1      48.391   2.055   6.551  0.00  0.00    +0.000 N 
ATOM     28  O   UNL     1      47.103   0.235   6.960  0.00  0.00    +0.000 OA
ATOM     29  H   UNL     1      48.501   3.055   6.658  0.00  0.00    +0.000 HD
ATOM     30  H   UNL     1      49.028   1.522   5.976  0.00  0.00    +0.000 HD
ENDBRANCH  23  26
ENDBRANCH  18  20
ENDBRANCH  17  18
ENDBRANCH  16  17
ENDBRANCH   5  16
TORSDOF 7
ENDMDL
MODEL 2
REMARK VINA RESULT:    -8.083      3.594      7.283
REMARK INTER + INTRA:         -12.343
REMARK INTER:                 -11.184
REMARK INTRA:                  -1.160
REMARK UNBOUND:                -1.189
REMARK  Name = 
REMARK  8 active torsions:
REMARK  status: ('A' for Active; 'I' for Inactive)
REMARK    1  A    between atoms: C_1  and  C_2
REMARK    2  A    between atoms: C_2  and  C_3
REMARK    3  A    between atoms: C_7  and  C_8
REMARK    4  A    between atoms: C_8  and  C_9
REMARK    5  A    between atoms: C_9  and  N_10
REMARK    6  A    between atoms: N_10  and  C_11
REMARK    7  A    between atoms: C_14  and  C_15
REMARK    8  A    between atoms: C_23  and  O_24
REMARK                            x       y       z     vdW  Elec       q    Type
REMARK                         _______ _______ _______ _____ _____    ______ ____
ROOT
ATOM      1  C   UNL     1      44.720   3.663   9.615  0.00  0.00    +0.000 A 
ATOM      2  C   UNL     1      44.034   2.828  10.510  0.00  0.00    +0.000 A 
ATOM      3  C   UNL     1      43.520   3.325  11.714  0.00  0.00    +0.000 A 
ATOM      4  C   UNL     1      43.692   4.666  12.060  0.00  0.00    +0.000 A 
ATOM      5  C   UNL     1      44.363   5.533  11.194  0.00  0.00    +0.000 A 
ATOM      6  C   UNL     1      44.835   5.014   9.975  0.00  0.00    +0.000 A 
ENDROOT
BRANCH   1   8
ATOM      7  C   UNL     1      44.313   2.986   7.267  0.00  0.00    +0.000 C 
ATOM      8  C   UNL     1      45.413   3.102   8.350  0.00  0.00    +0.000 C 
ATOM      9  C   UNL     1      46.549   4.054   7.889  0.00  0.00    +0.000 C 
ATOM     10  C   UNL     1      47.342   3.525   6.691  0.00  0.00    +0.000 C 
ATOM     11  C   UNL     1      47.902   2.126   6.935  0.00  0.00    +0.000 C 
ATOM     12  C   UNL     1      46.821   1.150   7.376  0.00  0.00    +0.000 C 
ATOM     13  C   UNL     1      46.041   1.688   8.572  0.00  0.00    +0.000 C 
BRANCH  11  14
ATOM     14  O   UNL     1      48.519   1.644   5.747  0.00  0.00    +0.000 OA
ATOM     15  H   UNL     1      48.491   2.354   5.082  0.00  0.00    +0.000 HD
ENDBRANCH  11  14
ENDBRANCH   1   8
BRANCH   5  16
ATOM     16  C   UNL     1      44.610   6.978  11.608  0.00  0.00    +0.000 C 
BRANCH  16  17
ATOM     17  C   UNL     1      45.584   7.112  12.786  0.00  0.00    +0.000 C 
BRANCH  17  18
ATOM     18  N   UNL     1      46.859   6.422  12.590  0.00  0.00    +0.000 N 
ATOM     19  H   UNL     1      47.615   7.070  12.373  0.00  0.00    +0.000 HD
BRANCH  18  20
ATOM     20  C   UNL     1      47.221   5.545  13.637  0.00  0.00    +0.000 A 
ATOM     21  C   UNL     1      47.704   5.986  14.877  0.00  0.00    +0.000 A 
ATOM     22  C   UNL     1      47.974   5.085  15.906  0.00  0.00    +0.000 A 
ATOM     23  C   UNL     1      47.719   3.743  15.681  0.00  0.00    +0.000 A 
ATOM     24  N   UNL     1      47.218   3.253  14.513  0.00  0.00    +0.000 NA
ATOM     25  C   UNL     1      46.972   4.170  13.541  0.00  0.00    +0.000 A 
BRANCH  23  26
ATOM     26  C   UNL     1      47.967   2.759  16.781  0.00  0.00    +0.000 C 
ATOM     27  N   UNL     1      46.993   2.694  17.738  0.00  0.00    +0.000 N 
ATOM     28  O   UNL     1      48.972   2.058  16.834  0.00  0.00    +0.000 OA
ATOM     29  H   UNL     1      46.197   3.316  17.679  0.00  0.00    +0.000 HD
ATOM     30  H   UNL     1      47.117   2.085  18.533  0.00  0.00    +0.000 HD
ENDBRANCH  23  26
ENDBRANCH  18  20
ENDBRANCH  17  18
ENDBRANCH  16  17
ENDBRANCH   5  16
TORSDOF 7
ENDMDL
MODEL 3
REMARK VINA RESULT:    -8.076      1.103      1.667
REMARK INTER + INTRA:         -12.334
REMARK INTER:                 -11.282
REMARK INTRA:                  -1.052
REMARK UNBOUND:                -1.189
REMARK  Name = 
REMARK  8 active torsions:
REMARK  status: ('A' for Active; 'I' for Inactive)
REMARK    1  A    between atoms: C_1  and  C_2
REMARK    2  A    between atoms: C_2  and  C_3
REMARK    3  A    between atoms: C_7  and  C_8
REMARK    4  A    between atoms: C_8  and  C_9
REMARK    5  A    between atoms: C_9  and  N_10
REMARK    6  A    between atoms: N_10  and  C_11
REMARK    7  A    between atoms: C_14  and  C_15
REMARK    8  A    between atoms: C_23  and  O_24
REMARK                            x       y       z     vdW  Elec       q    Type
REMARK                         _______ _______ _______ _____ _____    ______ ____
ROOT
ATOM      1  C   UNL     1      46.740   6.652  12.977  0.00  0.00    +0.000 A 
ATOM      2  C   UNL     1      47.481   5.571  13.477  0.00  0.00    +0.000 A 
ATOM      3  C   UNL     1      46.902   4.306  13.629  0.00  0.00    +0.000 A 
ATOM      4  C   UNL     1      45.562   4.094  13.297  0.00  0.00    +0.000 A 
ATOM      5  C   UNL     1      44.791   5.141  12.788  0.00  0.00    +0.000 A 
ATOM      6  C   UNL     1      45.411   6.392  12.613  0.00  0.00    +0.000 A 
ENDROOT
BRANCH   1   8
ATOM      7  C   UNL     1      46.133   9.031  12.637  0.00  0.00    +0.000 C 
ATOM      8  C   UNL     1      47.323   8.086  12.936  0.00  0.00    +0.000 C 
ATOM      9  C   UNL     1      47.986   8.439  14.293  0.00  0.00    +0.000 C 
ATOM     10  C   UNL     1      48.663   9.812  14.305  0.00  0.00    +0.000 C 
ATOM     11  C   UNL     1      49.676   9.971  13.174  0.00  0.00    +0.000 C 
ATOM     12  C   UNL     1      49.068   9.649  11.817  0.00  0.00    +0.000 C 
ATOM     13  C   UNL     1      48.399   8.278  11.818  0.00  0.00    +0.000 C 
BRANCH  11  14
ATOM     14  O   UNL     1      50.177  11.303  13.164  0.00  0.00    +0.000 OA
ATOM     15  H   UNL     1      51.149  11.261  13.151  0.00  0.00    +0.000 HD
ENDBRANCH  11  14
ENDBRANCH   1   8
BRANCH   5  16
ATOM     16  C   UNL     1      43.313   4.922  12.495  0.00  0.00    +0.000 C 
BRANCH  16  17
ATOM     17  C   UNL     1      43.057   4.250  11.140  0.00  0.00    +0.000 C 
BRANCH  17  18
ATOM     18  N   UNL     1      43.794   4.848  10.026  0.00  0.00    +0.000 N 
ATOM     19  H   UNL     1      44.337   5.659  10.318  0.00  0.00    +0.000 HD
BRANCH  18  20
ATOM     20  C   UNL     1      44.587   3.940   9.289  0.00  0.00    +0.000 A 
ATOM     21  C   UNL     1      45.468   4.336   8.273  0.00  0.00    +0.000 A 
ATOM     22  C   UNL     1      46.286   3.411   7.628  0.00  0.00    +0.000 A 
ATOM     23  C   UNL     1      46.229   2.091   8.042  0.00  0.00    +0.000 A 
ATOM     24  N   UNL     1      45.421   1.646   9.043  0.00  0.00    +0.000 NA
ATOM     25  C   UNL     1      44.643   2.585   9.642  0.00  0.00    +0.000 A 
BRANCH  23  26
ATOM     26  C   UNL     1      47.123   1.083   7.389  0.00  0.00    +0.000 C 
ATOM     27  N   UNL     1      46.834  -0.222   7.669  0.00  0.00    +0.000 N 
ATOM     28  O   UNL     1      48.055   1.395   6.655  0.00  0.00    +0.000 OA
ATOM     29  H   UNL     1      46.080  -0.438   8.309  0.00  0.00    +0.000 HD
ATOM     30  H   UNL     1      47.424  -0.953   7.299  0.00  0.00    +0.000 HD
ENDBRANCH  23  26
ENDBRANCH  18  20
ENDBRANCH  17  18
ENDBRANCH  16  17
ENDBRANCH   5  16
TORSDOF 7
ENDMDL
MODEL 4
REMARK VINA RESULT:    -7.626      3.613      4.803
REMARK INTER + INTRA:         -11.713
REMARK INTER:                 -10.878
REMARK INTRA:                  -0.835
REMARK UNBOUND:                -1.189
REMARK  Name = 
REMARK  8 active torsions:
REMARK  status: ('A' for Active; 'I' for Inactive)
REMARK    1  A    between atoms: C_1  and  C_2
REMARK    2  A    between atoms: C_2  and  C_3
REMARK    3  A    between atoms: C_7  and  C_8
REMARK    4  A    between atoms: C_8  and  C_9
REMARK    5  A    between atoms: C_9  and  N_10
REMARK    6  A    between atoms: N_10  and  C_11
REMARK    7  A    between atoms: C_14  and  C_15
REMARK    8  A    between atoms: C_23  and  O_24
REMARK                            x       y       z     vdW  Elec       q    Type
REMARK                         _______ _______ _______ _____ _____    ______ ____
ROOT
ATOM      1  C   UNL     1      47.693   5.090  15.563  0.00  0.00    +0.000 A 
ATOM      2  C   UNL     1      48.274   6.228  14.985  0.00  0.00    +0.000 A 
ATOM      3  C   UNL     1      47.970   6.609  13.673  0.00  0.00    +0.000 A 
ATOM      4  C   UNL     1      47.086   5.852  12.901  0.00  0.00    +0.000 A 
ATOM      5  C   UNL     1      46.480   4.716  13.441  0.00  0.00    +0.000 A 
ATOM      6  C   UNL     1      46.777   4.379  14.774  0.00  0.00    +0.000 A 
ENDROOT
BRANCH   1   8
ATOM      7  C   UNL     1      47.431   3.207  17.153  0.00  0.00    +0.000 C 
ATOM      8  C   UNL     1      48.125   4.577  16.959  0.00  0.00    +0.000 C 
ATOM      9  C   UNL     1      49.668   4.433  17.028  0.00  0.00    +0.000 C 
ATOM     10  C   UNL     1      50.183   4.012  18.407  0.00  0.00    +0.000 C 
ATOM     11  C   UNL     1      49.697   4.939  19.517  0.00  0.00    +0.000 C 
ATOM     12  C   UNL     1      48.184   5.102  19.501  0.00  0.00    +0.000 C 
ATOM     13  C   UNL     1      47.685   5.524  18.122  0.00  0.00    +0.000 C 
BRANCH  11  14
ATOM     14  O   UNL     1      50.104   4.427  20.781  0.00  0.00    +0.000 OA
ATOM     15  H   UNL     1      51.005   4.072  20.688  0.00  0.00    +0.000 HD
ENDBRANCH  11  14
ENDBRANCH   1   8
BRANCH   5  16
ATOM     16  C   UNL     1      45.573   3.854  12.572  0.00  0.00    +0.000 C 
BRANCH  16  17
ATOM     17  C   UNL     1      44.517   4.665  11.809  0.00  0.00    +0.000 C 
BRANCH  17  18
ATOM     18  N   UNL     1      43.893   3.942  10.700  0.00  0.00    +0.000 N 
ATOM     19  H   UNL     1      43.109   4.456  10.301  0.00  0.00    +0.000 HD
BRANCH  18  20
ATOM     20  C   UNL     1      44.791   3.515   9.696  0.00  0.00    +0.000 A 
ATOM     21  C   UNL     1      45.061   2.166   9.429  0.00  0.00    +0.000 A 
ATOM     22  C   UNL     1      45.895   1.795   8.375  0.00  0.00    +0.000 A 
ATOM     23  C   UNL     1      46.424   2.795   7.578  0.00  0.00    +0.000 A 
ATOM     24  N   UNL     1      46.175   4.120   7.762  0.00  0.00    +0.000 NA
ATOM     25  C   UNL     1      45.356   4.433   8.801  0.00  0.00    +0.000 A 
BRANCH  23  26
ATOM     26  C   UNL     1      47.295   2.420   6.419  0.00  0.00    +0.000 C 
ATOM     27  N   UNL     1      47.258   3.280   5.359  0.00  0.00    +0.000 N 
ATOM     28  O   UNL     1      47.993   1.412   6.410  0.00  0.00    +0.000 OA
ATOM     29  H   UNL     1      46.640   4.081   5.390  0.00  0.00    +0.000 HD
ATOM     30  H   UNL     1      47.785   3.065   4.525  0.00  0.00    +0.000 HD
ENDBRANCH  23  26
ENDBRANCH  18  20
ENDBRANCH  17  18
ENDBRANCH  16  17
ENDBRANCH   5  16
TORSDOF 7
ENDMDL
MODEL 5
REMARK VINA RESULT:    -7.610      1.686      2.816
REMARK INTER + INTRA:         -11.691
REMARK INTER:                 -10.776
REMARK INTRA:                  -0.915
REMARK UNBOUND:                -1.189
REMARK  Name = 
REMARK  8 active torsions:
REMARK  status: ('A' for Active; 'I' for Inactive)
REMARK    1  A    between atoms: C_1  and  C_2
REMARK    2  A    between atoms: C_2  and  C_3
REMARK    3  A    between atoms: C_7  and  C_8
REMARK    4  A    between atoms: C_8  and  C_9
REMARK    5  A    between atoms: C_9  and  N_10
REMARK    6  A    between atoms: N_10  and  C_11
REMARK    7  A    between atoms: C_14  and  C_15
REMARK    8  A    between atoms: C_23  and  O_24
REMARK                            x       y       z     vdW  Elec       q    Type
REMARK                         _______ _______ _______ _____ _____    ______ ____
ROOT
ATOM      1  C   UNL     1      47.638   8.358  12.269  0.00  0.00    +0.000 A 
ATOM      2  C   UNL     1      46.585   9.263  12.468  0.00  0.00    +0.000 A 
ATOM      3  C   UNL     1      45.253   8.833  12.474  0.00  0.00    +0.000 A 
ATOM      4  C   UNL     1      44.940   7.488  12.267  0.00  0.00    +0.000 A 
ATOM      5  C   UNL     1      45.959   6.553  12.073  0.00  0.00    +0.000 A 
ATOM      6  C   UNL     1      47.289   7.009  12.109  0.00  0.00    +0.000 A 
ENDROOT
BRANCH   1   8
ATOM      7  C   UNL     1      49.054  10.122  11.258  0.00  0.00    +0.000 C 
ATOM      8  C   UNL     1      49.102   8.837  12.120  0.00  0.00    +0.000 C 
ATOM      9  C   UNL     1      49.721   9.125  13.513  0.00  0.00    +0.000 C 
ATOM     10  C   UNL     1      51.199   9.522  13.457  0.00  0.00    +0.000 C 
ATOM     11  C   UNL     1      52.049   8.496  12.712  0.00  0.00    +0.000 C 
ATOM     12  C   UNL     1      51.490   8.190  11.330  0.00  0.00    +0.000 C 
ATOM     13  C   UNL     1      50.018   7.794  11.401  0.00  0.00    +0.000 C 
BRANCH  11  14
ATOM     14  O   UNL     1      53.381   8.980  12.587  0.00  0.00    +0.000 OA
ATOM     15  H   UNL     1      53.415   9.580  11.822  0.00  0.00    +0.000 HD
ENDBRANCH  11  14
ENDBRANCH   1   8
BRANCH   5  16
ATOM     16  C   UNL     1      45.609   5.100  11.777  0.00  0.00    +0.000 C 
BRANCH  16  17
ATOM     17  C   UNL     1      44.140   4.898  11.383  0.00  0.00    +0.000 C 
BRANCH  17  18
ATOM     18  N   UNL     1      43.899   4.925   9.940  0.00  0.00    +0.000 N 
ATOM     19  H   UNL     1      43.983   5.864   9.554  0.00  0.00    +0.000 HD
BRANCH  18  20
ATOM     20  C   UNL     1      44.664   3.996   9.198  0.00  0.00    +0.000 A 
ATOM     21  C   UNL     1      45.658   4.375   8.285  0.00  0.00    +0.000 A 
ATOM     22  C   UNL     1      46.440   3.421   7.636  0.00  0.00    +0.000 A 
ATOM     23  C   UNL     1      46.230   2.088   7.942  0.00  0.00    +0.000 A 
ATOM     24  N   UNL     1      45.305   1.655   8.843  0.00  0.00    +0.000 NA
ATOM     25  C   UNL     1      44.569   2.622   9.450  0.00  0.00    +0.000 A 
BRANCH  23  26
ATOM     26  C   UNL     1      47.079   1.045   7.285  0.00  0.00    +0.000 C 
ATOM     27  N   UNL     1      46.828  -0.242   7.670  0.00  0.00    +0.000 N 
ATOM     28  O   UNL     1      47.946   1.315   6.460  0.00  0.00    +0.000 OA
ATOM     29  H   UNL     1      46.131  -0.420   8.381  0.00  0.00    +0.000 HD
ATOM     30  H   UNL     1      47.395  -0.991   7.301  0.00  0.00    +0.000 HD
ENDBRANCH  23  26
ENDBRANCH  18  20
ENDBRANCH  17  18
ENDBRANCH  16  17
ENDBRANCH   5  16
TORSDOF 7
ENDMDL
MODEL 6
REMARK VINA RESULT:    -7.413      4.411      7.703
REMARK INTER + INTRA:         -11.419
REMARK INTER:                  -9.780
REMARK INTRA:                  -1.639
REMARK UNBOUND:                -1.189
REMARK  Name = 
REMARK  8 active torsions:
REMARK  status: ('A' for Active; 'I' for Inactive)
REMARK    1  A    between atoms: C_1  and  C_2
REMARK    2  A    between atoms: C_2  and  C_3
REMARK    3  A    between atoms: C_7  and  C_8
REMARK    4  A    between atoms: C_8  and  C_9
REMARK    5  A    between atoms: C_9  and  N_10
REMARK    6  A    between atoms: N_10  and  C_11
REMARK    7  A    between atoms: C_14  and  C_15
REMARK    8  A    between atoms: C_23  and  O_24
REMARK                            x       y       z     vdW  Elec       q    Type
REMARK                         _______ _______ _______ _____ _____    ______ ____
ROOT
ATOM      1  C   UNL     1      45.896   7.054  11.663  0.00  0.00    +0.000 A 
ATOM      2  C   UNL     1      45.126   8.170  12.024  0.00  0.00    +0.000 A 
ATOM      3  C   UNL     1      45.730   9.362  12.439  0.00  0.00    +0.000 A 
ATOM      4  C   UNL     1      47.121   9.464  12.518  0.00  0.00    +0.000 A 
ATOM      5  C   UNL     1      47.924   8.379  12.161  0.00  0.00    +0.000 A 
ATOM      6  C   UNL     1      47.290   7.207  11.711  0.00  0.00    +0.000 A 
ENDROOT
BRANCH   1   8
ATOM      7  C   UNL     1      45.664   5.342   9.887  0.00  0.00    +0.000 C 
ATOM      8  C   UNL     1      45.244   5.689  11.337  0.00  0.00    +0.000 C 
ATOM      9  C   UNL     1      45.735   4.604  12.332  0.00  0.00    +0.000 C 
ATOM     10  C   UNL     1      45.069   3.241  12.129  0.00  0.00    +0.000 C 
ATOM     11  C   UNL     1      43.545   3.327  12.163  0.00  0.00    +0.000 C 
ATOM     12  C   UNL     1      43.013   4.369  11.191  0.00  0.00    +0.000 C 
ATOM     13  C   UNL     1      43.683   5.723  11.405  0.00  0.00    +0.000 C 
BRANCH  11  14
ATOM     14  O   UNL     1      42.987   2.057  11.847  0.00  0.00    +0.000 OA
ATOM     15  H   UNL     1      43.133   1.464  12.605  0.00  0.00    +0.000 HD
ENDBRANCH  11  14
ENDBRANCH   1   8
BRANCH   5  16
ATOM     16  C   UNL     1      49.437   8.472  12.316  0.00  0.00    +0.000 C 
BRANCH  16  17
ATOM     17  C   UNL     1      49.986   7.577  13.435  0.00  0.00    +0.000 C 
BRANCH  17  18
ATOM     18  N   UNL     1      49.503   7.925  14.771  0.00  0.00    +0.000 N 
ATOM     19  H   UNL     1      48.881   8.732  14.756  0.00  0.00    +0.000 HD
BRANCH  18  20
ATOM     20  C   UNL     1      48.931   6.850  15.489  0.00  0.00    +0.000 A 
ATOM     21  C   UNL     1      48.032   5.938  14.920  0.00  0.00    +0.000 A 
ATOM     22  C   UNL     1      47.556   4.849  15.647  0.00  0.00    +0.000 A 
ATOM     23  C   UNL     1      48.021   4.673  16.939  0.00  0.00    +0.000 A 
ATOM     24  N   UNL     1      48.920   5.502  17.539  0.00  0.00    +0.000 NA
ATOM     25  C   UNL     1      49.355   6.549  16.790  0.00  0.00    +0.000 A 
BRANCH  23  26
ATOM     26  C   UNL     1      47.552   3.491  17.729  0.00  0.00    +0.000 C 
ATOM     27  N   UNL     1      48.322   3.168  18.810  0.00  0.00    +0.000 N 
ATOM     28  O   UNL     1      46.550   2.848  17.434  0.00  0.00    +0.000 OA
ATOM     29  H   UNL     1      49.162   3.700  18.998  0.00  0.00    +0.000 HD
ATOM     30  H   UNL     1      48.090   2.354  19.361  0.00  0.00    +0.000 HD
ENDBRANCH  23  26
ENDBRANCH  18  20
ENDBRANCH  17  18
ENDBRANCH  16  17
ENDBRANCH   5  16
TORSDOF 7
ENDMDL
MODEL 7
REMARK VINA RESULT:    -7.410      1.530      2.164
REMARK INTER + INTRA:         -11.414
REMARK INTER:                 -10.339
REMARK INTRA:                  -1.075
REMARK UNBOUND:                -1.189
REMARK  Name = 
REMARK  8 active torsions:
REMARK  status: ('A' for Active; 'I' for Inactive)
REMARK    1  A    between atoms: C_1  and  C_2
REMARK    2  A    between atoms: C_2  and  C_3
REMARK    3  A    between atoms: C_7  and  C_8
REMARK    4  A    between atoms: C_8  and  C_9
REMARK    5  A    between atoms: C_9  and  N_10
REMARK    6  A    between atoms: N_10  and  C_11
REMARK    7  A    between atoms: C_14  and  C_15
REMARK    8  A    between atoms: C_23  and  O_24
REMARK                            x       y       z     vdW  Elec       q    Type
REMARK                         _______ _______ _______ _____ _____    ______ ____
ROOT
ATOM      1  C   UNL     1      46.466   7.287  12.633  0.00  0.00    +0.000 A 
ATOM      2  C   UNL     1      45.709   8.100  11.777  0.00  0.00    +0.000 A 
ATOM      3  C   UNL     1      44.441   7.703  11.337  0.00  0.00    +0.000 A 
ATOM      4  C   UNL     1      43.905   6.475  11.730  0.00  0.00    +0.000 A 
ATOM      5  C   UNL     1      44.623   5.639  12.588  0.00  0.00    +0.000 A 
ATOM      6  C   UNL     1      45.879   6.081  13.043  0.00  0.00    +0.000 A 
ENDROOT
BRANCH   1   8
ATOM      7  C   UNL     1      48.366   6.602  14.070  0.00  0.00    +0.000 C 
ATOM      8  C   UNL     1      47.923   7.646  13.016  0.00  0.00    +0.000 C 
ATOM      9  C   UNL     1      48.838   7.595  11.764  0.00  0.00    +0.000 C 
ATOM     10  C   UNL     1      50.282   8.022  12.043  0.00  0.00    +0.000 C 
ATOM     11  C   UNL     1      50.365   9.401  12.693  0.00  0.00    +0.000 C 
ATOM     12  C   UNL     1      49.493   9.498  13.937  0.00  0.00    +0.000 C 
ATOM     13  C   UNL     1      48.058   9.071  13.644  0.00  0.00    +0.000 C 
BRANCH  11  14
ATOM     14  O   UNL     1      51.715   9.686  13.039  0.00  0.00    +0.000 OA
ATOM     15  H   UNL     1      51.742   9.930  13.981  0.00  0.00    +0.000 HD
ENDBRANCH  11  14
ENDBRANCH   1   8
BRANCH   5  16
ATOM     16  C   UNL     1      44.065   4.270  12.957  0.00  0.00    +0.000 C 
BRANCH  16  17
ATOM     17  C   UNL     1      44.441   3.173  11.953  0.00  0.00    +0.000 C 
BRANCH  17  18
ATOM     18  N   UNL     1      43.803   3.315  10.644  0.00  0.00    +0.000 N 
ATOM     19  H   UNL     1      43.283   4.187  10.563  0.00  0.00    +0.000 HD
BRANCH  18  20
ATOM     20  C   UNL     1      44.670   3.132   9.543  0.00  0.00    +0.000 A 
ATOM     21  C   UNL     1      45.232   4.195   8.823  0.00  0.00    +0.000 A 
ATOM     22  C   UNL     1      46.144   3.965   7.794  0.00  0.00    +0.000 A 
ATOM     23  C   UNL     1      46.507   2.657   7.525  0.00  0.00    +0.000 A 
ATOM     24  N   UNL     1      46.025   1.582   8.208  0.00  0.00    +0.000 NA
ATOM     25  C   UNL     1      45.139   1.858   9.201  0.00  0.00    +0.000 A 
BRANCH  23  26
ATOM     26  C   UNL     1      47.511   2.385   6.448  0.00  0.00    +0.000 C 
ATOM     27  N   UNL     1      47.440   3.210   5.362  0.00  0.00    +0.000 N 
ATOM     28  O   UNL     1      48.340   1.484   6.523  0.00  0.00    +0.000 OA
ATOM     29  H   UNL     1      46.717   3.917   5.321  0.00  0.00    +0.000 HD
ATOM     30  H   UNL     1      48.057   3.054   4.578  0.00  0.00    +0.000 HD
ENDBRANCH  23  26
ENDBRANCH  18  20
ENDBRANCH  17  18
ENDBRANCH  16  17
ENDBRANCH   5  16
TORSDOF 7
ENDMDL
MODEL 8
REMARK VINA RESULT:    -6.568      4.260      8.372
REMARK INTER + INTRA:         -10.253
REMARK INTER:                  -8.671
REMARK INTRA:                  -1.582
REMARK UNBOUND:                -1.189
REMARK  Name = 
REMARK  8 active torsions:
REMARK  status: ('A' for Active; 'I' for Inactive)
REMARK    1  A    between atoms: C_1  and  C_2
REMARK    2  A    between atoms: C_2  and  C_3
REMARK    3  A    between atoms: C_7  and  C_8
REMARK    4  A    between atoms: C_8  and  C_9
REMARK    5  A    between atoms: C_9  and  N_10
REMARK    6  A    between atoms: N_10  and  C_11
REMARK    7  A    between atoms: C_14  and  C_15
REMARK    8  A    between atoms: C_23  and  O_24
REMARK                            x       y       z     vdW  Elec       q    Type
REMARK                         _______ _______ _______ _____ _____    ______ ____
ROOT
ATOM      1  C   UNL     1      46.105   6.830  12.202  0.00  0.00    +0.000 A 
ATOM      2  C   UNL     1      45.356   7.954  12.580  0.00  0.00    +0.000 A 
ATOM      3  C   UNL     1      45.930   9.230  12.607  0.00  0.00    +0.000 A 
ATOM      4  C   UNL     1      47.273   9.412  12.270  0.00  0.00    +0.000 A 
ATOM      5  C   UNL     1      48.052   8.320  11.881  0.00  0.00    +0.000 A 
ATOM      6  C   UNL     1      47.438   7.056  11.828  0.00  0.00    +0.000 A 
ENDROOT
BRANCH   1   8
ATOM      7  C   UNL     1      46.478   4.608  13.233  0.00  0.00    +0.000 C 
ATOM      8  C   UNL     1      45.526   5.398  12.302  0.00  0.00    +0.000 C 
ATOM      9  C   UNL     1      44.087   5.436  12.883  0.00  0.00    +0.000 C 
ATOM     10  C   UNL     1      43.411   4.063  12.933  0.00  0.00    +0.000 C 
ATOM     11  C   UNL     1      43.406   3.366  11.575  0.00  0.00    +0.000 C 
ATOM     12  C   UNL     1      44.801   3.291  10.970  0.00  0.00    +0.000 C 
ATOM     13  C   UNL     1      45.462   4.665  10.923  0.00  0.00    +0.000 C 
BRANCH  11  14
ATOM     14  O   UNL     1      42.879   2.052  11.713  0.00  0.00    +0.000 OA
ATOM     15  H   UNL     1      42.592   1.747  10.835  0.00  0.00    +0.000 HD
ENDBRANCH  11  14
ENDBRANCH   1   8
BRANCH   5  16
ATOM     16  C   UNL     1      49.534   8.513  11.583  0.00  0.00    +0.000 C 
BRANCH  16  17
ATOM     17  C   UNL     1      50.355   8.896  12.821  0.00  0.00    +0.000 C 
BRANCH  17  18
ATOM     18  N   UNL     1      50.804   7.754  13.618  0.00  0.00    +0.000 N 
ATOM     19  H   UNL     1      51.811   7.769  13.775  0.00  0.00    +0.000 HD
BRANCH  18  20
ATOM     20  C   UNL     1      50.100   7.569  14.830  0.00  0.00    +0.000 A 
ATOM     21  C   UNL     1      49.110   6.592  15.002  0.00  0.00    +0.000 A 
ATOM     22  C   UNL     1      48.500   6.396  16.239  0.00  0.00    +0.000 A 
ATOM     23  C   UNL     1      48.921   7.173  17.304  0.00  0.00    +0.000 A 
ATOM     24  N   UNL     1      49.899   8.115  17.213  0.00  0.00    +0.000 NA
ATOM     25  C   UNL     1      50.465   8.268  15.987  0.00  0.00    +0.000 A 
BRANCH  23  26
ATOM     26  C   UNL     1      48.305   6.959  18.652  0.00  0.00    +0.000 C 
ATOM     27  N   UNL     1      47.067   6.382  18.644  0.00  0.00    +0.000 N 
ATOM     28  O   UNL     1      48.862   7.279  19.697  0.00  0.00    +0.000 OA
ATOM     29  H   UNL     1      46.625   6.168  17.759  0.00  0.00    +0.000 HD
ATOM     30  H   UNL     1      46.573   6.251  19.514  0.00  0.00    +0.000 HD
ENDBRANCH  23  26
ENDBRANCH  18  20
ENDBRANCH  17  18
ENDBRANCH  16  17
ENDBRANCH   5  16
TORSDOF 7
ENDMDL
MODEL 9
REMARK VINA RESULT:    -6.452      4.248      6.565
REMARK INTER + INTRA:         -10.092
REMARK INTER:                  -9.040
REMARK INTRA:                  -1.052
REMARK UNBOUND:                -1.189
REMARK  Name = 
REMARK  8 active torsions:
REMARK  status: ('A' for Active; 'I' for Inactive)
REMARK    1  A    between atoms: C_1  and  C_2
REMARK    2  A    between atoms: C_2  and  C_3
REMARK    3  A    between atoms: C_7  and  C_8
REMARK    4  A    between atoms: C_8  and  C_9
REMARK    5  A    between atoms: C_9  and  N_10
REMARK    6  A    between atoms: N_10  and  C_11
REMARK    7  A    between atoms: C_14  and  C_15
REMARK    8  A    between atoms: C_23  and  O_24
REMARK                            x       y       z     vdW  Elec       q    Type
REMARK                         _______ _______ _______ _____ _____    ______ ____
ROOT
ATOM      1  C   UNL     1      48.929   6.434  17.369  0.00  0.00    +0.000 A 
ATOM      2  C   UNL     1      48.498   7.405  18.285  0.00  0.00    +0.000 A 
ATOM      3  C   UNL     1      48.143   8.691  17.862  0.00  0.00    +0.000 A 
ATOM      4  C   UNL     1      48.224   9.043  16.513  0.00  0.00    +0.000 A 
ATOM      5  C   UNL     1      48.642   8.104  15.568  0.00  0.00    +0.000 A 
ATOM      6  C   UNL     1      48.957   6.808  16.018  0.00  0.00    +0.000 A 
ENDROOT
BRANCH   1   8
ATOM      7  C   UNL     1      49.319   5.037  19.379  0.00  0.00    +0.000 C 
ATOM      8  C   UNL     1      49.457   5.056  17.837  0.00  0.00    +0.000 C 
ATOM      9  C   UNL     1      48.630   3.913  17.191  0.00  0.00    +0.000 C 
ATOM     10  C   UNL     1      49.145   2.513  17.536  0.00  0.00    +0.000 C 
ATOM     11  C   UNL     1      50.625   2.339  17.201  0.00  0.00    +0.000 C 
ATOM     12  C   UNL     1      51.482   3.430  17.826  0.00  0.00    +0.000 C 
ATOM     13  C   UNL     1      50.959   4.819  17.472  0.00  0.00    +0.000 C 
BRANCH  11  14
ATOM     14  O   UNL     1      51.071   1.067  17.657  0.00  0.00    +0.000 OA
ATOM     15  H   UNL     1      50.489   0.784  18.383  0.00  0.00    +0.000 HD
ENDBRANCH  11  14
ENDBRANCH   1   8
BRANCH   5  16
ATOM     16  C   UNL     1      48.797   8.512  14.108  0.00  0.00    +0.000 C 
BRANCH  16  17
ATOM     17  C   UNL     1      48.084   7.564  13.135  0.00  0.00    +0.000 C 
BRANCH  17  18
ATOM     18  N   UNL     1      46.653   7.403  13.396  0.00  0.00    +0.000 N 
ATOM     19  H   UNL     1      46.122   8.237  13.149  0.00  0.00    +0.000 HD
BRANCH  18  20
ATOM     20  C   UNL     1      46.079   6.243  12.829  0.00  0.00    +0.000 A 
ATOM     21  C   UNL     1      46.304   4.952  13.326  0.00  0.00    +0.000 A 
ATOM     22  C   UNL     1      45.652   3.848  12.780  0.00  0.00    +0.000 A 
ATOM     23  C   UNL     1      44.749   4.064  11.754  0.00  0.00    +0.000 A 
ATOM     24  N   UNL     1      44.459   5.295  11.249  0.00  0.00    +0.000 NA
ATOM     25  C   UNL     1      45.119   6.340  11.813  0.00  0.00    +0.000 A 
BRANCH  23  26
ATOM     26  C   UNL     1      44.009   2.899  11.174  0.00  0.00    +0.000 C 
ATOM     27  N   UNL     1      44.582   2.336  10.069  0.00  0.00    +0.000 N 
ATOM     28  O   UNL     1      42.960   2.473  11.647  0.00  0.00    +0.000 OA
ATOM     29  H   UNL     1      45.427   2.739   9.687  0.00  0.00    +0.000 HD
ATOM     30  H   UNL     1      44.113   1.575   9.599  0.00  0.00    +0.000 HD
ENDBRANCH  23  26
ENDBRANCH  18  20
ENDBRANCH  17  18
ENDBRANCH  16  17
ENDBRANCH   5  16
TORSDOF 7
ENDMDL
