MODEL 1
REMARK VINA RESULT:    -7.143      0.000      0.000
REMARK INTER + INTRA:         -10.321
REMARK INTER:                  -9.231
REMARK INTRA:                  -1.089
REMARK UNBOUND:                -1.089
REMARK  Name = 
REMARK  6 active torsions:
REMARK  status: ('A' for Active; 'I' for Inactive)
REMARK    1  A    between atoms: C_1  and  C_2
REMARK    2  A    between atoms: C_5  and  C_6
REMARK    3  A    between atoms: C_6  and  C_7
REMARK    4  A    between atoms: C_10  and  C_11
REMARK    5  A    between atoms: C_11  and  N_12
REMARK    6  A    between atoms: C_13  and  C_15
REMARK                            x       y       z     vdW  Elec       q    Type
REMARK                         _______ _______ _______ _____ _____    ______ ____
ROOT
ATOM      1  C   UNL     1      49.144   6.295  17.397  0.00  0.00    +0.000 C 
ENDROOT
BRANCH   1   5
ATOM      2  C   UNL     1      46.902   4.645  14.079  0.00  0.00    +0.000 A 
ATOM      3  C   UNL     1      47.562   5.874  13.958  0.00  0.00    +0.000 A 
ATOM      4  C   UNL     1      48.282   6.411  15.028  0.00  0.00    +0.000 A 
ATOM      5  C   UNL     1      48.348   5.730  16.249  0.00  0.00    +0.000 A 
ATOM      6  C   UNL     1      47.636   4.533  16.392  0.00  0.00    +0.000 A 
ATOM      7  C   UNL     1      46.930   3.988  15.314  0.00  0.00    +0.000 A 
BRANCH   2   8
ATOM      8  C   UNL     1      46.170   4.049  12.898  0.00  0.00    +0.000 C 
BRANCH   8  13
ATOM      9  C   UNL     1      44.593   3.834   8.407  0.00  0.00    +0.000 C 
ATOM     10  C   UNL     1      44.143   4.305   9.791  0.00  0.00    +0.000 C 
ATOM     11  C   UNL     1      44.043   3.106  10.746  0.00  0.00    +0.000 C 
ATOM     12  C   UNL     1      43.725   3.557  12.169  0.00  0.00    +0.000 C 
ATOM     13  C   UNL     1      44.740   4.600  12.664  0.00  0.00    +0.000 C 
ATOM     14  C   UNL     1      44.763   5.757  11.644  0.00  0.00    +0.000 C 
ATOM     15  N   UNL     1      45.083   5.323  10.280  0.00  0.00    +0.000 NA
ATOM     16  H   UNL     1      46.033   4.956  10.249  0.00  0.00    +0.000 HD
ENDBRANCH   8  13
ENDBRANCH   2   8
ENDBRANCH   1   5
BRANCH   1  17
ATOM     17  N   UNL     1      50.158   5.371  17.837  0.00  0.00    +0.000 N 
ATOM     18  C   UNL     1      51.412   5.381  17.289  0.00  0.00    +0.000 C 
ATOM     19  O   UNL     1      51.752   6.213  16.452  0.00  0.00    +0.000 OA
ATOM     20  H   UNL     1      49.842   4.559  18.358  0.00  0.00    +0.000 HD
BRANCH  18  21
ATOM     21  C   UNL     1      52.364   4.391  17.809  0.00  0.00    +0.000 A 
ATOM     22  C   UNL     1      53.545   4.817  18.402  0.00  0.00    +0.000 A 
ATOM     23  S   UNL     1      54.511   3.543  18.994  0.00  0.00    +0.000 S 
ATOM     24  C   UNL     1      53.408   2.375  18.436  0.00  0.00    +0.000 A 
ATOM     25  N   UNL     1      53.651   1.047  18.607  0.00  0.00    +0.000 NA
ATOM     26  C   UNL     1      52.748   0.271  18.109  0.00  0.00    +0.000 A 
ATOM     27  N   UNL     1      51.619   0.701  17.462  0.00  0.00    +0.000 N 
ATOM     28  C   UNL     1      51.318   2.031  17.289  0.00  0.00    +0.000 A 
ATOM     29  O   UNL     1      50.282   2.382  16.735  0.00  0.00    +0.000 OA
ATOM     30  C   UNL     1      52.310   2.948  17.822  0.00  0.00    +0.000 A 
ATOM     31  H   UNL     1      50.945   0.043  17.101  0.00  0.00    +0.000 HD
ENDBRANCH  18  21
ENDBRANCH   1  17
TORSDOF 5
ENDMDL
MODEL 2
REMARK VINA RESULT:    -6.989      3.436      9.709
REMARK INTER + INTRA:         -10.121
REMARK INTER:                  -9.056
REMARK INTRA:                  -1.065
REMARK UNBOUND:                -1.089
REMARK  Name = 
REMARK  6 active torsions:
REMARK  status: ('A' for Active; 'I' for Inactive)
REMARK    1  A    between atoms: C_1  and  C_2
REMARK    2  A    between atoms: C_5  and  C_6
REMARK    3  A    between atoms: C_6  and  C_7
REMARK    4  A    between atoms: C_10  and  C_11
REMARK    5  A    between atoms: C_11  and  N_12
REMARK    6  A    between atoms: C_13  and  C_15
REMARK                            x       y       z     vdW  Elec       q    Type
REMARK                         _______ _______ _______ _____ _____    ______ ____
ROOT
ATOM      1  C   UNL     1      47.266   3.409  16.759  0.00  0.00    +0.000 C 
ENDROOT
BRANCH   1   5
ATOM      2  C   UNL     1      51.477   3.953  17.615  0.00  0.00    +0.000 A 
ATOM      3  C   UNL     1      50.633   5.057  17.434  0.00  0.00    +0.000 A 
ATOM      4  C   UNL     1      49.275   4.884  17.153  0.00  0.00    +0.000 A 
ATOM      5  C   UNL     1      48.734   3.599  17.038  0.00  0.00    +0.000 A 
ATOM      6  C   UNL     1      49.589   2.495  17.155  0.00  0.00    +0.000 A 
ATOM      7  C   UNL     1      50.945   2.669  17.454  0.00  0.00    +0.000 A 
BRANCH   2   8
ATOM      8  C   UNL     1      52.932   4.153  17.971  0.00  0.00    +0.000 C 
BRANCH   8  13
ATOM      9  C   UNL     1      54.307   7.700  20.840  0.00  0.00    +0.000 C 
ATOM     10  C   UNL     1      54.115   6.183  20.854  0.00  0.00    +0.000 C 
ATOM     11  C   UNL     1      52.633   5.839  20.639  0.00  0.00    +0.000 C 
ATOM     12  C   UNL     1      52.427   4.332  20.514  0.00  0.00    +0.000 C 
ATOM     13  C   UNL     1      53.319   3.735  19.413  0.00  0.00    +0.000 C 
ATOM     14  C   UNL     1      54.778   4.132  19.722  0.00  0.00    +0.000 C 
ATOM     15  N   UNL     1      54.976   5.581  19.826  0.00  0.00    +0.000 NA
ATOM     16  H   UNL     1      54.792   6.020  18.925  0.00  0.00    +0.000 HD
ENDBRANCH   8  13
ENDBRANCH   2   8
ENDBRANCH   1   5
BRANCH   1  17
ATOM     17  N   UNL     1      46.779   4.385  15.818  0.00  0.00    +0.000 N 
ATOM     18  C   UNL     1      46.790   4.137  14.472  0.00  0.00    +0.000 C 
ATOM     19  O   UNL     1      47.148   3.058  14.009  0.00  0.00    +0.000 OA
ATOM     20  H   UNL     1      46.685   5.338  16.155  0.00  0.00    +0.000 HD
BRANCH  18  21
ATOM     21  C   UNL     1      46.277   5.206  13.604  0.00  0.00    +0.000 A 
ATOM     22  C   UNL     1      47.052   6.335  13.374  0.00  0.00    +0.000 A 
ATOM     23  S   UNL     1      46.330   7.452  12.307  0.00  0.00    +0.000 S 
ATOM     24  C   UNL     1      44.937   6.489  12.152  0.00  0.00    +0.000 A 
ATOM     25  N   UNL     1      43.893   6.889  11.378  0.00  0.00    +0.000 NA
ATOM     26  C   UNL     1      42.889   6.078  11.374  0.00  0.00    +0.000 A 
ATOM     27  N   UNL     1      42.837   4.897  12.069  0.00  0.00    +0.000 N 
ATOM     28  C   UNL     1      43.876   4.440  12.843  0.00  0.00    +0.000 A 
ATOM     29  O   UNL     1      43.810   3.363  13.426  0.00  0.00    +0.000 OA
ATOM     30  C   UNL     1      45.027   5.323  12.891  0.00  0.00    +0.000 A 
ATOM     31  H   UNL     1      42.024   4.302  12.020  0.00  0.00    +0.000 HD
ENDBRANCH  18  21
ENDBRANCH   1  17
TORSDOF 5
ENDMDL
MODEL 3
REMARK VINA RESULT:    -6.772      1.662      2.216
REMARK INTER + INTRA:          -9.840
REMARK INTER:                  -8.860
REMARK INTRA:                  -0.980
REMARK UNBOUND:                -1.089
REMARK  Name = 
REMARK  6 active torsions:
REMARK  status: ('A' for Active; 'I' for Inactive)
REMARK    1  A    between atoms: C_1  and  C_2
REMARK    2  A    between atoms: C_5  and  C_6
REMARK    3  A    between atoms: C_6  and  C_7
REMARK    4  A    between atoms: C_10  and  C_11
REMARK    5  A    between atoms: C_11  and  N_12
REMARK    6  A    between atoms: C_13  and  C_15
REMARK                            x       y       z     vdW  Elec       q    Type
REMARK                         _______ _______ _______ _____ _____    ______ ____
ROOT
ATOM      1  C   UNL     1      49.160   8.177  15.790  0.00  0.00    +0.000 C 
ENDROOT
BRANCH   1   5
ATOM      2  C   UNL     1      46.661   6.795  12.534  0.00  0.00    +0.000 A 
ATOM      3  C   UNL     1      47.613   5.948  13.117  0.00  0.00    +0.000 A 
ATOM      4  C   UNL     1      48.424   6.393  14.164  0.00  0.00    +0.000 A 
ATOM      5  C   UNL     1      48.305   7.702  14.645  0.00  0.00    +0.000 A 
ATOM      6  C   UNL     1      47.399   8.568  14.021  0.00  0.00    +0.000 A 
ATOM      7  C   UNL     1      46.575   8.117  12.984  0.00  0.00    +0.000 A 
BRANCH   2   8
ATOM      8  C   UNL     1      45.753   6.286  11.438  0.00  0.00    +0.000 C 
BRANCH   8  13
ATOM      9  C   UNL     1      44.594   2.270   9.152  0.00  0.00    +0.000 C 
ATOM     10  C   UNL     1      44.084   3.174  10.274  0.00  0.00    +0.000 C 
ATOM     11  C   UNL     1      45.088   3.187  11.436  0.00  0.00    +0.000 C 
ATOM     12  C   UNL     1      44.673   4.182  12.515  0.00  0.00    +0.000 C 
ATOM     13  C   UNL     1      44.459   5.587  11.928  0.00  0.00    +0.000 C 
ATOM     14  C   UNL     1      43.437   5.466  10.778  0.00  0.00    +0.000 C 
ATOM     15  N   UNL     1      43.845   4.520   9.735  0.00  0.00    +0.000 NA
ATOM     16  H   UNL     1      44.689   4.858   9.273  0.00  0.00    +0.000 HD
ENDBRANCH   8  13
ENDBRANCH   2   8
ENDBRANCH   1   5
BRANCH   1  17
ATOM     17  N   UNL     1      50.110   7.169  16.190  0.00  0.00    +0.000 N 
ATOM     18  C   UNL     1      49.910   6.414  17.313  0.00  0.00    +0.000 C 
ATOM     19  O   UNL     1      48.891   6.509  17.991  0.00  0.00    +0.000 OA
ATOM     20  H   UNL     1      51.035   7.224  15.776  0.00  0.00    +0.000 HD
BRANCH  18  21
ATOM     21  C   UNL     1      50.947   5.422  17.629  0.00  0.00    +0.000 A 
ATOM     22  C   UNL     1      52.169   5.842  18.136  0.00  0.00    +0.000 A 
ATOM     23  S   UNL     1      53.237   4.562  18.494  0.00  0.00    +0.000 S 
ATOM     24  C   UNL     1      52.122   3.404  17.940  0.00  0.00    +0.000 A 
ATOM     25  N   UNL     1      52.428   2.079  17.951  0.00  0.00    +0.000 NA
ATOM     26  C   UNL     1      51.503   1.313  17.475  0.00  0.00    +0.000 A 
ATOM     27  N   UNL     1      50.296   1.752  16.995  0.00  0.00    +0.000 N 
ATOM     28  C   UNL     1      49.933   3.078  16.989  0.00  0.00    +0.000 A 
ATOM     29  O   UNL     1      48.832   3.434  16.584  0.00  0.00    +0.000 OA
ATOM     30  C   UNL     1      50.944   3.983  17.504  0.00  0.00    +0.000 A 
ATOM     31  H   UNL     1      49.611   1.102  16.642  0.00  0.00    +0.000 HD
ENDBRANCH  18  21
ENDBRANCH   1  17
TORSDOF 5
ENDMDL
MODEL 4
REMARK VINA RESULT:    -6.763      3.182      9.709
REMARK INTER + INTRA:          -9.830
REMARK INTER:                  -9.014
REMARK INTRA:                  -0.815
REMARK UNBOUND:                -1.089
REMARK  Name = 
REMARK  6 active torsions:
REMARK  status: ('A' for Active; 'I' for Inactive)
REMARK    1  A    between atoms: C_1  and  C_2
REMARK    2  A    between atoms: C_5  and  C_6
REMARK    3  A    between atoms: C_6  and  C_7
REMARK    4  A    between atoms: C_10  and  C_11
REMARK    5  A    between atoms: C_11  and  N_12
REMARK    6  A    between atoms: C_13  and  C_15
REMARK                            x       y       z     vdW  Elec       q    Type
REMARK                         _______ _______ _______ _____ _____    ______ ____
ROOT
ATOM      1  C   UNL     1      48.408   5.498  16.698  0.00  0.00    +0.000 C 
ENDROOT
BRANCH   1   5
ATOM      2  C   UNL     1      51.201   2.292  17.523  0.00  0.00    +0.000 A 
ATOM      3  C   UNL     1      49.886   2.014  17.128  0.00  0.00    +0.000 A 
ATOM      4  C   UNL     1      48.982   3.046  16.866  0.00  0.00    +0.000 A 
ATOM      5  C   UNL     1      49.373   4.383  17.004  0.00  0.00    +0.000 A 
ATOM      6  C   UNL     1      50.667   4.661  17.461  0.00  0.00    +0.000 A 
ATOM      7  C   UNL     1      51.578   3.628  17.706  0.00  0.00    +0.000 A 
BRANCH   2   8
ATOM      8  C   UNL     1      52.186   1.169  17.753  0.00  0.00    +0.000 C 
BRANCH   8  13
ATOM      9  C   UNL     1      55.352  -1.949  19.472  0.00  0.00    +0.000 C 
ATOM     10  C   UNL     1      55.300  -0.602  18.750  0.00  0.00    +0.000 C 
ATOM     11  C   UNL     1      54.661  -0.773  17.364  0.00  0.00    +0.000 C 
ATOM     12  C   UNL     1      54.472   0.574  16.672  0.00  0.00    +0.000 C 
ATOM     13  C   UNL     1      53.675   1.549  17.554  0.00  0.00    +0.000 C 
ATOM     14  C   UNL     1      54.398   1.653  18.913  0.00  0.00    +0.000 C 
ATOM     15  N   UNL     1      54.564   0.360  19.583  0.00  0.00    +0.000 NA
ATOM     16  H   UNL     1      53.651  -0.024  19.824  0.00  0.00    +0.000 HD
ENDBRANCH   8  13
ENDBRANCH   2   8
ENDBRANCH   1   5
BRANCH   1  17
ATOM     17  N   UNL     1      47.428   5.092  15.722  0.00  0.00    +0.000 N 
ATOM     18  C   UNL     1      47.543   5.459  14.409  0.00  0.00    +0.000 C 
ATOM     19  O   UNL     1      48.510   6.089  13.989  0.00  0.00    +0.000 OA
ATOM     20  H   UNL     1      46.536   4.765  16.079  0.00  0.00    +0.000 HD
BRANCH  18  21
ATOM     21  C   UNL     1      46.483   4.996  13.503  0.00  0.00    +0.000 A 
ATOM     22  C   UNL     1      46.347   3.639  13.242  0.00  0.00    +0.000 A 
ATOM     23  S   UNL     1      45.040   3.270  12.212  0.00  0.00    +0.000 S 
ATOM     24  C   UNL     1      44.639   4.914  12.041  0.00  0.00    +0.000 A 
ATOM     25  N   UNL     1      43.600   5.301  11.252  0.00  0.00    +0.000 NA
ATOM     26  C   UNL     1      43.426   6.578  11.188  0.00  0.00    +0.000 A 
ATOM     27  N   UNL     1      44.192   7.505  11.847  0.00  0.00    +0.000 N 
ATOM     28  C   UNL     1      45.233   7.160  12.674  0.00  0.00    +0.000 A 
ATOM     29  O   UNL     1      45.877   8.013  13.276  0.00  0.00    +0.000 OA
ATOM     30  C   UNL     1      45.479   5.733  12.772  0.00  0.00    +0.000 A 
ATOM     31  H   UNL     1      44.000   8.491  11.762  0.00  0.00    +0.000 HD
ENDBRANCH  18  21
ENDBRANCH   1  17
TORSDOF 5
ENDMDL
MODEL 5
REMARK VINA RESULT:    -6.540      6.518      9.585
REMARK INTER + INTRA:          -9.541
REMARK INTER:                  -8.494
REMARK INTRA:                  -1.047
REMARK UNBOUND:                -1.089
REMARK  Name = 
REMARK  6 active torsions:
REMARK  status: ('A' for Active; 'I' for Inactive)
REMARK    1  A    between atoms: C_1  and  C_2
REMARK    2  A    between atoms: C_5  and  C_6
REMARK    3  A    between atoms: C_6  and  C_7
REMARK    4  A    between atoms: C_10  and  C_11
REMARK    5  A    between atoms: C_11  and  N_12
REMARK    6  A    between atoms: C_13  and  C_15
REMARK                            x       y       z     vdW  Elec       q    Type
REMARK                         _______ _______ _______ _____ _____    ______ ____
ROOT
ATOM      1  C   UNL     1      46.719   8.334  12.062  0.00  0.00    +0.000 C 
ENDROOT
BRANCH   1   5
ATOM      2  C   UNL     1      51.003   8.601  11.483  0.00  0.00    +0.000 A 
ATOM      3  C   UNL     1      50.412   7.413  11.930  0.00  0.00    +0.000 A 
ATOM      4  C   UNL     1      49.031   7.325  12.122  0.00  0.00    +0.000 A 
ATOM      5  C   UNL     1      48.211   8.433  11.880  0.00  0.00    +0.000 A 
ATOM      6  C   UNL     1      48.807   9.640  11.495  0.00  0.00    +0.000 A 
ATOM      7  C   UNL     1      50.188   9.722  11.286  0.00  0.00    +0.000 A 
BRANCH   2   8
ATOM      8  C   UNL     1      52.491   8.668  11.228  0.00  0.00    +0.000 C 
BRANCH   8  13
ATOM      9  C   UNL     1      55.543   5.154  10.210  0.00  0.00    +0.000 C 
ATOM     10  C   UNL     1      54.791   6.295   9.524  0.00  0.00    +0.000 C 
ATOM     11  C   UNL     1      53.277   6.055   9.614  0.00  0.00    +0.000 C 
ATOM     12  C   UNL     1      52.495   7.241   9.057  0.00  0.00    +0.000 C 
ATOM     13  C   UNL     1      52.909   8.555   9.740  0.00  0.00    +0.000 C 
ATOM     14  C   UNL     1      54.437   8.703   9.590  0.00  0.00    +0.000 C 
ATOM     15  N   UNL     1      55.187   7.569  10.140  0.00  0.00    +0.000 NA
ATOM     16  H   UNL     1      55.047   7.520  11.149  0.00  0.00    +0.000 HD
ENDBRANCH   8  13
ENDBRANCH   2   8
ENDBRANCH   1   5
BRANCH   1  17
ATOM     17  N   UNL     1      46.253   6.985  11.864  0.00  0.00    +0.000 N 
ATOM     18  C   UNL     1      44.949   6.727  11.541  0.00  0.00    +0.000 C 
ATOM     19  O   UNL     1      44.135   7.625  11.341  0.00  0.00    +0.000 OA
ATOM     20  H   UNL     1      46.840   6.241  12.227  0.00  0.00    +0.000 HD
BRANCH  18  21
ATOM     21  C   UNL     1      44.582   5.315  11.370  0.00  0.00    +0.000 A 
ATOM     22  C   UNL     1      43.849   4.671  12.357  0.00  0.00    +0.000 A 
ATOM     23  S   UNL     1      43.468   3.053  11.978  0.00  0.00    +0.000 S 
ATOM     24  C   UNL     1      44.309   3.142  10.503  0.00  0.00    +0.000 A 
ATOM     25  N   UNL     1      44.391   2.063   9.679  0.00  0.00    +0.000 NA
ATOM     26  C   UNL     1      45.084   2.260   8.608  0.00  0.00    +0.000 A 
ATOM     27  N   UNL     1      45.697   3.442   8.281  0.00  0.00    +0.000 N 
ATOM     28  C   UNL     1      45.619   4.566   9.069  0.00  0.00    +0.000 A 
ATOM     29  O   UNL     1      46.150   5.618   8.730  0.00  0.00    +0.000 OA
ATOM     30  C   UNL     1      44.859   4.394  10.293  0.00  0.00    +0.000 A 
ATOM     31  H   UNL     1      46.220   3.536   7.424  0.00  0.00    +0.000 HD
ENDBRANCH  18  21
ENDBRANCH   1  17
TORSDOF 5
ENDMDL
MODEL 6
REMARK VINA RESULT:    -6.464      6.122      9.394
REMARK INTER + INTRA:          -9.442
REMARK INTER:                  -8.380
REMARK INTRA:                  -1.062
REMARK UNBOUND:                -1.089
REMARK  Name = 
REMARK  6 active torsions:
REMARK  status: ('A' for Active; 'I' for Inactive)
REMARK    1  A    between atoms: C_1  and  C_2
REMARK    2  A    between atoms: C_5  and  C_6
REMARK    3  A    between atoms: C_6  and  C_7
REMARK    4  A    between atoms: C_10  and  C_11
REMARK    5  A    between atoms: C_11  and  N_12
REMARK    6  A    between atoms: C_13  and  C_15
REMARK                            x       y       z     vdW  Elec       q    Type
REMARK                         _______ _______ _______ _____ _____    ______ ____
ROOT
ATOM      1  C   UNL     1      44.183   3.463  11.918  0.00  0.00    +0.000 C 
ENDROOT
BRANCH   1   5
ATOM      2  C   UNL     1      46.137   7.180  12.982  0.00  0.00    +0.000 A 
ATOM      3  C   UNL     1      45.116   7.154  12.023  0.00  0.00    +0.000 A 
ATOM      4  C   UNL     1      44.487   5.956  11.674  0.00  0.00    +0.000 A 
ATOM      5  C   UNL     1      44.875   4.753  12.274  0.00  0.00    +0.000 A 
ATOM      6  C   UNL     1      45.939   4.767  13.185  0.00  0.00    +0.000 A 
ATOM      7  C   UNL     1      46.556   5.970  13.546  0.00  0.00    +0.000 A 
BRANCH   2   8
ATOM      8  C   UNL     1      46.772   8.489  13.390  0.00  0.00    +0.000 C 
BRANCH   8  13
ATOM      9  C   UNL     1      51.453   8.454  14.281  0.00  0.00    +0.000 C 
ATOM     10  C   UNL     1      50.460   8.940  13.224  0.00  0.00    +0.000 C 
ATOM     11  C   UNL     1      49.746   7.740  12.584  0.00  0.00    +0.000 C 
ATOM     12  C   UNL     1      48.653   8.195  11.621  0.00  0.00    +0.000 C 
ATOM     13  C   UNL     1      47.665   9.151  12.308  0.00  0.00    +0.000 C 
ATOM     14  C   UNL     1      48.477  10.316  12.911  0.00  0.00    +0.000 C 
ATOM     15  N   UNL     1      49.516   9.876  13.848  0.00  0.00    +0.000 NA
ATOM     16  H   UNL     1      49.084   9.438  14.661  0.00  0.00    +0.000 HD
ENDBRANCH   8  13
ENDBRANCH   2   8
ENDBRANCH   1   5
BRANCH   1  17
ATOM     17  N   UNL     1      44.928   2.722  10.932  0.00  0.00    +0.000 N 
ATOM     18  C   UNL     1      44.697   2.894   9.594  0.00  0.00    +0.000 C 
ATOM     19  O   UNL     1      43.902   3.728   9.170  0.00  0.00    +0.000 OA
ATOM     20  H   UNL     1      45.421   1.896  11.257  0.00  0.00    +0.000 HD
BRANCH  18  21
ATOM     21  C   UNL     1      45.509   2.081   8.678  0.00  0.00    +0.000 A 
ATOM     22  C   UNL     1      45.432   0.696   8.738  0.00  0.00    +0.000 A 
ATOM     23  S   UNL     1      46.399  -0.092   7.576  0.00  0.00    +0.000 S 
ATOM     24  C   UNL     1      46.991   1.388   6.984  0.00  0.00    +0.000 A 
ATOM     25  N   UNL     1      47.899   1.423   5.971  0.00  0.00    +0.000 NA
ATOM     26  C   UNL     1      48.285   2.609   5.641  0.00  0.00    +0.000 A 
ATOM     27  N   UNL     1      47.841   3.767   6.227  0.00  0.00    +0.000 N 
ATOM     28  C   UNL     1      46.906   3.782   7.234  0.00  0.00    +0.000 A 
ATOM     29  O   UNL     1      46.504   4.837   7.713  0.00  0.00    +0.000 OA
ATOM     30  C   UNL     1      46.446   2.470   7.651  0.00  0.00    +0.000 A 
ATOM     31  H   UNL     1      48.177   4.666   5.918  0.00  0.00    +0.000 HD
ENDBRANCH  18  21
ENDBRANCH   1  17
TORSDOF 5
ENDMDL
MODEL 7
REMARK VINA RESULT:    -6.366      2.936      3.479
REMARK INTER + INTRA:          -9.316
REMARK INTER:                  -8.065
REMARK INTRA:                  -1.251
REMARK UNBOUND:                -1.089
REMARK  Name = 
REMARK  6 active torsions:
REMARK  status: ('A' for Active; 'I' for Inactive)
REMARK    1  A    between atoms: C_1  and  C_2
REMARK    2  A    between atoms: C_5  and  C_6
REMARK    3  A    between atoms: C_6  and  C_7
REMARK    4  A    between atoms: C_10  and  C_11
REMARK    5  A    between atoms: C_11  and  N_12
REMARK    6  A    between atoms: C_13  and  C_15
REMARK                            x       y       z     vdW  Elec       q    Type
REMARK                         _______ _______ _______ _____ _____    ______ ____
ROOT
ATOM      1  C   UNL     1      50.175   8.264  14.179  0.00  0.00    +0.000 C 
ENDROOT
BRANCH   1   5
ATOM      2  C   UNL     1      46.436   7.557  12.112  0.00  0.00    +0.000 A 
ATOM      3  C   UNL     1      47.637   7.025  11.624  0.00  0.00    +0.000 A 
ATOM      4  C   UNL     1      48.845   7.255  12.287  0.00  0.00    +0.000 A 
ATOM      5  C   UNL     1      48.878   8.034  13.449  0.00  0.00    +0.000 A 
ATOM      6  C   UNL     1      47.689   8.620  13.901  0.00  0.00    +0.000 A 
ATOM      7  C   UNL     1      46.476   8.374  13.247  0.00  0.00    +0.000 A 
BRANCH   2   8
ATOM      8  C   UNL     1      45.127   7.257  11.417  0.00  0.00    +0.000 C 
BRANCH   8  13
ATOM      9  C   UNL     1      44.419   2.948   9.513  0.00  0.00    +0.000 C 
ATOM     10  C   UNL     1      43.981   3.791  10.711  0.00  0.00    +0.000 C 
ATOM     11  C   UNL     1      45.189   4.094  11.609  0.00  0.00    +0.000 C 
ATOM     12  C   UNL     1      44.812   5.045  12.742  0.00  0.00    +0.000 C 
ATOM     13  C   UNL     1      44.164   6.330  12.201  0.00  0.00    +0.000 C 
ATOM     14  C   UNL     1      42.966   5.918  11.319  0.00  0.00    +0.000 C 
ATOM     15  N   UNL     1      43.334   5.017  10.223  0.00  0.00    +0.000 NA
ATOM     16  H   UNL     1      43.956   5.498   9.575  0.00  0.00    +0.000 HD
ENDBRANCH   8  13
ENDBRANCH   2   8
ENDBRANCH   1   5
BRANCH   1  17
ATOM     17  N   UNL     1      50.112   7.771  15.531  0.00  0.00    +0.000 N 
ATOM     18  C   UNL     1      51.197   7.182  16.122  0.00  0.00    +0.000 C 
ATOM     19  O   UNL     1      52.285   7.105  15.558  0.00  0.00    +0.000 OA
ATOM     20  H   UNL     1      49.186   7.634  15.924  0.00  0.00    +0.000 HD
BRANCH  18  21
ATOM     21  C   UNL     1      51.017   6.709  17.501  0.00  0.00    +0.000 A 
ATOM     22  C   UNL     1      51.844   7.192  18.506  0.00  0.00    +0.000 A 
ATOM     23  S   UNL     1      51.469   6.580  20.052  0.00  0.00    +0.000 S 
ATOM     24  C   UNL     1      50.220   5.611  19.426  0.00  0.00    +0.000 A 
ATOM     25  N   UNL     1      49.491   4.799  20.239  0.00  0.00    +0.000 NA
ATOM     26  C   UNL     1      48.596   4.097  19.629  0.00  0.00    +0.000 A 
ATOM     27  N   UNL     1      48.358   4.138  18.279  0.00  0.00    +0.000 N 
ATOM     28  C   UNL     1      49.050   4.961  17.423  0.00  0.00    +0.000 A 
ATOM     29  O   UNL     1      48.789   4.998  16.226  0.00  0.00    +0.000 OA
ATOM     30  C   UNL     1      50.078   5.765  18.059  0.00  0.00    +0.000 A 
ATOM     31  H   UNL     1      47.637   3.569  17.862  0.00  0.00    +0.000 HD
ENDBRANCH  18  21
ENDBRANCH   1  17
TORSDOF 5
ENDMDL
MODEL 8
REMARK VINA RESULT:    -6.140      3.349      9.079
REMARK INTER + INTRA:          -9.024
REMARK INTER:                  -8.074
REMARK INTRA:                  -0.950
REMARK UNBOUND:                -1.089
REMARK  Name = 
REMARK  6 active torsions:
REMARK  status: ('A' for Active; 'I' for Inactive)
REMARK    1  A    between atoms: C_1  and  C_2
REMARK    2  A    between atoms: C_5  and  C_6
REMARK    3  A    between atoms: C_6  and  C_7
REMARK    4  A    between atoms: C_10  and  C_11
REMARK    5  A    between atoms: C_11  and  N_12
REMARK    6  A    between atoms: C_13  and  C_15
REMARK                            x       y       z     vdW  Elec       q    Type
REMARK                         _______ _______ _______ _____ _____    ______ ____
ROOT
ATOM      1  C   UNL     1      48.707   8.132  15.217  0.00  0.00    +0.000 C 
ENDROOT
BRANCH   1   5
ATOM      2  C   UNL     1      50.931   5.036  17.273  0.00  0.00    +0.000 A 
ATOM      3  C   UNL     1      49.539   4.948  17.132  0.00  0.00    +0.000 A 
ATOM      4  C   UNL     1      48.819   5.947  16.474  0.00  0.00    +0.000 A 
ATOM      5  C   UNL     1      49.478   7.065  15.949  0.00  0.00    +0.000 A 
ATOM      6  C   UNL     1      50.859   7.186  16.145  0.00  0.00    +0.000 A 
ATOM      7  C   UNL     1      51.582   6.176  16.789  0.00  0.00    +0.000 A 
BRANCH   2   8
ATOM      8  C   UNL     1      51.705   3.923  17.940  0.00  0.00    +0.000 C 
BRANCH   8  13
ATOM      9  C   UNL     1      54.659   0.271  18.742  0.00  0.00    +0.000 C 
ATOM     10  C   UNL     1      54.631   1.799  18.809  0.00  0.00    +0.000 C 
ATOM     11  C   UNL     1      54.423   2.382  17.403  0.00  0.00    +0.000 C 
ATOM     12  C   UNL     1      54.257   3.898  17.452  0.00  0.00    +0.000 C 
ATOM     13  C   UNL     1      53.130   4.307  18.415  0.00  0.00    +0.000 C 
ATOM     14  C   UNL     1      53.434   3.677  19.790  0.00  0.00    +0.000 C 
ATOM     15  N   UNL     1      53.578   2.218  19.743  0.00  0.00    +0.000 NA
ATOM     16  H   UNL     1      52.691   1.794  19.474  0.00  0.00    +0.000 HD
ENDBRANCH   8  13
ENDBRANCH   2   8
ENDBRANCH   1   5
BRANCH   1  17
ATOM     17  N   UNL     1      47.544   7.587  14.565  0.00  0.00    +0.000 N 
ATOM     18  C   UNL     1      47.614   7.089  13.292  0.00  0.00    +0.000 C 
ATOM     19  O   UNL     1      48.673   7.020  12.675  0.00  0.00    +0.000 OA
ATOM     20  H   UNL     1      46.642   7.826  14.965  0.00  0.00    +0.000 HD
BRANCH  18  21
ATOM     21  C   UNL     1      46.365   6.565  12.723  0.00  0.00    +0.000 A 
ATOM     22  C   UNL     1      45.452   7.439  12.149  0.00  0.00    +0.000 A 
ATOM     23  S   UNL     1      44.082   6.662  11.494  0.00  0.00    +0.000 S 
ATOM     24  C   UNL     1      44.639   5.136  11.996  0.00  0.00    +0.000 A 
ATOM     25  N   UNL     1      43.908   4.014  11.761  0.00  0.00    +0.000 NA
ATOM     26  C   UNL     1      44.432   2.928  12.222  0.00  0.00    +0.000 A 
ATOM     27  N   UNL     1      45.627   2.861  12.892  0.00  0.00    +0.000 N 
ATOM     28  C   UNL     1      46.412   3.964  13.129  0.00  0.00    +0.000 A 
ATOM     29  O   UNL     1      47.492   3.864  13.702  0.00  0.00    +0.000 OA
ATOM     30  C   UNL     1      45.861   5.214  12.640  0.00  0.00    +0.000 A 
ATOM     31  H   UNL     1      45.988   1.979  13.222  0.00  0.00    +0.000 HD
ENDBRANCH  18  21
ENDBRANCH   1  17
TORSDOF 5
ENDMDL
MODEL 9
REMARK VINA RESULT:    -5.497      3.692      8.773
REMARK INTER + INTRA:          -8.194
REMARK INTER:                  -8.022
REMARK INTRA:                  -0.171
REMARK UNBOUND:                -1.089
REMARK  Name = 
REMARK  6 active torsions:
REMARK  status: ('A' for Active; 'I' for Inactive)
REMARK    1  A    between atoms: C_1  and  C_2
REMARK    2  A    between atoms: C_5  and  C_6
REMARK    3  A    between atoms: C_6  and  C_7
REMARK    4  A    between atoms: C_10  and  C_11
REMARK    5  A    between atoms: C_11  and  N_12
REMARK    6  A    between atoms: C_13  and  C_15
REMARK                            x       y       z     vdW  Elec       q    Type
REMARK                         _______ _______ _______ _____ _____    ______ ____
ROOT
ATOM      1  C   UNL     1      48.816   7.119  12.980  0.00  0.00    +0.000 C 
ENDROOT
BRANCH   1   5
ATOM      2  C   UNL     1      49.245   6.951  17.286  0.00  0.00    +0.000 A 
ATOM      3  C   UNL     1      48.618   5.912  16.586  0.00  0.00    +0.000 A 
ATOM      4  C   UNL     1      48.475   5.965  15.198  0.00  0.00    +0.000 A 
ATOM      5  C   UNL     1      48.948   7.069  14.479  0.00  0.00    +0.000 A 
ATOM      6  C   UNL     1      49.517   8.137  15.184  0.00  0.00    +0.000 A 
ATOM      7  C   UNL     1      49.676   8.075  16.573  0.00  0.00    +0.000 A 
BRANCH   2   8
ATOM      8  C   UNL     1      49.442   6.857  18.782  0.00  0.00    +0.000 C 
BRANCH   8  13
ATOM      9  C   UNL     1      50.840   2.509  17.422  0.00  0.00    +0.000 C 
ATOM     10  C   UNL     1      51.347   3.714  18.216  0.00  0.00    +0.000 C 
ATOM     11  C   UNL     1      51.477   4.934  17.293  0.00  0.00    +0.000 C 
ATOM     12  C   UNL     1      51.853   6.186  18.081  0.00  0.00    +0.000 C 
ATOM     13  C   UNL     1      50.866   6.440  19.232  0.00  0.00    +0.000 C 
ATOM     14  C   UNL     1      50.812   5.163  20.097  0.00  0.00    +0.000 C 
ATOM     15  N   UNL     1      50.435   3.965  19.340  0.00  0.00    +0.000 NA
ATOM     16  H   UNL     1      49.481   4.062  18.993  0.00  0.00    +0.000 HD
ENDBRANCH   8  13
ENDBRANCH   2   8
ENDBRANCH   1   5
BRANCH   1  17
ATOM     17  N   UNL     1      47.582   6.520  12.540  0.00  0.00    +0.000 N 
ATOM     18  C   UNL     1      46.378   7.131  12.768  0.00  0.00    +0.000 C 
ATOM     19  O   UNL     1      46.297   8.238  13.293  0.00  0.00    +0.000 OA
ATOM     20  H   UNL     1      47.611   5.533  12.306  0.00  0.00    +0.000 HD
BRANCH  18  21
ATOM     21  C   UNL     1      45.183   6.427  12.284  0.00  0.00    +0.000 A 
ATOM     22  C   UNL     1      44.131   7.153  11.742  0.00  0.00    +0.000 A 
ATOM     23  S   UNL     1      42.846   6.181  11.184  0.00  0.00    +0.000 S 
ATOM     24  C   UNL     1      43.630   4.759  11.690  0.00  0.00    +0.000 A 
ATOM     25  N   UNL     1      43.046   3.542  11.524  0.00  0.00    +0.000 NA
ATOM     26  C   UNL     1      43.736   2.551  11.980  0.00  0.00    +0.000 A 
ATOM     27  N   UNL     1      44.962   2.666  12.582  0.00  0.00    +0.000 N 
ATOM     28  C   UNL     1      45.603   3.870  12.749  0.00  0.00    +0.000 A 
ATOM     29  O   UNL     1      46.715   3.934  13.261  0.00  0.00    +0.000 OA
ATOM     30  C   UNL     1      44.862   5.020  12.262  0.00  0.00    +0.000 A 
ATOM     31  H   UNL     1      45.456   1.850  12.912  0.00  0.00    +0.000 HD
ENDBRANCH  18  21
ENDBRANCH   1  17
TORSDOF 5
ENDMDL
