MODEL 1
REMARK VINA RESULT:    -7.169      0.000      0.000
REMARK INTER + INTRA:          -9.716
REMARK INTER:                  -9.056
REMARK INTRA:                  -0.661
REMARK UNBOUND:                -0.661
REMARK  Name = 
REMARK  5 active torsions:
REMARK  status: ('A' for Active; 'I' for Inactive)
REMARK    1  A    between atoms: N_1  and  C_2
REMARK    2  A    between atoms: C_2  and  C_3
REMARK    3  A    between atoms: C_6  and  C_7
REMARK    4  A    between atoms: C_7  and  N_8
REMARK    5  A    between atoms: C_13  and  C_14
REMARK                            x       y       z     vdW  Elec       q    Type
REMARK                         _______ _______ _______ _____ _____    ______ ____
ROOT
ATOM      1  N   UNL     1      44.580   5.044  10.597  0.00  0.00    +0.000 N 
ATOM      2  C   UNL     1      43.853   4.071  11.243  0.00  0.00    +0.000 A 
ATOM      3  C   UNL     1      44.133   2.862  10.648  0.00  0.00    +0.000 A 
ATOM      4  C   UNL     1      44.992   3.119   9.552  0.00  0.00    +0.000 A 
ATOM      5  C   UNL     1      45.578   2.322   8.559  0.00  0.00    +0.000 A 
ATOM      6  C   UNL     1      46.343   2.964   7.587  0.00  0.00    +0.000 A 
ATOM      7  C   UNL     1      46.546   4.340   7.688  0.00  0.00    +0.000 A 
ATOM      8  N   UNL     1      46.027   5.151   8.648  0.00  0.00    +0.000 NA
ATOM      9  C   UNL     1      45.253   4.490   9.535  0.00  0.00    +0.000 A 
ENDROOT
BRANCH   6  10
ATOM     10  C   UNL     1      46.929   2.226   6.449  0.00  0.00    +0.000 C 
ATOM     11  N   UNL     1      47.231   2.947   5.324  0.00  0.00    +0.000 N 
ATOM     12  O   UNL     1      47.168   1.032   6.517  0.00  0.00    +0.000 OA
ATOM     13  H   UNL     1      47.228   3.957   5.292  0.00  0.00    +0.000 HD
ATOM     14  H   UNL     1      47.718   2.452   4.586  0.00  0.00    +0.000 HD
ENDBRANCH   6  10
BRANCH   1  15
ATOM     15  C   UNL     1      44.700   6.416  11.056  0.00  0.00    +0.000 C 
BRANCH  15  19
ATOM     16  C   UNL     1      47.681   8.490  12.209  0.00  0.00    +0.000 C 
ATOM     17  C   UNL     1      47.782   7.017  11.769  0.00  0.00    +0.000 C 
ATOM     18  C   UNL     1      46.807   6.107  12.522  0.00  0.00    +0.000 C 
ATOM     19  C   UNL     1      45.345   6.588  12.447  0.00  0.00    +0.000 C 
ATOM     20  C   UNL     1      45.261   8.065  12.884  0.00  0.00    +0.000 C 
ATOM     21  C   UNL     1      46.219   8.960  12.096  0.00  0.00    +0.000 C 
BRANCH  16  22
ATOM     22  C   UNL     1      48.283   8.681  13.618  0.00  0.00    +0.000 C 
BRANCH  22  23
ATOM     23  N   UNL     1      48.074  10.030  14.132  0.00  0.00    +0.000 NA
ATOM     24  H   UNL     1      47.094  10.285  14.013  0.00  0.00    +0.000 HD
ATOM     25  H   UNL     1      48.598  10.696  13.567  0.00  0.00    +0.000 HD
ENDBRANCH  22  23
ENDBRANCH  16  22
ENDBRANCH  15  19
ENDBRANCH   1  15
TORSDOF 5
ENDMDL
MODEL 2
REMARK VINA RESULT:    -5.926      4.614      6.100
REMARK INTER + INTRA:          -8.146
REMARK INTER:                  -7.697
REMARK INTRA:                  -0.449
REMARK UNBOUND:                -0.661
REMARK  Name = 
REMARK  5 active torsions:
REMARK  status: ('A' for Active; 'I' for Inactive)
REMARK    1  A    between atoms: N_1  and  C_2
REMARK    2  A    between atoms: C_2  and  C_3
REMARK    3  A    between atoms: C_6  and  C_7
REMARK    4  A    between atoms: C_7  and  N_8
REMARK    5  A    between atoms: C_13  and  C_14
REMARK                            x       y       z     vdW  Elec       q    Type
REMARK                         _______ _______ _______ _____ _____    ______ ____
ROOT
ATOM      1  N   UNL     1      47.482   5.399  14.520  0.00  0.00    +0.000 N 
ATOM      2  C   UNL     1      47.991   6.602  14.088  0.00  0.00    +0.000 A 
ATOM      3  C   UNL     1      47.394   6.913  12.888  0.00  0.00    +0.000 A 
ATOM      4  C   UNL     1      46.558   5.825  12.537  0.00  0.00    +0.000 A 
ATOM      5  C   UNL     1      45.739   5.533  11.437  0.00  0.00    +0.000 A 
ATOM      6  C   UNL     1      45.094   4.297  11.425  0.00  0.00    +0.000 A 
ATOM      7  C   UNL     1      45.234   3.452  12.525  0.00  0.00    +0.000 A 
ATOM      8  N   UNL     1      45.989   3.702  13.628  0.00  0.00    +0.000 NA
ATOM      9  C   UNL     1      46.633   4.887  13.568  0.00  0.00    +0.000 A 
ENDROOT
BRANCH   6  10
ATOM     10  C   UNL     1      44.282   3.859  10.271  0.00  0.00    +0.000 C 
ATOM     11  N   UNL     1      44.196   4.716   9.206  0.00  0.00    +0.000 N 
ATOM     12  O   UNL     1      43.739   2.768  10.249  0.00  0.00    +0.000 OA
ATOM     13  H   UNL     1      44.778   5.535   9.100  0.00  0.00    +0.000 HD
ATOM     14  H   UNL     1      43.717   4.369   8.382  0.00  0.00    +0.000 HD
ENDBRANCH   6  10
BRANCH   1  15
ATOM     15  C   UNL     1      47.722   4.834  15.836  0.00  0.00    +0.000 C 
BRANCH  15  19
ATOM     16  C   UNL     1      48.542   4.658  19.553  0.00  0.00    +0.000 C 
ATOM     17  C   UNL     1      47.569   5.682  18.938  0.00  0.00    +0.000 C 
ATOM     18  C   UNL     1      48.191   6.470  17.782  0.00  0.00    +0.000 C 
ATOM     19  C   UNL     1      48.783   5.569  16.681  0.00  0.00    +0.000 C 
ATOM     20  C   UNL     1      49.750   4.546  17.312  0.00  0.00    +0.000 C 
ATOM     21  C   UNL     1      49.097   3.748  18.442  0.00  0.00    +0.000 C 
BRANCH  16  22
ATOM     22  C   UNL     1      49.640   5.372  20.371  0.00  0.00    +0.000 C 
BRANCH  22  23
ATOM     23  N   UNL     1      50.654   4.447  20.863  0.00  0.00    +0.000 NA
ATOM     24  H   UNL     1      51.442   4.981  21.232  0.00  0.00    +0.000 HD
ATOM     25  H   UNL     1      51.034   3.909  20.086  0.00  0.00    +0.000 HD
ENDBRANCH  22  23
ENDBRANCH  16  22
ENDBRANCH  15  19
ENDBRANCH   1  15
TORSDOF 5
ENDMDL
MODEL 3
REMARK VINA RESULT:    -5.860      4.912      8.271
REMARK INTER + INTRA:          -8.062
REMARK INTER:                  -7.603
REMARK INTRA:                  -0.459
REMARK UNBOUND:                -0.661
REMARK  Name = 
REMARK  5 active torsions:
REMARK  status: ('A' for Active; 'I' for Inactive)
REMARK    1  A    between atoms: N_1  and  C_2
REMARK    2  A    between atoms: C_2  and  C_3
REMARK    3  A    between atoms: C_6  and  C_7
REMARK    4  A    between atoms: C_7  and  N_8
REMARK    5  A    between atoms: C_13  and  C_14
REMARK                            x       y       z     vdW  Elec       q    Type
REMARK                         _______ _______ _______ _____ _____    ______ ____
ROOT
ATOM      1  N   UNL     1      48.139   6.570  14.263  0.00  0.00    +0.000 N 
ATOM      2  C   UNL     1      48.718   7.811  14.393  0.00  0.00    +0.000 A 
ATOM      3  C   UNL     1      49.337   7.868  15.621  0.00  0.00    +0.000 A 
ATOM      4  C   UNL     1      49.055   6.654  16.294  0.00  0.00    +0.000 A 
ATOM      5  C   UNL     1      49.362   6.142  17.562  0.00  0.00    +0.000 A 
ATOM      6  C   UNL     1      48.845   4.891  17.893  0.00  0.00    +0.000 A 
ATOM      7  C   UNL     1      48.117   4.186  16.935  0.00  0.00    +0.000 A 
ATOM      8  N   UNL     1      47.820   4.623  15.683  0.00  0.00    +0.000 NA
ATOM      9  C   UNL     1      48.299   5.860  15.429  0.00  0.00    +0.000 A 
ENDROOT
BRANCH   6  10
ATOM     10  C   UNL     1      49.037   4.304  19.236  0.00  0.00    +0.000 C 
ATOM     11  N   UNL     1      48.324   3.173  19.532  0.00  0.00    +0.000 N 
ATOM     12  O   UNL     1      49.823   4.782  20.036  0.00  0.00    +0.000 OA
ATOM     13  H   UNL     1      47.814   2.638  18.843  0.00  0.00    +0.000 HD
ATOM     14  H   UNL     1      48.532   2.724  20.417  0.00  0.00    +0.000 HD
ENDBRANCH   6  10
BRANCH   1  15
ATOM     15  C   UNL     1      47.559   6.062  13.033  0.00  0.00    +0.000 C 
BRANCH  15  19
ATOM     16  C   UNL     1      45.009   4.295  10.821  0.00  0.00    +0.000 C 
ATOM     17  C   UNL     1      45.699   5.618  10.443  0.00  0.00    +0.000 C 
ATOM     18  C   UNL     1      45.556   6.692  11.525  0.00  0.00    +0.000 C 
ATOM     19  C   UNL     1      46.029   6.221  12.914  0.00  0.00    +0.000 C 
ATOM     20  C   UNL     1      45.334   4.893  13.277  0.00  0.00    +0.000 C 
ATOM     21  C   UNL     1      45.519   3.825  12.196  0.00  0.00    +0.000 C 
BRANCH  16  22
ATOM     22  C   UNL     1      43.473   4.440  10.751  0.00  0.00    +0.000 C 
BRANCH  22  23
ATOM     23  N   UNL     1      42.780   3.352  11.431  0.00  0.00    +0.000 NA
ATOM     24  H   UNL     1      43.469   2.686  11.782  0.00  0.00    +0.000 HD
ATOM     25  H   UNL     1      42.218   2.831  10.761  0.00  0.00    +0.000 HD
ENDBRANCH  22  23
ENDBRANCH  16  22
ENDBRANCH  15  19
ENDBRANCH   1  15
TORSDOF 5
ENDMDL
MODEL 4
REMARK VINA RESULT:    -5.368      3.137      4.490
REMARK INTER + INTRA:          -7.441
REMARK INTER:                  -6.916
REMARK INTRA:                  -0.524
REMARK UNBOUND:                -0.661
REMARK  Name = 
REMARK  5 active torsions:
REMARK  status: ('A' for Active; 'I' for Inactive)
REMARK    1  A    between atoms: N_1  and  C_2
REMARK    2  A    between atoms: C_2  and  C_3
REMARK    3  A    between atoms: C_6  and  C_7
REMARK    4  A    between atoms: C_7  and  N_8
REMARK    5  A    between atoms: C_13  and  C_14
REMARK                            x       y       z     vdW  Elec       q    Type
REMARK                         _______ _______ _______ _____ _____    ______ ____
ROOT
ATOM      1  N   UNL     1      46.508   7.302  12.817  0.00  0.00    +0.000 N 
ATOM      2  C   UNL     1      45.871   8.307  12.127  0.00  0.00    +0.000 A 
ATOM      3  C   UNL     1      44.823   7.749  11.430  0.00  0.00    +0.000 A 
ATOM      4  C   UNL     1      44.876   6.349  11.635  0.00  0.00    +0.000 A 
ATOM      5  C   UNL     1      44.125   5.261  11.169  0.00  0.00    +0.000 A 
ATOM      6  C   UNL     1      44.527   3.986  11.562  0.00  0.00    +0.000 A 
ATOM      7  C   UNL     1      45.597   3.858  12.446  0.00  0.00    +0.000 A 
ATOM      8  N   UNL     1      46.336   4.881  12.951  0.00  0.00    +0.000 NA
ATOM      9  C   UNL     1      45.940   6.091  12.501  0.00  0.00    +0.000 A 
ENDROOT
BRANCH   6  10
ATOM     10  C   UNL     1      43.856   2.771  11.054  0.00  0.00    +0.000 C 
ATOM     11  N   UNL     1      44.367   2.205   9.916  0.00  0.00    +0.000 N 
ATOM     12  O   UNL     1      42.910   2.271  11.638  0.00  0.00    +0.000 OA
ATOM     13  H   UNL     1      45.254   2.469   9.511  0.00  0.00    +0.000 HD
ATOM     14  H   UNL     1      43.962   1.321   9.628  0.00  0.00    +0.000 HD
ENDBRANCH   6  10
BRANCH   1  15
ATOM     15  C   UNL     1      47.539   7.521  13.815  0.00  0.00    +0.000 C 
BRANCH  15  19
ATOM     16  C   UNL     1      50.719   9.365  12.813  0.00  0.00    +0.000 C 
ATOM     17  C   UNL     1      49.680   8.840  11.805  0.00  0.00    +0.000 C 
ATOM     18  C   UNL     1      49.368   7.353  11.996  0.00  0.00    +0.000 C 
ATOM     19  C   UNL     1      48.941   7.002  13.434  0.00  0.00    +0.000 C 
ATOM     20  C   UNL     1      49.988   7.539  14.432  0.00  0.00    +0.000 C 
ATOM     21  C   UNL     1      50.258   9.033  14.244  0.00  0.00    +0.000 C 
BRANCH  16  22
ATOM     22  C   UNL     1      52.127   8.825  12.477  0.00  0.00    +0.000 C 
BRANCH  22  23
ATOM     23  N   UNL     1      52.497   9.065  11.088  0.00  0.00    +0.000 NA
ATOM     24  H   UNL     1      53.368   9.595  11.061  0.00  0.00    +0.000 HD
ATOM     25  H   UNL     1      51.802   9.665  10.647  0.00  0.00    +0.000 HD
ENDBRANCH  22  23
ENDBRANCH  16  22
ENDBRANCH  15  19
ENDBRANCH   1  15
TORSDOF 5
ENDMDL
MODEL 5
REMARK VINA RESULT:    -5.211      3.131      4.632
REMARK INTER + INTRA:          -7.243
REMARK INTER:                  -6.713
REMARK INTRA:                  -0.529
REMARK UNBOUND:                -0.661
REMARK  Name = 
REMARK  5 active torsions:
REMARK  status: ('A' for Active; 'I' for Inactive)
REMARK    1  A    between atoms: N_1  and  C_2
REMARK    2  A    between atoms: C_2  and  C_3
REMARK    3  A    between atoms: C_6  and  C_7
REMARK    4  A    between atoms: C_7  and  N_8
REMARK    5  A    between atoms: C_13  and  C_14
REMARK                            x       y       z     vdW  Elec       q    Type
REMARK                         _______ _______ _______ _____ _____    ______ ____
ROOT
ATOM      1  N   UNL     1      47.555   6.287  13.980  0.00  0.00    +0.000 N 
ATOM      2  C   UNL     1      47.766   5.496  15.086  0.00  0.00    +0.000 A 
ATOM      3  C   UNL     1      47.166   4.279  14.862  0.00  0.00    +0.000 A 
ATOM      4  C   UNL     1      46.496   4.360  13.616  0.00  0.00    +0.000 A 
ATOM      5  C   UNL     1      45.691   3.483  12.878  0.00  0.00    +0.000 A 
ATOM      6  C   UNL     1      45.150   3.956  11.683  0.00  0.00    +0.000 A 
ATOM      7  C   UNL     1      45.491   5.237  11.249  0.00  0.00    +0.000 A 
ATOM      8  N   UNL     1      46.292   6.113  11.911  0.00  0.00    +0.000 NA
ATOM      9  C   UNL     1      46.747   5.626  13.086  0.00  0.00    +0.000 A 
ENDROOT
BRANCH   6  10
ATOM     10  C   UNL     1      44.218   3.140  10.877  0.00  0.00    +0.000 C 
ATOM     11  N   UNL     1      44.767   2.307   9.939  0.00  0.00    +0.000 N 
ATOM     12  O   UNL     1      43.013   3.177  11.062  0.00  0.00    +0.000 OA
ATOM     13  H   UNL     1      45.755   2.103   9.884  0.00  0.00    +0.000 HD
ATOM     14  H   UNL     1      44.129   1.683   9.458  0.00  0.00    +0.000 HD
ENDBRANCH   6  10
BRANCH   1  15
ATOM     15  C   UNL     1      48.196   7.571  13.758  0.00  0.00    +0.000 C 
BRANCH  15  19
ATOM     16  C   UNL     1      50.327  10.327  12.215  0.00  0.00    +0.000 C 
ATOM     17  C   UNL     1      49.238   9.556  11.447  0.00  0.00    +0.000 C 
ATOM     18  C   UNL     1      49.418   8.037  11.528  0.00  0.00    +0.000 C 
ATOM     19  C   UNL     1      49.524   7.515  12.974  0.00  0.00    +0.000 C 
ATOM     20  C   UNL     1      50.613   8.300  13.732  0.00  0.00    +0.000 C 
ATOM     21  C   UNL     1      50.393   9.813  13.665  0.00  0.00    +0.000 C 
BRANCH  16  22
ATOM     22  C   UNL     1      51.678  10.251  11.471  0.00  0.00    +0.000 C 
BRANCH  22  23
ATOM     23  N   UNL     1      51.565  10.649  10.073  0.00  0.00    +0.000 NA
ATOM     24  H   UNL     1      51.835   9.864   9.479  0.00  0.00    +0.000 HD
ATOM     25  H   UNL     1      52.240  11.385   9.871  0.00  0.00    +0.000 HD
ENDBRANCH  22  23
ENDBRANCH  16  22
ENDBRANCH  15  19
ENDBRANCH   1  15
TORSDOF 5
ENDMDL
MODEL 6
REMARK VINA RESULT:    -4.621      4.608      8.118
REMARK INTER + INTRA:          -6.497
REMARK INTER:                  -6.145
REMARK INTRA:                  -0.352
REMARK UNBOUND:                -0.661
REMARK  Name = 
REMARK  5 active torsions:
REMARK  status: ('A' for Active; 'I' for Inactive)
REMARK    1  A    between atoms: N_1  and  C_2
REMARK    2  A    between atoms: C_2  and  C_3
REMARK    3  A    between atoms: C_6  and  C_7
REMARK    4  A    between atoms: C_7  and  N_8
REMARK    5  A    between atoms: C_13  and  C_14
REMARK                            x       y       z     vdW  Elec       q    Type
REMARK                         _______ _______ _______ _____ _____    ______ ____
ROOT
ATOM      1  N   UNL     1      47.496   4.622  15.113  0.00  0.00    +0.000 N 
ATOM      2  C   UNL     1      47.119   3.842  16.182  0.00  0.00    +0.000 A 
ATOM      3  C   UNL     1      47.651   4.396  17.324  0.00  0.00    +0.000 A 
ATOM      4  C   UNL     1      48.446   5.499  16.929  0.00  0.00    +0.000 A 
ATOM      5  C   UNL     1      49.257   6.417  17.610  0.00  0.00    +0.000 A 
ATOM      6  C   UNL     1      49.947   7.357  16.847  0.00  0.00    +0.000 A 
ATOM      7  C   UNL     1      49.744   7.387  15.468  0.00  0.00    +0.000 A 
ATOM      8  N   UNL     1      48.945   6.542  14.765  0.00  0.00    +0.000 NA
ATOM      9  C   UNL     1      48.340   5.618  15.542  0.00  0.00    +0.000 A 
ENDROOT
BRANCH   6  10
ATOM     10  C   UNL     1      50.895   8.310  17.463  0.00  0.00    +0.000 C 
ATOM     11  N   UNL     1      51.631   7.859  18.526  0.00  0.00    +0.000 N 
ATOM     12  O   UNL     1      51.044   9.437  17.023  0.00  0.00    +0.000 OA
ATOM     13  H   UNL     1      51.681   6.888  18.799  0.00  0.00    +0.000 HD
ATOM     14  H   UNL     1      52.345   8.485  18.881  0.00  0.00    +0.000 HD
ENDBRANCH   6  10
BRANCH   1  15
ATOM     15  C   UNL     1      46.974   4.473  13.767  0.00  0.00    +0.000 C 
BRANCH  15  19
ATOM     16  C   UNL     1      44.769   5.284  10.767  0.00  0.00    +0.000 C 
ATOM     17  C   UNL     1      45.309   6.345  11.744  0.00  0.00    +0.000 C 
ATOM     18  C   UNL     1      44.984   6.024  13.206  0.00  0.00    +0.000 C 
ATOM     19  C   UNL     1      45.443   4.618  13.636  0.00  0.00    +0.000 C 
ATOM     20  C   UNL     1      44.900   3.568  12.646  0.00  0.00    +0.000 C 
ATOM     21  C   UNL     1      45.266   3.891  11.196  0.00  0.00    +0.000 C 
BRANCH  16  22
ATOM     22  C   UNL     1      43.232   5.381  10.651  0.00  0.00    +0.000 C 
BRANCH  22  23
ATOM     23  N   UNL     1      42.739   6.727  10.921  0.00  0.00    +0.000 NA
ATOM     24  H   UNL     1      42.407   7.142  10.050  0.00  0.00    +0.000 HD
ATOM     25  H   UNL     1      43.509   7.319  11.225  0.00  0.00    +0.000 HD
ENDBRANCH  22  23
ENDBRANCH  16  22
ENDBRANCH  15  19
ENDBRANCH   1  15
TORSDOF 5
ENDMDL
MODEL 7
REMARK VINA RESULT:    -4.580      4.409      8.431
REMARK INTER + INTRA:          -6.446
REMARK INTER:                  -6.004
REMARK INTRA:                  -0.442
REMARK UNBOUND:                -0.661
REMARK  Name = 
REMARK  5 active torsions:
REMARK  status: ('A' for Active; 'I' for Inactive)
REMARK    1  A    between atoms: N_1  and  C_2
REMARK    2  A    between atoms: C_2  and  C_3
REMARK    3  A    between atoms: C_6  and  C_7
REMARK    4  A    between atoms: C_7  and  N_8
REMARK    5  A    between atoms: C_13  and  C_14
REMARK                            x       y       z     vdW  Elec       q    Type
REMARK                         _______ _______ _______ _____ _____    ______ ____
ROOT
ATOM      1  N   UNL     1      48.614   7.253  13.141  0.00  0.00    +0.000 N 
ATOM      2  C   UNL     1      48.826   8.386  12.390  0.00  0.00    +0.000 A 
ATOM      3  C   UNL     1      49.795   9.137  13.014  0.00  0.00    +0.000 A 
ATOM      4  C   UNL     1      50.123   8.482  14.226  0.00  0.00    +0.000 A 
ATOM      5  C   UNL     1      50.989   8.767  15.291  0.00  0.00    +0.000 A 
ATOM      6  C   UNL     1      50.998   7.883  16.368  0.00  0.00    +0.000 A 
ATOM      7  C   UNL     1      50.210   6.734  16.304  0.00  0.00    +0.000 A 
ATOM      8  N   UNL     1      49.380   6.397  15.283  0.00  0.00    +0.000 NA
ATOM      9  C   UNL     1      49.368   7.310  14.288  0.00  0.00    +0.000 A 
ENDROOT
BRANCH   6  10
ATOM     10  C   UNL     1      51.809   8.141  17.576  0.00  0.00    +0.000 C 
ATOM     11  N   UNL     1      52.118   7.064  18.364  0.00  0.00    +0.000 N 
ATOM     12  O   UNL     1      52.218   9.258  17.844  0.00  0.00    +0.000 OA
ATOM     13  H   UNL     1      51.966   6.106  18.083  0.00  0.00    +0.000 HD
ATOM     14  H   UNL     1      52.752   7.235  19.136  0.00  0.00    +0.000 HD
ENDBRANCH   6  10
BRANCH   1  15
ATOM     15  C   UNL     1      47.806   6.126  12.712  0.00  0.00    +0.000 C 
BRANCH  15  19
ATOM     16  C   UNL     1      44.937   4.296  10.996  0.00  0.00    +0.000 C 
ATOM     17  C   UNL     1      45.639   5.533  10.405  0.00  0.00    +0.000 C 
ATOM     18  C   UNL     1      45.672   6.716  11.376  0.00  0.00    +0.000 C 
ATOM     19  C   UNL     1      46.281   6.361  12.747  0.00  0.00    +0.000 C 
ATOM     20  C   UNL     1      45.572   5.118  13.323  0.00  0.00    +0.000 C 
ATOM     21  C   UNL     1      45.581   3.939  12.348  0.00  0.00    +0.000 C 
BRANCH  16  22
ATOM     22  C   UNL     1      43.412   4.523  11.081  0.00  0.00    +0.000 C 
BRANCH  22  23
ATOM     23  N   UNL     1      42.694   3.320  11.487  0.00  0.00    +0.000 NA
ATOM     24  H   UNL     1      42.100   3.010  10.718  0.00  0.00    +0.000 HD
ATOM     25  H   UNL     1      42.056   3.543  12.249  0.00  0.00    +0.000 HD
ENDBRANCH  22  23
ENDBRANCH  16  22
ENDBRANCH  15  19
ENDBRANCH   1  15
TORSDOF 5
ENDMDL
MODEL 8
REMARK VINA RESULT:    -4.521      3.881      5.783
REMARK INTER + INTRA:          -6.372
REMARK INTER:                  -5.842
REMARK INTRA:                  -0.530
REMARK UNBOUND:                -0.661
REMARK  Name = 
REMARK  5 active torsions:
REMARK  status: ('A' for Active; 'I' for Inactive)
REMARK    1  A    between atoms: N_1  and  C_2
REMARK    2  A    between atoms: C_2  and  C_3
REMARK    3  A    between atoms: C_6  and  C_7
REMARK    4  A    between atoms: C_7  and  N_8
REMARK    5  A    between atoms: C_13  and  C_14
REMARK                            x       y       z     vdW  Elec       q    Type
REMARK                         _______ _______ _______ _____ _____    ______ ____
ROOT
ATOM      1  N   UNL     1      47.498   7.902  13.273  0.00  0.00    +0.000 N 
ATOM      2  C   UNL     1      46.912   9.012  12.710  0.00  0.00    +0.000 A 
ATOM      3  C   UNL     1      45.639   8.670  12.316  0.00  0.00    +0.000 A 
ATOM      4  C   UNL     1      45.475   7.286  12.569  0.00  0.00    +0.000 A 
ATOM      5  C   UNL     1      44.441   6.365  12.351  0.00  0.00    +0.000 A 
ATOM      6  C   UNL     1      44.680   5.036  12.694  0.00  0.00    +0.000 A 
ATOM      7  C   UNL     1      45.892   4.702  13.297  0.00  0.00    +0.000 A 
ATOM      8  N   UNL     1      46.912   5.561  13.559  0.00  0.00    +0.000 NA
ATOM      9  C   UNL     1      46.652   6.825  13.161  0.00  0.00    +0.000 A 
ENDROOT
BRANCH   6  10
ATOM     10  C   UNL     1      43.687   3.975  12.421  0.00  0.00    +0.000 C 
ATOM     11  N   UNL     1      42.673   4.277  11.552  0.00  0.00    +0.000 N 
ATOM     12  O   UNL     1      43.784   2.866  12.918  0.00  0.00    +0.000 OA
ATOM     13  H   UNL     1      42.660   5.106  10.976  0.00  0.00    +0.000 HD
ATOM     14  H   UNL     1      42.052   3.516  11.298  0.00  0.00    +0.000 HD
ENDBRANCH   6  10
BRANCH   1  15
ATOM     15  C   UNL     1      48.766   7.915  13.979  0.00  0.00    +0.000 C 
BRANCH  15  19
ATOM     16  C   UNL     1      51.395   7.712  16.730  0.00  0.00    +0.000 C 
ATOM     17  C   UNL     1      50.496   6.532  16.316  0.00  0.00    +0.000 C 
ATOM     18  C   UNL     1      49.006   6.886  16.338  0.00  0.00    +0.000 C 
ATOM     19  C   UNL     1      48.666   8.136  15.503  0.00  0.00    +0.000 C 
ATOM     20  C   UNL     1      49.578   9.306  15.925  0.00  0.00    +0.000 C 
ATOM     21  C   UNL     1      51.062   8.939  15.862  0.00  0.00    +0.000 C 
BRANCH  16  22
ATOM     22  C   UNL     1      51.280   7.980  18.247  0.00  0.00    +0.000 C 
BRANCH  22  23
ATOM     23  N   UNL     1      52.025   9.163  18.659  0.00  0.00    +0.000 NA
ATOM     24  H   UNL     1      52.052   9.204  19.678  0.00  0.00    +0.000 HD
ATOM     25  H   UNL     1      51.524  10.002  18.369  0.00  0.00    +0.000 HD
ENDBRANCH  22  23
ENDBRANCH  16  22
ENDBRANCH  15  19
ENDBRANCH   1  15
TORSDOF 5
ENDMDL
MODEL 9
REMARK VINA RESULT:    -4.327      4.219      6.481
REMARK INTER + INTRA:          -6.126
REMARK INTER:                  -5.686
REMARK INTRA:                  -0.439
REMARK UNBOUND:                -0.661
REMARK  Name = 
REMARK  5 active torsions:
REMARK  status: ('A' for Active; 'I' for Inactive)
REMARK    1  A    between atoms: N_1  and  C_2
REMARK    2  A    between atoms: C_2  and  C_3
REMARK    3  A    between atoms: C_6  and  C_7
REMARK    4  A    between atoms: C_7  and  N_8
REMARK    5  A    between atoms: C_13  and  C_14
REMARK                            x       y       z     vdW  Elec       q    Type
REMARK                         _______ _______ _______ _____ _____    ______ ____
ROOT
ATOM      1  N   UNL     1      48.465   8.273  12.607  0.00  0.00    +0.000 N 
ATOM      2  C   UNL     1      47.881   9.459  12.229  0.00  0.00    +0.000 A 
ATOM      3  C   UNL     1      46.515   9.290  12.253  0.00  0.00    +0.000 A 
ATOM      4  C   UNL     1      46.262   7.934  12.574  0.00  0.00    +0.000 A 
ATOM      5  C   UNL     1      45.103   7.159  12.706  0.00  0.00    +0.000 A 
ATOM      6  C   UNL     1      45.263   5.803  12.988  0.00  0.00    +0.000 A 
ATOM      7  C   UNL     1      46.549   5.305  13.196  0.00  0.00    +0.000 A 
ATOM      8  N   UNL     1      47.701   6.021  13.112  0.00  0.00    +0.000 NA
ATOM      9  C   UNL     1      47.495   7.315  12.785  0.00  0.00    +0.000 A 
ENDROOT
BRANCH   6  10
ATOM     10  C   UNL     1      44.108   4.884  13.058  0.00  0.00    +0.000 C 
ATOM     11  N   UNL     1      42.862   5.449  13.115  0.00  0.00    +0.000 N 
ATOM     12  O   UNL     1      44.252   3.674  13.030  0.00  0.00    +0.000 OA
ATOM     13  H   UNL     1      42.686   6.430  12.949  0.00  0.00    +0.000 HD
ATOM     14  H   UNL     1      42.073   4.814  13.067  0.00  0.00    +0.000 HD
ENDBRANCH   6  10
BRANCH   1  15
ATOM     15  C   UNL     1      49.880   8.110  12.888  0.00  0.00    +0.000 C 
BRANCH  15  19
ATOM     16  C   UNL     1      53.499   8.100  11.696  0.00  0.00    +0.000 C 
ATOM     17  C   UNL     1      53.077   8.393  13.147  0.00  0.00    +0.000 C 
ATOM     18  C   UNL     1      52.028   9.503  13.247  0.00  0.00    +0.000 C 
ATOM     19  C   UNL     1      50.786   9.247  12.371  0.00  0.00    +0.000 C 
ATOM     20  C   UNL     1      51.225   8.950  10.923  0.00  0.00    +0.000 C 
ATOM     21  C   UNL     1      52.247   7.815  10.845  0.00  0.00    +0.000 C 
BRANCH  16  22
ATOM     22  C   UNL     1      54.373   9.246  11.140  0.00  0.00    +0.000 C 
BRANCH  22  23
ATOM     23  N   UNL     1      54.721   9.048   9.738  0.00  0.00    +0.000 NA
ATOM     24  H   UNL     1      53.886   9.170   9.166  0.00  0.00    +0.000 HD
ATOM     25  H   UNL     1      55.011   8.083   9.589  0.00  0.00    +0.000 HD
ENDBRANCH  22  23
ENDBRANCH  16  22
ENDBRANCH  15  19
ENDBRANCH   1  15
TORSDOF 5
ENDMDL
