MODEL 1
REMARK VINA RESULT:    -8.881      0.000      0.000
REMARK INTER + INTRA:         -12.213
REMARK INTER:                 -11.477
REMARK INTRA:                  -0.735
REMARK UNBOUND:                -0.735
REMARK  Name = 
REMARK  6 active torsions:
REMARK  status: ('A' for Active; 'I' for Inactive)
REMARK    1  A    between atoms: C_1  and  N_2
REMARK    2  A    between atoms: N_2  and  C_3
REMARK    3  A    between atoms: C_3  and  C_4
REMARK    4  A    between atoms: C_13  and  C_14
REMARK    5  A    between atoms: C_14  and  N_15
REMARK    6  A    between atoms: C_16  and  C_18
REMARK                            x       y       z     vdW  Elec       q    Type
REMARK                         _______ _______ _______ _____ _____    ______ ____
ROOT
ATOM      1  C   UNL     1      46.952   7.979  13.002  0.00  0.00    +0.000 C 
ENDROOT
BRANCH   1   7
ATOM      2  C   UNL     1      43.730   2.868  10.810  0.00  0.00    +0.000 C 
ATOM      3  N   UNL     1      44.651   3.744  10.120  0.00  0.00    +0.000 N 
ATOM      4  C   UNL     1      45.224   4.773  10.829  0.00  0.00    +0.000 A 
ATOM      5  N   UNL     1      44.928   4.915  12.136  0.00  0.00    +0.000 NA
ATOM      6  C   UNL     1      45.488   5.945  12.803  0.00  0.00    +0.000 A 
ATOM      7  C   UNL     1      46.350   6.854  12.235  0.00  0.00    +0.000 A 
ATOM      8  C   UNL     1      46.623   6.612  10.912  0.00  0.00    +0.000 A 
ATOM      9  N   UNL     1      46.074   5.607  10.205  0.00  0.00    +0.000 NA
BRANCH   3  10
ATOM     10  C   UNL     1      44.651   3.792   8.665  0.00  0.00    +0.000 C 
BRANCH  10  11
ATOM     11  C   UNL     1      45.771   2.956   8.084  0.00  0.00    +0.000 A 
ATOM     12  C   UNL     1      45.853   1.584   8.338  0.00  0.00    +0.000 A 
ATOM     13  C   UNL     1      46.876   0.855   7.748  0.00  0.00    +0.000 A 
ATOM     14  N   UNL     1      47.807   1.388   6.930  0.00  0.00    +0.000 NA
ATOM     15  C   UNL     1      47.708   2.712   6.690  0.00  0.00    +0.000 A 
ATOM     16  C   UNL     1      46.723   3.524   7.231  0.00  0.00    +0.000 A 
ENDBRANCH  10  11
ENDBRANCH   3  10
ENDBRANCH   1   7
BRANCH   1  17
ATOM     17  N   UNL     1      47.291   7.595  14.347  0.00  0.00    +0.000 N 
ATOM     18  C   UNL     1      48.472   6.943  14.617  0.00  0.00    +0.000 C 
ATOM     19  O   UNL     1      49.266   6.659  13.723  0.00  0.00    +0.000 OA
ATOM     20  H   UNL     1      46.807   8.063  15.108  0.00  0.00    +0.000 HD
BRANCH  18  21
ATOM     21  C   UNL     1      48.689   6.514  16.005  0.00  0.00    +0.000 A 
ATOM     22  C   UNL     1      49.318   7.352  16.915  0.00  0.00    +0.000 A 
ATOM     23  S   UNL     1      49.793   6.549  18.348  0.00  0.00    +0.000 S 
ATOM     24  C   UNL     1      49.103   5.086  17.818  0.00  0.00    +0.000 A 
ATOM     25  N   UNL     1      49.255   3.926  18.513  0.00  0.00    +0.000 NA
ATOM     26  C   UNL     1      48.627   2.917  18.005  0.00  0.00    +0.000 A 
ATOM     27  N   UNL     1      47.812   2.975  16.903  0.00  0.00    +0.000 N 
ATOM     28  C   UNL     1      47.602   4.133  16.200  0.00  0.00    +0.000 A 
ATOM     29  O   UNL     1      46.782   4.201  15.288  0.00  0.00    +0.000 OA
ATOM     30  C   UNL     1      48.401   5.255  16.640  0.00  0.00    +0.000 A 
ATOM     31  H   UNL     1      47.277   2.170  16.610  0.00  0.00    +0.000 HD
ENDBRANCH  18  21
ENDBRANCH   1  17
TORSDOF 5
ENDMDL
MODEL 2
REMARK VINA RESULT:    -7.631      1.517      1.693
REMARK INTER + INTRA:         -10.597
REMARK INTER:                  -9.951
REMARK INTRA:                  -0.646
REMARK UNBOUND:                -0.735
REMARK  Name = 
REMARK  6 active torsions:
REMARK  status: ('A' for Active; 'I' for Inactive)
REMARK    1  A    between atoms: C_1  and  N_2
REMARK    2  A    between atoms: N_2  and  C_3
REMARK    3  A    between atoms: C_3  and  C_4
REMARK    4  A    between atoms: C_13  and  C_14
REMARK    5  A    between atoms: C_14  and  N_15
REMARK    6  A    between atoms: C_16  and  C_18
REMARK                            x       y       z     vdW  Elec       q    Type
REMARK                         _______ _______ _______ _____ _____    ______ ____
ROOT
ATOM      1  C   UNL     1      47.105   7.921  13.318  0.00  0.00    +0.000 C 
ENDROOT
BRANCH   1   7
ATOM      2  C   UNL     1      43.593   2.904  11.368  0.00  0.00    +0.000 C 
ATOM      3  N   UNL     1      44.447   3.786  10.603  0.00  0.00    +0.000 N 
ATOM      4  C   UNL     1      45.107   4.790  11.270  0.00  0.00    +0.000 A 
ATOM      5  N   UNL     1      44.956   4.903  12.604  0.00  0.00    +0.000 NA
ATOM      6  C   UNL     1      45.599   5.910  13.231  0.00  0.00    +0.000 A 
ATOM      7  C   UNL     1      46.408   6.823  12.594  0.00  0.00    +0.000 A 
ATOM      8  C   UNL     1      46.534   6.610  11.244  0.00  0.00    +0.000 A 
ATOM      9  N   UNL     1      45.898   5.630  10.577  0.00  0.00    +0.000 NA
BRANCH   3  10
ATOM     10  C   UNL     1      44.292   3.870   9.157  0.00  0.00    +0.000 C 
BRANCH  10  11
ATOM     11  C   UNL     1      45.390   3.117   8.438  0.00  0.00    +0.000 A 
ATOM     12  C   UNL     1      45.568   1.744   8.630  0.00  0.00    +0.000 A 
ATOM     13  C   UNL     1      46.564   1.093   7.915  0.00  0.00    +0.000 A 
ATOM     14  N   UNL     1      47.380   1.703   7.032  0.00  0.00    +0.000 NA
ATOM     15  C   UNL     1      47.190   3.028   6.854  0.00  0.00    +0.000 A 
ATOM     16  C   UNL     1      46.223   3.765   7.519  0.00  0.00    +0.000 A 
ENDBRANCH  10  11
ENDBRANCH   3  10
ENDBRANCH   1   7
BRANCH   1  17
ATOM     17  N   UNL     1      48.246   7.444  14.054  0.00  0.00    +0.000 N 
ATOM     18  C   UNL     1      48.576   7.989  15.273  0.00  0.00    +0.000 C 
ATOM     19  O   UNL     1      47.919   8.902  15.766  0.00  0.00    +0.000 OA
ATOM     20  H   UNL     1      48.614   6.528  13.813  0.00  0.00    +0.000 HD
BRANCH  18  21
ATOM     21  C   UNL     1      49.807   7.498  15.906  0.00  0.00    +0.000 A 
ATOM     22  C   UNL     1      51.021   8.131  15.681  0.00  0.00    +0.000 A 
ATOM     23  S   UNL     1      52.365   7.212  16.204  0.00  0.00    +0.000 S 
ATOM     24  C   UNL     1      51.354   5.983  16.808  0.00  0.00    +0.000 A 
ATOM     25  N   UNL     1      51.853   4.812  17.288  0.00  0.00    +0.000 NA
ATOM     26  C   UNL     1      50.957   4.006  17.757  0.00  0.00    +0.000 A 
ATOM     27  N   UNL     1      49.618   4.288  17.845  0.00  0.00    +0.000 N 
ATOM     28  C   UNL     1      49.082   5.472  17.410  0.00  0.00    +0.000 A 
ATOM     29  O   UNL     1      47.904   5.762  17.599  0.00  0.00    +0.000 OA
ATOM     30  C   UNL     1      50.022   6.345  16.740  0.00  0.00    +0.000 A 
ATOM     31  H   UNL     1      48.983   3.652  18.306  0.00  0.00    +0.000 HD
ENDBRANCH  18  21
ENDBRANCH   1  17
TORSDOF 5
ENDMDL
MODEL 3
REMARK VINA RESULT:    -7.483      3.298      7.923
REMARK INTER + INTRA:         -10.406
REMARK INTER:                  -9.722
REMARK INTRA:                  -0.684
REMARK UNBOUND:                -0.735
REMARK  Name = 
REMARK  6 active torsions:
REMARK  status: ('A' for Active; 'I' for Inactive)
REMARK    1  A    between atoms: C_1  and  N_2
REMARK    2  A    between atoms: N_2  and  C_3
REMARK    3  A    between atoms: C_3  and  C_4
REMARK    4  A    between atoms: C_13  and  C_14
REMARK    5  A    between atoms: C_14  and  N_15
REMARK    6  A    between atoms: C_16  and  C_18
REMARK                            x       y       z     vdW  Elec       q    Type
REMARK                         _______ _______ _______ _____ _____    ______ ____
ROOT
ATOM      1  C   UNL     1      48.250   8.271  12.442  0.00  0.00    +0.000 C 
ENDROOT
BRANCH   1   7
ATOM      2  C   UNL     1      52.371   7.073  17.226  0.00  0.00    +0.000 C 
ATOM      3  N   UNL     1      51.104   6.446  16.921  0.00  0.00    +0.000 N 
ATOM      4  C   UNL     1      50.412   6.884  15.817  0.00  0.00    +0.000 A 
ATOM      5  N   UNL     1      50.943   7.858  15.052  0.00  0.00    +0.000 NA
ATOM      6  C   UNL     1      50.233   8.284  13.987  0.00  0.00    +0.000 A 
ATOM      7  C   UNL     1      49.005   7.779  13.627  0.00  0.00    +0.000 A 
ATOM      8  C   UNL     1      48.559   6.767  14.439  0.00  0.00    +0.000 A 
ATOM      9  N   UNL     1      49.226   6.324  15.520  0.00  0.00    +0.000 NA
BRANCH   3  10
ATOM     10  C   UNL     1      50.404   5.689  17.949  0.00  0.00    +0.000 C 
BRANCH  10  11
ATOM     11  C   UNL     1      50.473   4.201  17.685  0.00  0.00    +0.000 A 
ATOM     12  C   UNL     1      49.341   3.489  17.275  0.00  0.00    +0.000 A 
ATOM     13  C   UNL     1      49.467   2.133  17.005  0.00  0.00    +0.000 A 
ATOM     14  N   UNL     1      50.624   1.448  17.109  0.00  0.00    +0.000 NA
ATOM     15  C   UNL     1      51.707   2.153  17.499  0.00  0.00    +0.000 A 
ATOM     16  C   UNL     1      51.683   3.508  17.789  0.00  0.00    +0.000 A 
ENDBRANCH  10  11
ENDBRANCH   3  10
ENDBRANCH   1   7
BRANCH   1  17
ATOM     17  N   UNL     1      47.658   7.193  11.693  0.00  0.00    +0.000 N 
ATOM     18  C   UNL     1      46.312   6.928  11.784  0.00  0.00    +0.000 C 
ATOM     19  O   UNL     1      45.576   7.591  12.511  0.00  0.00    +0.000 OA
ATOM     20  H   UNL     1      48.173   6.837  10.893  0.00  0.00    +0.000 HD
BRANCH  18  21
ATOM     21  C   UNL     1      45.818   5.756  11.051  0.00  0.00    +0.000 A 
ATOM     22  C   UNL     1      45.913   5.692   9.668  0.00  0.00    +0.000 A 
ATOM     23  S   UNL     1      44.973   4.436   8.987  0.00  0.00    +0.000 S 
ATOM     24  C   UNL     1      44.477   3.904  10.526  0.00  0.00    +0.000 A 
ATOM     25  N   UNL     1      43.546   2.925  10.682  0.00  0.00    +0.000 NA
ATOM     26  C   UNL     1      43.319   2.600  11.913  0.00  0.00    +0.000 A 
ATOM     27  N   UNL     1      43.980   3.120  12.996  0.00  0.00    +0.000 N 
ATOM     28  C   UNL     1      44.954   4.079  12.876  0.00  0.00    +0.000 A 
ATOM     29  O   UNL     1      45.620   4.453  13.837  0.00  0.00    +0.000 OA
ATOM     30  C   UNL     1      45.137   4.582  11.532  0.00  0.00    +0.000 A 
ATOM     31  H   UNL     1      43.820   2.758  13.925  0.00  0.00    +0.000 HD
ENDBRANCH  18  21
ENDBRANCH   1  17
TORSDOF 5
ENDMDL
MODEL 4
REMARK VINA RESULT:    -7.478      2.945      8.134
REMARK INTER + INTRA:         -10.400
REMARK INTER:                  -9.797
REMARK INTRA:                  -0.602
REMARK UNBOUND:                -0.735
REMARK  Name = 
REMARK  6 active torsions:
REMARK  status: ('A' for Active; 'I' for Inactive)
REMARK    1  A    between atoms: C_1  and  N_2
REMARK    2  A    between atoms: N_2  and  C_3
REMARK    3  A    between atoms: C_3  and  C_4
REMARK    4  A    between atoms: C_13  and  C_14
REMARK    5  A    between atoms: C_14  and  N_15
REMARK    6  A    between atoms: C_16  and  C_18
REMARK                            x       y       z     vdW  Elec       q    Type
REMARK                         _______ _______ _______ _____ _____    ______ ____
ROOT
ATOM      1  C   UNL     1      47.532   7.470  11.871  0.00  0.00    +0.000 C 
ENDROOT
BRANCH   1   7
ATOM      2  C   UNL     1      51.186   7.554  17.158  0.00  0.00    +0.000 C 
ATOM      3  N   UNL     1      50.152   6.622  16.765  0.00  0.00    +0.000 N 
ATOM      4  C   UNL     1      49.520   6.822  15.561  0.00  0.00    +0.000 A 
ATOM      5  N   UNL     1      49.897   7.857  14.786  0.00  0.00    +0.000 NA
ATOM      6  C   UNL     1      49.246   8.044  13.619  0.00  0.00    +0.000 A 
ATOM      7  C   UNL     1      48.228   7.236  13.167  0.00  0.00    +0.000 A 
ATOM      8  C   UNL     1      47.935   6.187  14.001  0.00  0.00    +0.000 A 
ATOM      9  N   UNL     1      48.547   5.974  15.181  0.00  0.00    +0.000 NA
BRANCH   3  10
ATOM     10  C   UNL     1      49.528   5.768  17.767  0.00  0.00    +0.000 C 
BRANCH  10  11
ATOM     11  C   UNL     1      49.872   4.312  17.545  0.00  0.00    +0.000 A 
ATOM     12  C   UNL     1      48.889   3.385  17.185  0.00  0.00    +0.000 A 
ATOM     13  C   UNL     1      49.265   2.069  16.953  0.00  0.00    +0.000 A 
ATOM     14  N   UNL     1      50.532   1.618  17.049  0.00  0.00    +0.000 NA
ATOM     15  C   UNL     1      51.469   2.528  17.391  0.00  0.00    +0.000 A 
ATOM     16  C   UNL     1      51.194   3.863  17.641  0.00  0.00    +0.000 A 
ENDBRANCH  10  11
ENDBRANCH   3  10
ENDBRANCH   1   7
BRANCH   1  17
ATOM     17  N   UNL     1      46.767   6.324  11.454  0.00  0.00    +0.000 N 
ATOM     18  C   UNL     1      45.393   6.345  11.488  0.00  0.00    +0.000 C 
ATOM     19  O   UNL     1      44.776   7.332  11.882  0.00  0.00    +0.000 OA
ATOM     20  H   UNL     1      47.231   5.633  10.871  0.00  0.00    +0.000 HD
BRANCH  18  21
ATOM     21  C   UNL     1      44.703   5.099  11.127  0.00  0.00    +0.000 A 
ATOM     22  C   UNL     1      43.698   4.586  11.935  0.00  0.00    +0.000 A 
ATOM     23  S   UNL     1      43.280   2.975  11.544  0.00  0.00    +0.000 S 
ATOM     24  C   UNL     1      44.376   2.952  10.243  0.00  0.00    +0.000 A 
ATOM     25  N   UNL     1      44.628   1.818   9.535  0.00  0.00    +0.000 NA
ATOM     26  C   UNL     1      45.445   1.980   8.546  0.00  0.00    +0.000 A 
ATOM     27  N   UNL     1      45.984   3.182   8.164  0.00  0.00    +0.000 N 
ATOM     28  C   UNL     1      45.722   4.353   8.827  0.00  0.00    +0.000 A 
ATOM     29  O   UNL     1      46.115   5.439   8.409  0.00  0.00    +0.000 OA
ATOM     30  C   UNL     1      44.934   4.198  10.030  0.00  0.00    +0.000 A 
ATOM     31  H   UNL     1      46.544   3.257   7.326  0.00  0.00    +0.000 HD
ENDBRANCH  18  21
ENDBRANCH   1  17
TORSDOF 5
ENDMDL
MODEL 5
REMARK VINA RESULT:    -6.603      3.765      8.324
REMARK INTER + INTRA:          -9.268
REMARK INTER:                  -8.452
REMARK INTRA:                  -0.816
REMARK UNBOUND:                -0.735
REMARK  Name = 
REMARK  6 active torsions:
REMARK  status: ('A' for Active; 'I' for Inactive)
REMARK    1  A    between atoms: C_1  and  N_2
REMARK    2  A    between atoms: N_2  and  C_3
REMARK    3  A    between atoms: C_3  and  C_4
REMARK    4  A    between atoms: C_13  and  C_14
REMARK    5  A    between atoms: C_14  and  N_15
REMARK    6  A    between atoms: C_16  and  C_18
REMARK                            x       y       z     vdW  Elec       q    Type
REMARK                         _______ _______ _______ _____ _____    ______ ____
ROOT
ATOM      1  C   UNL     1      44.745   3.596  12.290  0.00  0.00    +0.000 C 
ENDROOT
BRANCH   1   7
ATOM      2  C   UNL     1      49.333   6.833  15.419  0.00  0.00    +0.000 C 
ATOM      3  N   UNL     1      48.409   7.290  14.404  0.00  0.00    +0.000 N 
ATOM      4  C   UNL     1      47.504   6.389  13.897  0.00  0.00    +0.000 A 
ATOM      5  N   UNL     1      47.494   5.129  14.372  0.00  0.00    +0.000 NA
ATOM      6  C   UNL     1      46.610   4.259  13.841  0.00  0.00    +0.000 A 
ATOM      7  C   UNL     1      45.710   4.582  12.852  0.00  0.00    +0.000 A 
ATOM      8  C   UNL     1      45.765   5.894  12.454  0.00  0.00    +0.000 A 
ATOM      9  N   UNL     1      46.642   6.789  12.944  0.00  0.00    +0.000 NA
BRANCH   3  10
ATOM     10  C   UNL     1      48.691   8.513  13.666  0.00  0.00    +0.000 C 
BRANCH  10  11
ATOM     11  C   UNL     1      49.971   8.395  12.868  0.00  0.00    +0.000 A 
ATOM     12  C   UNL     1      51.194   8.814  13.401  0.00  0.00    +0.000 A 
ATOM     13  C   UNL     1      52.345   8.646  12.644  0.00  0.00    +0.000 A 
ATOM     14  N   UNL     1      52.365   8.094  11.413  0.00  0.00    +0.000 NA
ATOM     15  C   UNL     1      51.176   7.689  10.918  0.00  0.00    +0.000 A 
ATOM     16  C   UNL     1      49.974   7.812  11.596  0.00  0.00    +0.000 A 
ENDBRANCH  10  11
ENDBRANCH   3  10
ENDBRANCH   1   7
BRANCH   1  17
ATOM     17  N   UNL     1      45.301   2.870  11.179  0.00  0.00    +0.000 N 
ATOM     18  C   UNL     1      44.761   2.988   9.920  0.00  0.00    +0.000 C 
ATOM     19  O   UNL     1      43.786   3.706   9.705  0.00  0.00    +0.000 OA
ATOM     20  H   UNL     1      46.249   2.516  11.272  0.00  0.00    +0.000 HD
BRANCH  18  21
ATOM     21  C   UNL     1      45.340   2.141   8.869  0.00  0.00    +0.000 A 
ATOM     22  C   UNL     1      45.034   0.789   8.800  0.00  0.00    +0.000 A 
ATOM     23  S   UNL     1      46.069  -0.080   7.752  0.00  0.00    +0.000 S 
ATOM     24  C   UNL     1      46.900   1.339   7.312  0.00  0.00    +0.000 A 
ATOM     25  N   UNL     1      48.011   1.307   6.528  0.00  0.00    +0.000 NA
ATOM     26  C   UNL     1      48.493   2.473   6.243  0.00  0.00    +0.000 A 
ATOM     27  N   UNL     1      47.930   3.666   6.618  0.00  0.00    +0.000 N 
ATOM     28  C   UNL     1      46.789   3.740   7.374  0.00  0.00    +0.000 A 
ATOM     29  O   UNL     1      46.230   4.808   7.606  0.00  0.00    +0.000 OA
ATOM     30  C   UNL     1      46.298   2.463   7.844  0.00  0.00    +0.000 A 
ATOM     31  H   UNL     1      48.305   4.544   6.286  0.00  0.00    +0.000 HD
ENDBRANCH  18  21
ENDBRANCH   1  17
TORSDOF 5
ENDMDL
MODEL 6
REMARK VINA RESULT:    -6.590      3.436      9.143
REMARK INTER + INTRA:          -9.252
REMARK INTER:                  -8.656
REMARK INTRA:                  -0.596
REMARK UNBOUND:                -0.735
REMARK  Name = 
REMARK  6 active torsions:
REMARK  status: ('A' for Active; 'I' for Inactive)
REMARK    1  A    between atoms: C_1  and  N_2
REMARK    2  A    between atoms: N_2  and  C_3
REMARK    3  A    between atoms: C_3  and  C_4
REMARK    4  A    between atoms: C_13  and  C_14
REMARK    5  A    between atoms: C_14  and  N_15
REMARK    6  A    between atoms: C_16  and  C_18
REMARK                            x       y       z     vdW  Elec       q    Type
REMARK                         _______ _______ _______ _____ _____    ______ ____
ROOT
ATOM      1  C   UNL     1      44.737   3.523  12.339  0.00  0.00    +0.000 C 
ENDROOT
BRANCH   1   7
ATOM      2  C   UNL     1      48.126   8.551  14.472  0.00  0.00    +0.000 C 
ATOM      3  N   UNL     1      48.388   7.135  14.612  0.00  0.00    +0.000 N 
ATOM      4  C   UNL     1      47.501   6.252  14.044  0.00  0.00    +0.000 A 
ATOM      5  N   UNL     1      46.440   6.730  13.365  0.00  0.00    +0.000 NA
ATOM      6  C   UNL     1      45.574   5.841  12.835  0.00  0.00    +0.000 A 
ATOM      7  C   UNL     1      45.712   4.476  12.938  0.00  0.00    +0.000 A 
ATOM      8  C   UNL     1      46.838   4.078  13.613  0.00  0.00    +0.000 A 
ATOM      9  N   UNL     1      47.718   4.930  14.171  0.00  0.00    +0.000 NA
BRANCH   3  10
ATOM     10  C   UNL     1      49.303   6.666  15.643  0.00  0.00    +0.000 C 
BRANCH  10  11
ATOM     11  C   UNL     1      48.662   6.710  17.013  0.00  0.00    +0.000 A 
ATOM     12  C   UNL     1      48.523   7.918  17.705  0.00  0.00    +0.000 A 
ATOM     13  C   UNL     1      47.891   7.910  18.940  0.00  0.00    +0.000 A 
ATOM     14  N   UNL     1      47.392   6.802  19.526  0.00  0.00    +0.000 NA
ATOM     15  C   UNL     1      47.530   5.647  18.841  0.00  0.00    +0.000 A 
ATOM     16  C   UNL     1      48.143   5.553  17.602  0.00  0.00    +0.000 A 
ENDBRANCH  10  11
ENDBRANCH   3  10
ENDBRANCH   1   7
BRANCH   1  17
ATOM     17  N   UNL     1      45.291   2.822  11.210  0.00  0.00    +0.000 N 
ATOM     18  C   UNL     1      44.734   2.948   9.960  0.00  0.00    +0.000 C 
ATOM     19  O   UNL     1      43.744   3.651   9.767  0.00  0.00    +0.000 OA
ATOM     20  H   UNL     1      46.246   2.483  11.287  0.00  0.00    +0.000 HD
BRANCH  18  21
ATOM     21  C   UNL     1      45.314   2.126   8.890  0.00  0.00    +0.000 A 
ATOM     22  C   UNL     1      45.022   0.772   8.799  0.00  0.00    +0.000 A 
ATOM     23  S   UNL     1      46.059  -0.068   7.730  0.00  0.00    +0.000 S 
ATOM     24  C   UNL     1      46.872   1.368   7.309  0.00  0.00    +0.000 A 
ATOM     25  N   UNL     1      47.978   1.362   6.517  0.00  0.00    +0.000 NA
ATOM     26  C   UNL     1      48.445   2.537   6.249  0.00  0.00    +0.000 A 
ATOM     27  N   UNL     1      47.873   3.718   6.649  0.00  0.00    +0.000 N 
ATOM     28  C   UNL     1      46.736   3.766   7.414  0.00  0.00    +0.000 A 
ATOM     29  O   UNL     1      46.167   4.824   7.669  0.00  0.00    +0.000 OA
ATOM     30  C   UNL     1      46.262   2.475   7.865  0.00  0.00    +0.000 A 
ATOM     31  H   UNL     1      48.235   4.605   6.330  0.00  0.00    +0.000 HD
ENDBRANCH  18  21
ENDBRANCH   1  17
TORSDOF 5
ENDMDL
MODEL 7
REMARK VINA RESULT:    -6.425      1.776      2.326
REMARK INTER + INTRA:          -9.038
REMARK INTER:                  -8.663
REMARK INTRA:                  -0.375
REMARK UNBOUND:                -0.735
REMARK  Name = 
REMARK  6 active torsions:
REMARK  status: ('A' for Active; 'I' for Inactive)
REMARK    1  A    between atoms: C_1  and  N_2
REMARK    2  A    between atoms: N_2  and  C_3
REMARK    3  A    between atoms: C_3  and  C_4
REMARK    4  A    between atoms: C_13  and  C_14
REMARK    5  A    between atoms: C_14  and  N_15
REMARK    6  A    between atoms: C_16  and  C_18
REMARK                            x       y       z     vdW  Elec       q    Type
REMARK                         _______ _______ _______ _____ _____    ______ ____
ROOT
ATOM      1  C   UNL     1      48.795   6.821  13.932  0.00  0.00    +0.000 C 
ENDROOT
BRANCH   1   7
ATOM      2  C   UNL     1      42.962   6.097  11.332  0.00  0.00    +0.000 C 
ATOM      3  N   UNL     1      43.899   5.095  11.790  0.00  0.00    +0.000 N 
ATOM      4  C   UNL     1      45.092   5.518  12.326  0.00  0.00    +0.000 A 
ATOM      5  N   UNL     1      45.336   6.840  12.426  0.00  0.00    +0.000 NA
ATOM      6  C   UNL     1      46.523   7.228  12.936  0.00  0.00    +0.000 A 
ATOM      7  C   UNL     1      47.496   6.358  13.371  0.00  0.00    +0.000 A 
ATOM      8  C   UNL     1      47.149   5.035  13.267  0.00  0.00    +0.000 A 
ATOM      9  N   UNL     1      45.984   4.604  12.748  0.00  0.00    +0.000 NA
BRANCH   3  10
ATOM     10  C   UNL     1      43.771   3.719  11.331  0.00  0.00    +0.000 C 
BRANCH  10  11
ATOM     11  C   UNL     1      44.617   3.464  10.103  0.00  0.00    +0.000 A 
ATOM     12  C   UNL     1      45.027   2.170   9.766  0.00  0.00    +0.000 A 
ATOM     13  C   UNL     1      45.767   1.985   8.607  0.00  0.00    +0.000 A 
ATOM     14  N   UNL     1      46.119   2.981   7.768  0.00  0.00    +0.000 NA
ATOM     15  C   UNL     1      45.708   4.222   8.105  0.00  0.00    +0.000 A 
ATOM     16  C   UNL     1      44.965   4.508   9.240  0.00  0.00    +0.000 A 
ENDBRANCH  10  11
ENDBRANCH   3  10
ENDBRANCH   1   7
BRANCH   1  17
ATOM     17  N   UNL     1      48.850   6.671  15.363  0.00  0.00    +0.000 N 
ATOM     18  C   UNL     1      48.541   7.723  16.193  0.00  0.00    +0.000 C 
ATOM     19  O   UNL     1      48.220   8.821  15.745  0.00  0.00    +0.000 OA
ATOM     20  H   UNL     1      48.827   5.728  15.740  0.00  0.00    +0.000 HD
BRANCH  18  21
ATOM     21  C   UNL     1      48.711   7.499  17.635  0.00  0.00    +0.000 A 
ATOM     22  C   UNL     1      49.175   8.514  18.460  0.00  0.00    +0.000 A 
ATOM     23  S   UNL     1      49.640   7.960  20.009  0.00  0.00    +0.000 S 
ATOM     24  C   UNL     1      49.164   6.368  19.639  0.00  0.00    +0.000 A 
ATOM     25  N   UNL     1      49.403   5.331  20.486  0.00  0.00    +0.000 NA
ATOM     26  C   UNL     1      48.932   4.196  20.082  0.00  0.00    +0.000 A 
ATOM     27  N   UNL     1      48.194   4.016  18.940  0.00  0.00    +0.000 N 
ATOM     28  C   UNL     1      47.898   5.043  18.082  0.00  0.00    +0.000 A 
ATOM     29  O   UNL     1      47.141   4.896  17.127  0.00  0.00    +0.000 OA
ATOM     30  C   UNL     1      48.530   6.302  18.414  0.00  0.00    +0.000 A 
ATOM     31  H   UNL     1      47.778   3.120  18.727  0.00  0.00    +0.000 HD
ENDBRANCH  18  21
ENDBRANCH   1  17
TORSDOF 5
ENDMDL
MODEL 8
REMARK VINA RESULT:    -6.389      4.242      8.292
REMARK INTER + INTRA:          -8.992
REMARK INTER:                  -8.243
REMARK INTRA:                  -0.748
REMARK UNBOUND:                -0.735
REMARK  Name = 
REMARK  6 active torsions:
REMARK  status: ('A' for Active; 'I' for Inactive)
REMARK    1  A    between atoms: C_1  and  N_2
REMARK    2  A    between atoms: N_2  and  C_3
REMARK    3  A    between atoms: C_3  and  C_4
REMARK    4  A    between atoms: C_13  and  C_14
REMARK    5  A    between atoms: C_14  and  N_15
REMARK    6  A    between atoms: C_16  and  C_18
REMARK                            x       y       z     vdW  Elec       q    Type
REMARK                         _______ _______ _______ _____ _____    ______ ____
ROOT
ATOM      1  C   UNL     1      44.642   3.475  12.261  0.00  0.00    +0.000 C 
ENDROOT
BRANCH   1   7
ATOM      2  C   UNL     1      45.357   9.862  12.183  0.00  0.00    +0.000 C 
ATOM      3  N   UNL     1      46.295   8.833  12.574  0.00  0.00    +0.000 N 
ATOM      4  C   UNL     1      45.895   7.521  12.484  0.00  0.00    +0.000 A 
ATOM      5  N   UNL     1      44.661   7.240  12.020  0.00  0.00    +0.000 NA
ATOM      6  C   UNL     1      44.286   5.946  11.963  0.00  0.00    +0.000 A 
ATOM      7  C   UNL     1      45.088   4.894  12.339  0.00  0.00    +0.000 A 
ATOM      8  C   UNL     1      46.338   5.269  12.764  0.00  0.00    +0.000 A 
ATOM      9  N   UNL     1      46.747   6.547  12.853  0.00  0.00    +0.000 NA
BRANCH   3  10
ATOM     10  C   UNL     1      47.442   9.175  13.404  0.00  0.00    +0.000 C 
BRANCH  10  11
ATOM     11  C   UNL     1      48.681   9.410  12.567  0.00  0.00    +0.000 A 
ATOM     12  C   UNL     1      49.528   8.353  12.219  0.00  0.00    +0.000 A 
ATOM     13  C   UNL     1      50.628   8.616  11.416  0.00  0.00    +0.000 A 
ATOM     14  N   UNL     1      50.938   9.838  10.937  0.00  0.00    +0.000 NA
ATOM     15  C   UNL     1      50.106  10.845  11.277  0.00  0.00    +0.000 A 
ATOM     16  C   UNL     1      48.982  10.683  12.072  0.00  0.00    +0.000 A 
ENDBRANCH  10  11
ENDBRANCH   3  10
ENDBRANCH   1   7
BRANCH   1  17
ATOM     17  N   UNL     1      45.245   2.780  11.154  0.00  0.00    +0.000 N 
ATOM     18  C   UNL     1      44.707   2.865   9.891  0.00  0.00    +0.000 C 
ATOM     19  O   UNL     1      43.695   3.524   9.669  0.00  0.00    +0.000 OA
ATOM     20  H   UNL     1      46.211   2.481  11.254  0.00  0.00    +0.000 HD
BRANCH  18  21
ATOM     21  C   UNL     1      45.341   2.051   8.846  0.00  0.00    +0.000 A 
ATOM     22  C   UNL     1      45.093   0.688   8.762  0.00  0.00    +0.000 A 
ATOM     23  S   UNL     1      46.183  -0.130   7.728  0.00  0.00    +0.000 S 
ATOM     24  C   UNL     1      46.962   1.326   7.313  0.00  0.00    +0.000 A 
ATOM     25  N   UNL     1      48.088   1.347   6.551  0.00  0.00    +0.000 NA
ATOM     26  C   UNL     1      48.525   2.534   6.282  0.00  0.00    +0.000 A 
ATOM     27  N   UNL     1      47.907   3.700   6.656  0.00  0.00    +0.000 N 
ATOM     28  C   UNL     1      46.749   3.719   7.390  0.00  0.00    +0.000 A 
ATOM     29  O   UNL     1      46.142   4.762   7.619  0.00  0.00    +0.000 OA
ATOM     30  C   UNL     1      46.303   2.420   7.842  0.00  0.00    +0.000 A 
ATOM     31  H   UNL     1      48.250   4.595   6.337  0.00  0.00    +0.000 HD
ENDBRANCH  18  21
ENDBRANCH   1  17
TORSDOF 5
ENDMDL
