MODEL 1
REMARK VINA RESULT:    -6.658      0.000      0.000
REMARK INTER + INTRA:          -8.670
REMARK INTER:                  -8.215
REMARK INTRA:                  -0.455
REMARK UNBOUND:                -0.455
REMARK  Name = 
REMARK  5 active torsions:
REMARK  status: ('A' for Active; 'I' for Inactive)
REMARK    1  A    between atoms: C_1  and  O_2
REMARK    2  A    between atoms: O_2  and  C_3
REMARK    3  A    between atoms: C_5  and  C_6
REMARK    4  A    between atoms: N_13  and  C_14
REMARK    5  A    between atoms: C_14  and  C_15
REMARK                            x       y       z     vdW  Elec       q    Type
REMARK                         _______ _______ _______ _____ _____    ______ ____
ROOT
ATOM      1  C   UNL     1      45.629   3.708  12.709  0.00  0.00    +0.000 A 
ATOM      2  C   UNL     1      46.257   3.675  13.968  0.00  0.00    +0.000 A 
ATOM      3  C   UNL     1      47.030   4.730  14.457  0.00  0.00    +0.000 A 
ATOM      4  C   UNL     1      47.224   5.857  13.658  0.00  0.00    +0.000 A 
ATOM      5  C   UNL     1      46.663   5.906  12.363  0.00  0.00    +0.000 A 
ATOM      6  C   UNL     1      46.715   6.894  11.345  0.00  0.00    +0.000 A 
ATOM      7  C   UNL     1      45.995   6.428  10.276  0.00  0.00    +0.000 A 
ATOM      8  N   UNL     1      45.493   5.185  10.601  0.00  0.00    +0.000 N 
ATOM      9  C   UNL     1      45.878   4.834  11.893  0.00  0.00    +0.000 A 
ENDROOT
BRANCH   3  10
ATOM     10  C   UNL     1      47.592   4.581  15.831  0.00  0.00    +0.000 C 
ATOM     11  N   UNL     1      46.990   3.722  16.707  0.00  0.00    +0.000 N 
ATOM     12  O   UNL     1      48.587   5.205  16.186  0.00  0.00    +0.000 OA
ATOM     13  H   UNL     1      46.178   3.162  16.511  0.00  0.00    +0.000 HD
ATOM     14  H   UNL     1      47.410   3.650  17.626  0.00  0.00    +0.000 HD
ENDBRANCH   3  10
BRANCH   1  16
ATOM     15  C   UNL     1      43.420   2.894  12.455  0.00  0.00    +0.000 C 
ATOM     16  O   UNL     1      44.825   2.684  12.262  0.00  0.00    +0.000 OA
ENDBRANCH   1  16
BRANCH   8  17
ATOM     17  C   UNL     1      44.636   4.440   9.678  0.00  0.00    +0.000 C 
BRANCH  17  18
ATOM     18  C   UNL     1      45.408   3.473   8.834  0.00  0.00    +0.000 A 
ATOM     19  C   UNL     1      46.206   3.875   7.781  0.00  0.00    +0.000 A 
ATOM     20  N   UNL     1      46.931   3.033   7.015  0.00  0.00    +0.000 NA
ATOM     21  C   UNL     1      46.829   1.733   7.322  0.00  0.00    +0.000 A 
ATOM     22  N   UNL     1      46.095   1.217   8.321  0.00  0.00    +0.000 NA
ATOM     23  C   UNL     1      45.399   2.108   9.058  0.00  0.00    +0.000 A 
ENDBRANCH  17  18
ENDBRANCH   8  17
TORSDOF 4
ENDMDL
MODEL 2
REMARK VINA RESULT:    -6.546      2.325      3.198
REMARK INTER + INTRA:          -8.532
REMARK INTER:                  -7.931
REMARK INTRA:                  -0.601
REMARK UNBOUND:                -0.455
REMARK  Name = 
REMARK  5 active torsions:
REMARK  status: ('A' for Active; 'I' for Inactive)
REMARK    1  A    between atoms: C_1  and  O_2
REMARK    2  A    between atoms: O_2  and  C_3
REMARK    3  A    between atoms: C_5  and  C_6
REMARK    4  A    between atoms: N_13  and  C_14
REMARK    5  A    between atoms: C_14  and  C_15
REMARK                            x       y       z     vdW  Elec       q    Type
REMARK                         _______ _______ _______ _____ _____    ______ ____
ROOT
ATOM      1  C   UNL     1      45.832   6.926  12.229  0.00  0.00    +0.000 A 
ATOM      2  C   UNL     1      46.581   7.867  12.962  0.00  0.00    +0.000 A 
ATOM      3  C   UNL     1      47.510   7.500  13.938  0.00  0.00    +0.000 A 
ATOM      4  C   UNL     1      47.686   6.149  14.235  0.00  0.00    +0.000 A 
ATOM      5  C   UNL     1      46.910   5.175  13.568  0.00  0.00    +0.000 A 
ATOM      6  C   UNL     1      46.863   3.761  13.682  0.00  0.00    +0.000 A 
ATOM      7  C   UNL     1      45.921   3.304  12.798  0.00  0.00    +0.000 A 
ATOM      8  N   UNL     1      45.388   4.389  12.134  0.00  0.00    +0.000 N 
ATOM      9  C   UNL     1      45.986   5.566  12.578  0.00  0.00    +0.000 A 
ENDROOT
BRANCH   3  10
ATOM     10  C   UNL     1      48.272   8.601  14.597  0.00  0.00    +0.000 C 
ATOM     11  N   UNL     1      47.668   9.335  15.578  0.00  0.00    +0.000 N 
ATOM     12  O   UNL     1      49.432   8.851  14.284  0.00  0.00    +0.000 OA
ATOM     13  H   UNL     1      46.728   9.204  15.911  0.00  0.00    +0.000 HD
ATOM     14  H   UNL     1      48.226  10.067  16.000  0.00  0.00    +0.000 HD
ENDBRANCH   3  10
BRANCH   1  16
ATOM     15  C   UNL     1      44.489   8.650  11.317  0.00  0.00    +0.000 C 
ATOM     16  O   UNL     1      44.960   7.298  11.232  0.00  0.00    +0.000 OA
ENDBRANCH   1  16
BRANCH   8  17
ATOM     17  C   UNL     1      44.382   4.226  11.084  0.00  0.00    +0.000 C 
BRANCH  17  18
ATOM     18  C   UNL     1      44.981   3.807   9.776  0.00  0.00    +0.000 A 
ATOM     19  C   UNL     1      45.527   4.709   8.885  0.00  0.00    +0.000 A 
ATOM     20  N   UNL     1      46.094   4.365   7.709  0.00  0.00    +0.000 NA
ATOM     21  C   UNL     1      46.092   3.056   7.424  0.00  0.00    +0.000 A 
ATOM     22  N   UNL     1      45.599   2.082   8.206  0.00  0.00    +0.000 NA
ATOM     23  C   UNL     1      45.053   2.487   9.372  0.00  0.00    +0.000 A 
ENDBRANCH  17  18
ENDBRANCH   8  17
TORSDOF 4
ENDMDL
MODEL 3
REMARK VINA RESULT:    -6.051      3.063      5.894
REMARK INTER + INTRA:          -7.920
REMARK INTER:                  -7.256
REMARK INTRA:                  -0.665
REMARK UNBOUND:                -0.455
REMARK  Name = 
REMARK  5 active torsions:
REMARK  status: ('A' for Active; 'I' for Inactive)
REMARK    1  A    between atoms: C_1  and  O_2
REMARK    2  A    between atoms: O_2  and  C_3
REMARK    3  A    between atoms: C_5  and  C_6
REMARK    4  A    between atoms: N_13  and  C_14
REMARK    5  A    between atoms: C_14  and  C_15
REMARK                            x       y       z     vdW  Elec       q    Type
REMARK                         _______ _______ _______ _____ _____    ______ ____
ROOT
ATOM      1  C   UNL     1      46.408   5.035  12.964  0.00  0.00    +0.000 A 
ATOM      2  C   UNL     1      45.654   3.949  12.481  0.00  0.00    +0.000 A 
ATOM      3  C   UNL     1      44.594   4.102  11.584  0.00  0.00    +0.000 A 
ATOM      4  C   UNL     1      44.236   5.384  11.169  0.00  0.00    +0.000 A 
ATOM      5  C   UNL     1      44.925   6.507  11.677  0.00  0.00    +0.000 A 
ATOM      6  C   UNL     1      44.764   7.899  11.452  0.00  0.00    +0.000 A 
ATOM      7  C   UNL     1      45.703   8.554  12.206  0.00  0.00    +0.000 A 
ATOM      8  N   UNL     1      46.445   7.611  12.886  0.00  0.00    +0.000 N 
ATOM      9  C   UNL     1      45.999   6.329  12.574  0.00  0.00    +0.000 A 
ENDROOT
BRANCH   3  10
ATOM     10  C   UNL     1      43.918   2.857  11.114  0.00  0.00    +0.000 C 
ATOM     11  N   UNL     1      44.389   2.225   9.998  0.00  0.00    +0.000 N 
ATOM     12  O   UNL     1      42.957   2.387  11.713  0.00  0.00    +0.000 OA
ATOM     13  H   UNL     1      45.173   2.525   9.443  0.00  0.00    +0.000 HD
ATOM     14  H   UNL     1      43.902   1.382   9.720  0.00  0.00    +0.000 HD
ENDBRANCH   3  10
BRANCH   1  16
ATOM     15  C   UNL     1      47.154   4.385  15.115  0.00  0.00    +0.000 C 
ATOM     16  O   UNL     1      47.484   4.866  13.805  0.00  0.00    +0.000 OA
ENDBRANCH   1  16
BRANCH   8  17
ATOM     17  C   UNL     1      47.565   7.994  13.747  0.00  0.00    +0.000 C 
BRANCH  17  18
ATOM     18  C   UNL     1      48.795   8.345  12.968  0.00  0.00    +0.000 A 
ATOM     19  C   UNL     1      49.457   7.431  12.172  0.00  0.00    +0.000 A 
ATOM     20  N   UNL     1      50.555   7.719  11.440  0.00  0.00    +0.000 NA
ATOM     21  C   UNL     1      51.001   8.979  11.532  0.00  0.00    +0.000 A 
ATOM     22  N   UNL     1      50.445   9.958  12.262  0.00  0.00    +0.000 NA
ATOM     23  C   UNL     1      49.346   9.613  12.966  0.00  0.00    +0.000 A 
ENDBRANCH  17  18
ENDBRANCH   8  17
TORSDOF 4
ENDMDL
MODEL 4
REMARK VINA RESULT:    -5.735      2.224      2.755
REMARK INTER + INTRA:          -7.531
REMARK INTER:                  -7.090
REMARK INTRA:                  -0.440
REMARK UNBOUND:                -0.455
REMARK  Name = 
REMARK  5 active torsions:
REMARK  status: ('A' for Active; 'I' for Inactive)
REMARK    1  A    between atoms: C_1  and  O_2
REMARK    2  A    between atoms: O_2  and  C_3
REMARK    3  A    between atoms: C_5  and  C_6
REMARK    4  A    between atoms: N_13  and  C_14
REMARK    5  A    between atoms: C_14  and  C_15
REMARK                            x       y       z     vdW  Elec       q    Type
REMARK                         _______ _______ _______ _____ _____    ______ ____
ROOT
ATOM      1  C   UNL     1      46.758   5.561  13.161  0.00  0.00    +0.000 A 
ATOM      2  C   UNL     1      47.853   6.207  13.765  0.00  0.00    +0.000 A 
ATOM      3  C   UNL     1      47.993   7.597  13.789  0.00  0.00    +0.000 A 
ATOM      4  C   UNL     1      47.031   8.387  13.161  0.00  0.00    +0.000 A 
ATOM      5  C   UNL     1      45.949   7.777  12.490  0.00  0.00    +0.000 A 
ATOM      6  C   UNL     1      44.858   8.322  11.762  0.00  0.00    +0.000 A 
ATOM      7  C   UNL     1      44.096   7.275  11.310  0.00  0.00    +0.000 A 
ATOM      8  N   UNL     1      44.675   6.101  11.742  0.00  0.00    +0.000 N 
ATOM      9  C   UNL     1      45.821   6.374  12.486  0.00  0.00    +0.000 A 
ENDROOT
BRANCH   3  10
ATOM     10  C   UNL     1      49.177   8.148  14.512  0.00  0.00    +0.000 C 
ATOM     11  N   UNL     1      50.001   7.293  15.187  0.00  0.00    +0.000 N 
ATOM     12  O   UNL     1      49.429   9.348  14.502  0.00  0.00    +0.000 OA
ATOM     13  H   UNL     1      49.885   6.295  15.249  0.00  0.00    +0.000 HD
ATOM     14  H   UNL     1      50.794   7.711  15.658  0.00  0.00    +0.000 HD
ENDBRANCH   3  10
BRANCH   1  16
ATOM     15  C   UNL     1      47.124   3.556  14.366  0.00  0.00    +0.000 C 
ATOM     16  O   UNL     1      46.604   4.194  13.191  0.00  0.00    +0.000 OA
ENDBRANCH   1  16
BRANCH   8  17
ATOM     17  C   UNL     1      44.069   4.799  11.459  0.00  0.00    +0.000 C 
BRANCH  17  18
ATOM     18  C   UNL     1      44.631   4.159  10.227  0.00  0.00    +0.000 A 
ATOM     19  C   UNL     1      45.303   4.876   9.256  0.00  0.00    +0.000 A 
ATOM     20  N   UNL     1      45.840   4.329   8.146  0.00  0.00    +0.000 NA
ATOM     21  C   UNL     1      45.677   3.006   8.012  0.00  0.00    +0.000 A 
ATOM     22  N   UNL     1      45.052   2.199   8.884  0.00  0.00    +0.000 NA
ATOM     23  C   UNL     1      44.543   2.802   9.979  0.00  0.00    +0.000 A 
ENDBRANCH  17  18
ENDBRANCH   8  17
TORSDOF 4
ENDMDL
MODEL 5
REMARK VINA RESULT:    -5.629      3.224      6.148
REMARK INTER + INTRA:          -7.401
REMARK INTER:                  -6.744
REMARK INTRA:                  -0.657
REMARK UNBOUND:                -0.455
REMARK  Name = 
REMARK  5 active torsions:
REMARK  status: ('A' for Active; 'I' for Inactive)
REMARK    1  A    between atoms: C_1  and  O_2
REMARK    2  A    between atoms: O_2  and  C_3
REMARK    3  A    between atoms: C_5  and  C_6
REMARK    4  A    between atoms: N_13  and  C_14
REMARK    5  A    between atoms: C_14  and  C_15
REMARK                            x       y       z     vdW  Elec       q    Type
REMARK                         _______ _______ _______ _____ _____    ______ ____
ROOT
ATOM      1  C   UNL     1      45.935   6.123  11.873  0.00  0.00    +0.000 A 
ATOM      2  C   UNL     1      45.196   5.131  11.201  0.00  0.00    +0.000 A 
ATOM      3  C   UNL     1      45.052   3.831  11.690  0.00  0.00    +0.000 A 
ATOM      4  C   UNL     1      45.692   3.478  12.878  0.00  0.00    +0.000 A 
ATOM      5  C   UNL     1      46.495   4.424  13.553  0.00  0.00    +0.000 A 
ATOM      6  C   UNL     1      47.264   4.336  14.742  0.00  0.00    +0.000 A 
ATOM      7  C   UNL     1      47.856   5.556  14.945  0.00  0.00    +0.000 A 
ATOM      8  N   UNL     1      47.473   6.399  13.923  0.00  0.00    +0.000 N 
ATOM      9  C   UNL     1      46.619   5.734  13.046  0.00  0.00    +0.000 A 
ENDROOT
BRANCH   3  10
ATOM     10  C   UNL     1      44.195   2.899  10.901  0.00  0.00    +0.000 C 
ATOM     11  N   UNL     1      44.729   2.259   9.819  0.00  0.00    +0.000 N 
ATOM     12  O   UNL     1      43.026   2.689  11.211  0.00  0.00    +0.000 OA
ATOM     13  H   UNL     1      45.674   2.357   9.489  0.00  0.00    +0.000 HD
ATOM     14  H   UNL     1      44.111   1.632   9.317  0.00  0.00    +0.000 HD
ENDBRANCH   3  10
BRANCH   1  16
ATOM     15  C   UNL     1      44.886   8.237  11.694  0.00  0.00    +0.000 C 
ATOM     16  O   UNL     1      46.025   7.415  11.407  0.00  0.00    +0.000 OA
ENDBRANCH   1  16
BRANCH   8  17
ATOM     17  C   UNL     1      47.904   7.796  13.880  0.00  0.00    +0.000 C 
BRANCH  17  18
ATOM     18  C   UNL     1      49.243   7.964  13.230  0.00  0.00    +0.000 A 
ATOM     19  C   UNL     1      49.444   7.768  11.878  0.00  0.00    +0.000 A 
ATOM     20  N   UNL     1      50.631   7.930  11.257  0.00  0.00    +0.000 NA
ATOM     21  C   UNL     1      51.654   8.293  12.043  0.00  0.00    +0.000 A 
ATOM     22  N   UNL     1      51.588   8.520  13.364  0.00  0.00    +0.000 NA
ATOM     23  C   UNL     1      50.373   8.350  13.928  0.00  0.00    +0.000 A 
ENDBRANCH  17  18
ENDBRANCH   8  17
TORSDOF 4
ENDMDL
MODEL 6
REMARK VINA RESULT:    -5.596      3.034      7.142
REMARK INTER + INTRA:          -7.359
REMARK INTER:                  -6.831
REMARK INTRA:                  -0.529
REMARK UNBOUND:                -0.455
REMARK  Name = 
REMARK  5 active torsions:
REMARK  status: ('A' for Active; 'I' for Inactive)
REMARK    1  A    between atoms: C_1  and  O_2
REMARK    2  A    between atoms: O_2  and  C_3
REMARK    3  A    between atoms: C_5  and  C_6
REMARK    4  A    between atoms: N_13  and  C_14
REMARK    5  A    between atoms: C_14  and  C_15
REMARK                            x       y       z     vdW  Elec       q    Type
REMARK                         _______ _______ _______ _____ _____    ______ ____
ROOT
ATOM      1  C   UNL     1      47.287   5.139  14.200  0.00  0.00    +0.000 A 
ATOM      2  C   UNL     1      46.191   4.434  13.668  0.00  0.00    +0.000 A 
ATOM      3  C   UNL     1      45.593   4.770  12.452  0.00  0.00    +0.000 A 
ATOM      4  C   UNL     1      46.072   5.870  11.740  0.00  0.00    +0.000 A 
ATOM      5  C   UNL     1      47.129   6.643  12.268  0.00  0.00    +0.000 A 
ATOM      6  C   UNL     1      47.788   7.803  11.783  0.00  0.00    +0.000 A 
ATOM      7  C   UNL     1      48.748   8.149  12.699  0.00  0.00    +0.000 A 
ATOM      8  N   UNL     1      48.710   7.236  13.732  0.00  0.00    +0.000 N 
ATOM      9  C   UNL     1      47.725   6.280  13.493  0.00  0.00    +0.000 A 
ENDROOT
BRANCH   3  10
ATOM     10  C   UNL     1      44.474   3.901  11.982  0.00  0.00    +0.000 C 
ATOM     11  N   UNL     1      44.367   2.630  12.471  0.00  0.00    +0.000 N 
ATOM     12  O   UNL     1      43.644   4.310  11.177  0.00  0.00    +0.000 OA
ATOM     13  H   UNL     1      44.990   2.206  13.138  0.00  0.00    +0.000 HD
ATOM     14  H   UNL     1      43.589   2.080  12.129  0.00  0.00    +0.000 HD
ENDBRANCH   3  10
BRANCH   1  16
ATOM     15  C   UNL     1      47.132   3.882  16.201  0.00  0.00    +0.000 C 
ATOM     16  O   UNL     1      47.901   4.765  15.374  0.00  0.00    +0.000 OA
ENDBRANCH   1  16
BRANCH   8  17
ATOM     17  C   UNL     1      49.650   7.307  14.851  0.00  0.00    +0.000 C 
BRANCH  17  18
ATOM     18  C   UNL     1      49.032   7.891  16.084  0.00  0.00    +0.000 A 
ATOM     19  C   UNL     1      49.034   7.237  17.299  0.00  0.00    +0.000 A 
ATOM     20  N   UNL     1      48.506   7.742  18.434  0.00  0.00    +0.000 NA
ATOM     21  C   UNL     1      47.943   8.953  18.324  0.00  0.00    +0.000 A 
ATOM     22  N   UNL     1      47.882   9.692  17.205  0.00  0.00    +0.000 NA
ATOM     23  C   UNL     1      48.434   9.138  16.105  0.00  0.00    +0.000 A 
ENDBRANCH  17  18
ENDBRANCH   8  17
TORSDOF 4
ENDMDL
MODEL 7
REMARK VINA RESULT:    -5.416      4.124      5.510
REMARK INTER + INTRA:          -7.138
REMARK INTER:                  -6.452
REMARK INTRA:                  -0.686
REMARK UNBOUND:                -0.455
REMARK  Name = 
REMARK  5 active torsions:
REMARK  status: ('A' for Active; 'I' for Inactive)
REMARK    1  A    between atoms: C_1  and  O_2
REMARK    2  A    between atoms: O_2  and  C_3
REMARK    3  A    between atoms: C_5  and  C_6
REMARK    4  A    between atoms: N_13  and  C_14
REMARK    5  A    between atoms: C_14  and  C_15
REMARK                            x       y       z     vdW  Elec       q    Type
REMARK                         _______ _______ _______ _____ _____    ______ ____
ROOT
ATOM      1  C   UNL     1      47.294   5.275  14.237  0.00  0.00    +0.000 A 
ATOM      2  C   UNL     1      47.113   4.379  15.307  0.00  0.00    +0.000 A 
ATOM      3  C   UNL     1      47.729   4.550  16.549  0.00  0.00    +0.000 A 
ATOM      4  C   UNL     1      48.589   5.632  16.738  0.00  0.00    +0.000 A 
ATOM      5  C   UNL     1      48.847   6.519  15.671  0.00  0.00    +0.000 A 
ATOM      6  C   UNL     1      49.677   7.667  15.574  0.00  0.00    +0.000 A 
ATOM      7  C   UNL     1      49.560   8.157  14.299  0.00  0.00    +0.000 A 
ATOM      8  N   UNL     1      48.679   7.355  13.605  0.00  0.00    +0.000 N 
ATOM      9  C   UNL     1      48.207   6.335  14.428  0.00  0.00    +0.000 A 
ENDROOT
BRANCH   3  10
ATOM     10  C   UNL     1      47.404   3.552  17.611  0.00  0.00    +0.000 C 
ATOM     11  N   UNL     1      48.178   3.502  18.736  0.00  0.00    +0.000 N 
ATOM     12  O   UNL     1      46.452   2.787  17.499  0.00  0.00    +0.000 OA
ATOM     13  H   UNL     1      48.973   4.089  18.926  0.00  0.00    +0.000 HD
ATOM     14  H   UNL     1      47.917   2.813  19.431  0.00  0.00    +0.000 HD
ENDBRANCH   3  10
BRANCH   1  16
ATOM     15  C   UNL     1      45.214   5.001  13.138  0.00  0.00    +0.000 C 
ATOM     16  O   UNL     1      46.639   5.125  13.035  0.00  0.00    +0.000 OA
ENDBRANCH   1  16
BRANCH   8  17
ATOM     17  C   UNL     1      48.306   7.645  12.221  0.00  0.00    +0.000 C 
BRANCH  17  18
ATOM     18  C   UNL     1      47.307   8.757  12.117  0.00  0.00    +0.000 A 
ATOM     19  C   UNL     1      47.655  10.037  11.732  0.00  0.00    +0.000 A 
ATOM     20  N   UNL     1      46.778  11.056  11.607  0.00  0.00    +0.000 NA
ATOM     21  C   UNL     1      45.503  10.765  11.898  0.00  0.00    +0.000 A 
ATOM     22  N   UNL     1      45.038   9.564  12.276  0.00  0.00    +0.000 NA
ATOM     23  C   UNL     1      45.960   8.582  12.375  0.00  0.00    +0.000 A 
ENDBRANCH  17  18
ENDBRANCH   8  17
TORSDOF 4
ENDMDL
MODEL 8
REMARK VINA RESULT:    -5.328      3.174      4.414
REMARK INTER + INTRA:          -7.030
REMARK INTER:                  -7.212
REMARK INTRA:                   0.182
REMARK UNBOUND:                -0.455
REMARK  Name = 
REMARK  5 active torsions:
REMARK  status: ('A' for Active; 'I' for Inactive)
REMARK    1  A    between atoms: C_1  and  O_2
REMARK    2  A    between atoms: O_2  and  C_3
REMARK    3  A    between atoms: C_5  and  C_6
REMARK    4  A    between atoms: N_13  and  C_14
REMARK    5  A    between atoms: C_14  and  C_15
REMARK                            x       y       z     vdW  Elec       q    Type
REMARK                         _______ _______ _______ _____ _____    ______ ____
ROOT
ATOM      1  C   UNL     1      44.278   7.086  11.416  0.00  0.00    +0.000 A 
ATOM      2  C   UNL     1      44.237   8.493  11.425  0.00  0.00    +0.000 A 
ATOM      3  C   UNL     1      45.270   9.277  11.944  0.00  0.00    +0.000 A 
ATOM      4  C   UNL     1      46.379   8.650  12.513  0.00  0.00    +0.000 A 
ATOM      5  C   UNL     1      46.432   7.241  12.581  0.00  0.00    +0.000 A 
ATOM      6  C   UNL     1      47.404   6.354  13.112  0.00  0.00    +0.000 A 
ATOM      7  C   UNL     1      46.951   5.075  12.918  0.00  0.00    +0.000 A 
ATOM      8  N   UNL     1      45.733   5.140  12.277  0.00  0.00    +0.000 N 
ATOM      9  C   UNL     1      45.383   6.468  12.041  0.00  0.00    +0.000 A 
ENDROOT
BRANCH   3  10
ATOM     10  C   UNL     1      45.117  10.758  11.839  0.00  0.00    +0.000 C 
ATOM     11  N   UNL     1      46.200  11.515  11.491  0.00  0.00    +0.000 N 
ATOM     12  O   UNL     1      44.040  11.305  12.047  0.00  0.00    +0.000 OA
ATOM     13  H   UNL     1      47.121  11.162  11.293  0.00  0.00    +0.000 HD
ATOM     14  H   UNL     1      46.047  12.514  11.426  0.00  0.00    +0.000 HD
ENDBRANCH   3  10
BRANCH   1  16
ATOM     15  C   UNL     1      42.271   5.881  11.769  0.00  0.00    +0.000 C 
ATOM     16  O   UNL     1      43.279   6.326  10.852  0.00  0.00    +0.000 OA
ENDBRANCH   1  16
BRANCH   8  17
ATOM     17  C   UNL     1      45.008   3.931  11.885  0.00  0.00    +0.000 C 
BRANCH  17  18
ATOM     18  C   UNL     1      45.060   3.684  10.409  0.00  0.00    +0.000 A 
ATOM     19  C   UNL     1      44.514   2.559   9.822  0.00  0.00    +0.000 A 
ATOM     20  N   UNL     1      44.524   2.315   8.495  0.00  0.00    +0.000 NA
ATOM     21  C   UNL     1      45.123   3.244   7.738  0.00  0.00    +0.000 A 
ATOM     22  N   UNL     1      45.683   4.379   8.184  0.00  0.00    +0.000 NA
ATOM     23  C   UNL     1      45.635   4.572   9.519  0.00  0.00    +0.000 A 
ENDBRANCH  17  18
ENDBRANCH   8  17
TORSDOF 4
ENDMDL
MODEL 9
REMARK VINA RESULT:    -4.945      3.178      7.993
REMARK INTER + INTRA:          -6.557
REMARK INTER:                  -5.936
REMARK INTRA:                  -0.621
REMARK UNBOUND:                -0.455
REMARK  Name = 
REMARK  5 active torsions:
REMARK  status: ('A' for Active; 'I' for Inactive)
REMARK    1  A    between atoms: C_1  and  O_2
REMARK    2  A    between atoms: O_2  and  C_3
REMARK    3  A    between atoms: C_5  and  C_6
REMARK    4  A    between atoms: N_13  and  C_14
REMARK    5  A    between atoms: C_14  and  C_15
REMARK                            x       y       z     vdW  Elec       q    Type
REMARK                         _______ _______ _______ _____ _____    ______ ____
ROOT
ATOM      1  C   UNL     1      47.798   6.682  13.494  0.00  0.00    +0.000 A 
ATOM      2  C   UNL     1      46.985   6.307  12.408  0.00  0.00    +0.000 A 
ATOM      3  C   UNL     1      46.142   5.194  12.443  0.00  0.00    +0.000 A 
ATOM      4  C   UNL     1      46.123   4.391  13.583  0.00  0.00    +0.000 A 
ATOM      5  C   UNL     1      46.970   4.696  14.671  0.00  0.00    +0.000 A 
ATOM      6  C   UNL     1      47.172   4.055  15.922  0.00  0.00    +0.000 A 
ATOM      7  C   UNL     1      48.120   4.771  16.607  0.00  0.00    +0.000 A 
ATOM      8  N   UNL     1      48.506   5.838  15.824  0.00  0.00    +0.000 N 
ATOM      9  C   UNL     1      47.805   5.830  14.620  0.00  0.00    +0.000 A 
ENDROOT
BRANCH   3  10
ATOM     10  C   UNL     1      45.295   4.946  11.239  0.00  0.00    +0.000 C 
ATOM     11  N   UNL     1      45.202   5.913  10.279  0.00  0.00    +0.000 N 
ATOM     12  O   UNL     1      44.690   3.889  11.091  0.00  0.00    +0.000 OA
ATOM     13  H   UNL     1      45.663   6.807  10.304  0.00  0.00    +0.000 HD
ATOM     14  H   UNL     1      44.620   5.698   9.479  0.00  0.00    +0.000 HD
ENDBRANCH   3  10
BRANCH   1  16
ATOM     15  C   UNL     1      49.722   7.733  12.600  0.00  0.00    +0.000 C 
ATOM     16  O   UNL     1      48.583   7.812  13.467  0.00  0.00    +0.000 OA
ENDBRANCH   1  16
BRANCH   8  17
ATOM     17  C   UNL     1      49.478   6.823  16.298  0.00  0.00    +0.000 C 
BRANCH  17  18
ATOM     18  C   UNL     1      48.861   7.856  17.190  0.00  0.00    +0.000 A 
ATOM     19  C   UNL     1      48.376   9.057  16.713  0.00  0.00    +0.000 A 
ATOM     20  N   UNL     1      47.795  10.000  17.485  0.00  0.00    +0.000 NA
ATOM     21  C   UNL     1      47.716   9.715  18.791  0.00  0.00    +0.000 A 
ATOM     22  N   UNL     1      48.143   8.585  19.376  0.00  0.00    +0.000 NA
ATOM     23  C   UNL     1      48.708   7.676  18.553  0.00  0.00    +0.000 A 
ENDBRANCH  17  18
ENDBRANCH   8  17
TORSDOF 4
ENDMDL
