MODEL 1
REMARK VINA RESULT:    -7.996      0.000      0.000
REMARK INTER + INTRA:         -10.341
REMARK INTER:                  -9.865
REMARK INTRA:                  -0.476
REMARK UNBOUND:                -0.476
REMARK  Name = 
REMARK  5 active torsions:
REMARK  status: ('A' for Active; 'I' for Inactive)
REMARK    1  A    between atoms: C_1  and  C_2
REMARK    2  A    between atoms: C_2  and  C_3
REMARK    3  A    between atoms: C_2  and  C_14
REMARK    4  A    between atoms: C_3  and  N_4
REMARK    5  A    between atoms: C_8  and  C_9
REMARK                            x       y       z     vdW  Elec       q    Type
REMARK                         _______ _______ _______ _____ _____    ______ ____
ROOT
ATOM      1  N   UNL     1      43.771   4.575   9.676  0.00  0.00    +0.000 N 
ATOM      2  C   UNL     1      44.751   3.891   8.975  0.00  0.00    +0.000 A 
ATOM      3  N   UNL     1      44.867   2.561   9.111  0.00  0.00    +0.000 NA
ATOM      4  C   UNL     1      45.849   1.953   8.420  0.00  0.00    +0.000 A 
ATOM      5  C   UNL     1      46.713   2.615   7.581  0.00  0.00    +0.000 A 
ATOM      6  C   UNL     1      46.521   3.975   7.509  0.00  0.00    +0.000 A 
ATOM      7  N   UNL     1      45.554   4.631   8.192  0.00  0.00    +0.000 NA
ATOM      8  H   UNL     1      44.079   5.538   9.746  0.00  0.00    +0.000 HD
ENDROOT
BRANCH   5   9
ATOM      9  C   UNL     1      47.769   1.874   6.882  0.00  0.00    +0.000 C 
ATOM     10  N   UNL     1      48.683   2.582   6.155  0.00  0.00    +0.000 N 
ATOM     11  O   UNL     1      47.811   0.652   6.925  0.00  0.00    +0.000 OA
ATOM     12  H   UNL     1      48.562   3.549   5.886  0.00  0.00    +0.000 HD
ATOM     13  H   UNL     1      49.333   2.029   5.607  0.00  0.00    +0.000 HD
ENDBRANCH   5   9
BRANCH   1  14
ATOM     14  C   UNL     1      43.423   3.957  10.939  0.00  0.00    +0.000 C 
BRANCH  14  16
ATOM     15  C   UNL     1      42.239   5.980  11.988  0.00  0.00    +0.000 C 
ATOM     16  C   UNL     1      43.403   5.041  11.976  0.00  0.00    +0.000 C 
BRANCH  16  17
ATOM     17  C   UNL     1      44.682   5.439  12.578  0.00  0.00    +0.000 A 
ATOM     18  C   UNL     1      45.462   4.511  13.277  0.00  0.00    +0.000 A 
ATOM     19  C   UNL     1      46.723   4.870  13.763  0.00  0.00    +0.000 A 
ATOM     20  C   UNL     1      47.210   6.157  13.552  0.00  0.00    +0.000 A 
ATOM     21  C   UNL     1      46.431   7.095  12.878  0.00  0.00    +0.000 A 
ATOM     22  C   UNL     1      45.167   6.740  12.403  0.00  0.00    +0.000 A 
ENDBRANCH  16  17
ENDBRANCH  14  16
ENDBRANCH   1  14
TORSDOF 4
ENDMDL
MODEL 2
REMARK VINA RESULT:    -7.867      1.339      2.096
REMARK INTER + INTRA:         -10.183
REMARK INTER:                  -9.747
REMARK INTRA:                  -0.435
REMARK UNBOUND:                -0.476
REMARK  Name = 
REMARK  5 active torsions:
REMARK  status: ('A' for Active; 'I' for Inactive)
REMARK    1  A    between atoms: C_1  and  C_2
REMARK    2  A    between atoms: C_2  and  C_3
REMARK    3  A    between atoms: C_2  and  C_14
REMARK    4  A    between atoms: C_3  and  N_4
REMARK    5  A    between atoms: C_8  and  C_9
REMARK                            x       y       z     vdW  Elec       q    Type
REMARK                         _______ _______ _______ _____ _____    ______ ____
ROOT
ATOM      1  N   UNL     1      44.219   5.140   9.781  0.00  0.00    +0.000 N 
ATOM      2  C   UNL     1      44.910   4.119   9.150  0.00  0.00    +0.000 A 
ATOM      3  N   UNL     1      44.751   2.851   9.558  0.00  0.00    +0.000 NA
ATOM      4  C   UNL     1      45.462   1.903   8.920  0.00  0.00    +0.000 A 
ATOM      5  C   UNL     1      46.315   2.165   7.875  0.00  0.00    +0.000 A 
ATOM      6  C   UNL     1      46.416   3.492   7.529  0.00  0.00    +0.000 A 
ATOM      7  N   UNL     1      45.729   4.481   8.148  0.00  0.00    +0.000 NA
ATOM      8  H   UNL     1      44.737   5.995   9.609  0.00  0.00    +0.000 HD
ENDROOT
BRANCH   5   9
ATOM      9  C   UNL     1      47.067   1.071   7.249  0.00  0.00    +0.000 C 
ATOM     10  N   UNL     1      46.799  -0.208   7.645  0.00  0.00    +0.000 N 
ATOM     11  O   UNL     1      47.933   1.302   6.416  0.00  0.00    +0.000 OA
ATOM     12  H   UNL     1      46.282  -0.442   8.483  0.00  0.00    +0.000 HD
ATOM     13  H   UNL     1      47.407  -0.923   7.264  0.00  0.00    +0.000 HD
ENDBRANCH   5   9
BRANCH   1  14
ATOM     14  C   UNL     1      43.937   4.873  11.177  0.00  0.00    +0.000 C 
BRANCH  14  16
ATOM     15  C   UNL     1      45.594   3.965  12.916  0.00  0.00    +0.000 C 
ATOM     16  C   UNL     1      45.225   5.029  11.931  0.00  0.00    +0.000 C 
BRANCH  16  17
ATOM     17  C   UNL     1      45.794   6.377  12.048  0.00  0.00    +0.000 A 
ATOM     18  C   UNL     1      45.008   7.448  12.488  0.00  0.00    +0.000 A 
ATOM     19  C   UNL     1      45.579   8.708  12.691  0.00  0.00    +0.000 A 
ATOM     20  C   UNL     1      46.938   8.902  12.459  0.00  0.00    +0.000 A 
ATOM     21  C   UNL     1      47.724   7.847  12.000  0.00  0.00    +0.000 A 
ATOM     22  C   UNL     1      47.151   6.593  11.785  0.00  0.00    +0.000 A 
ENDBRANCH  16  17
ENDBRANCH  14  16
ENDBRANCH   1  14
TORSDOF 4
ENDMDL
MODEL 3
REMARK VINA RESULT:    -7.440      2.969      6.317
REMARK INTER + INTRA:          -9.656
REMARK INTER:                  -9.244
REMARK INTRA:                  -0.412
REMARK UNBOUND:                -0.476
REMARK  Name = 
REMARK  5 active torsions:
REMARK  status: ('A' for Active; 'I' for Inactive)
REMARK    1  A    between atoms: C_1  and  C_2
REMARK    2  A    between atoms: C_2  and  C_3
REMARK    3  A    between atoms: C_2  and  C_14
REMARK    4  A    between atoms: C_3  and  N_4
REMARK    5  A    between atoms: C_8  and  C_9
REMARK                            x       y       z     vdW  Elec       q    Type
REMARK                         _______ _______ _______ _____ _____    ______ ____
ROOT
ATOM      1  N   UNL     1      43.929   4.532  10.504  0.00  0.00    +0.000 N 
ATOM      2  C   UNL     1      44.877   5.124  11.322  0.00  0.00    +0.000 A 
ATOM      3  N   UNL     1      45.724   6.032  10.815  0.00  0.00    +0.000 NA
ATOM      4  C   UNL     1      46.637   6.560  11.652  0.00  0.00    +0.000 A 
ATOM      5  C   UNL     1      46.728   6.233  12.983  0.00  0.00    +0.000 A 
ATOM      6  C   UNL     1      45.822   5.291  13.411  0.00  0.00    +0.000 A 
ATOM      7  N   UNL     1      44.894   4.725  12.605  0.00  0.00    +0.000 NA
ATOM      8  H   UNL     1      43.673   3.653  10.940  0.00  0.00    +0.000 HD
ENDROOT
BRANCH   5   9
ATOM      9  C   UNL     1      47.768   6.844  13.820  0.00  0.00    +0.000 C 
ATOM     10  N   UNL     1      47.536   8.087  14.335  0.00  0.00    +0.000 N 
ATOM     11  O   UNL     1      48.827   6.265  14.025  0.00  0.00    +0.000 OA
ATOM     12  H   UNL     1      46.804   8.704  14.011  0.00  0.00    +0.000 HD
ATOM     13  H   UNL     1      48.317   8.513  14.822  0.00  0.00    +0.000 HD
ENDBRANCH   5   9
BRANCH   1  14
ATOM     14  C   UNL     1      44.342   4.423   9.120  0.00  0.00    +0.000 C 
BRANCH  14  16
ATOM     15  C   UNL     1      44.214   1.971   9.871  0.00  0.00    +0.000 C 
ATOM     16  C   UNL     1      44.658   2.980   8.860  0.00  0.00    +0.000 C 
BRANCH  16  17
ATOM     17  C   UNL     1      45.764   2.672   7.943  0.00  0.00    +0.000 A 
ATOM     18  C   UNL     1      46.442   1.451   8.027  0.00  0.00    +0.000 A 
ATOM     19  C   UNL     1      47.427   1.124   7.091  0.00  0.00    +0.000 A 
ATOM     20  C   UNL     1      47.736   2.013   6.065  0.00  0.00    +0.000 A 
ATOM     21  C   UNL     1      47.082   3.240   5.987  0.00  0.00    +0.000 A 
ATOM     22  C   UNL     1      46.107   3.572   6.929  0.00  0.00    +0.000 A 
ENDBRANCH  16  17
ENDBRANCH  14  16
ENDBRANCH   1  14
TORSDOF 4
ENDMDL
MODEL 4
REMARK VINA RESULT:    -7.265      3.304      5.774
REMARK INTER + INTRA:          -9.440
REMARK INTER:                  -8.801
REMARK INTRA:                  -0.639
REMARK UNBOUND:                -0.476
REMARK  Name = 
REMARK  5 active torsions:
REMARK  status: ('A' for Active; 'I' for Inactive)
REMARK    1  A    between atoms: C_1  and  C_2
REMARK    2  A    between atoms: C_2  and  C_3
REMARK    3  A    between atoms: C_2  and  C_14
REMARK    4  A    between atoms: C_3  and  N_4
REMARK    5  A    between atoms: C_8  and  C_9
REMARK                            x       y       z     vdW  Elec       q    Type
REMARK                         _______ _______ _______ _____ _____    ______ ____
ROOT
ATOM      1  N   UNL     1      43.963   5.121  12.347  0.00  0.00    +0.000 N 
ATOM      2  C   UNL     1      45.251   5.577  12.575  0.00  0.00    +0.000 A 
ATOM      3  N   UNL     1      45.832   6.409  11.697  0.00  0.00    +0.000 NA
ATOM      4  C   UNL     1      47.092   6.803  11.961  0.00  0.00    +0.000 A 
ATOM      5  C   UNL     1      47.792   6.417  13.078  0.00  0.00    +0.000 A 
ATOM      6  C   UNL     1      47.118   5.562  13.918  0.00  0.00    +0.000 A 
ATOM      7  N   UNL     1      45.855   5.130  13.689  0.00  0.00    +0.000 NA
ATOM      8  H   UNL     1      43.860   4.259  12.870  0.00  0.00    +0.000 HD
ENDROOT
BRANCH   5   9
ATOM      9  C   UNL     1      49.170   6.881  13.277  0.00  0.00    +0.000 C 
ATOM     10  N   UNL     1      49.888   7.266  12.181  0.00  0.00    +0.000 N 
ATOM     11  O   UNL     1      49.672   6.894  14.393  0.00  0.00    +0.000 OA
ATOM     12  H   UNL     1      49.620   7.053  11.229  0.00  0.00    +0.000 HD
ATOM     13  H   UNL     1      50.864   7.483  12.348  0.00  0.00    +0.000 HD
ENDBRANCH   5   9
BRANCH   1  14
ATOM     14  C   UNL     1      43.623   5.022  10.942  0.00  0.00    +0.000 C 
BRANCH  14  16
ATOM     15  C   UNL     1      43.409   2.524  11.496  0.00  0.00    +0.000 C 
ATOM     16  C   UNL     1      43.822   3.592  10.534  0.00  0.00    +0.000 C 
BRANCH  16  17
ATOM     17  C   UNL     1      44.818   3.307   9.492  0.00  0.00    +0.000 A 
ATOM     18  C   UNL     1      45.189   1.990   9.202  0.00  0.00    +0.000 A 
ATOM     19  C   UNL     1      46.063   1.718   8.145  0.00  0.00    +0.000 A 
ATOM     20  C   UNL     1      46.567   2.761   7.372  0.00  0.00    +0.000 A 
ATOM     21  C   UNL     1      46.220   4.077   7.669  0.00  0.00    +0.000 A 
ATOM     22  C   UNL     1      45.358   4.349   8.732  0.00  0.00    +0.000 A 
ENDBRANCH  16  17
ENDBRANCH  14  16
ENDBRANCH   1  14
TORSDOF 4
ENDMDL
MODEL 5
REMARK VINA RESULT:    -6.541      4.592      7.176
REMARK INTER + INTRA:          -8.546
REMARK INTER:                  -8.174
REMARK INTRA:                  -0.372
REMARK UNBOUND:                -0.476
REMARK  Name = 
REMARK  5 active torsions:
REMARK  status: ('A' for Active; 'I' for Inactive)
REMARK    1  A    between atoms: C_1  and  C_2
REMARK    2  A    between atoms: C_2  and  C_3
REMARK    3  A    between atoms: C_2  and  C_14
REMARK    4  A    between atoms: C_3  and  N_4
REMARK    5  A    between atoms: C_8  and  C_9
REMARK                            x       y       z     vdW  Elec       q    Type
REMARK                         _______ _______ _______ _____ _____    ______ ____
ROOT
ATOM      1  N   UNL     1      46.436   5.112  12.777  0.00  0.00    +0.000 N 
ATOM      2  C   UNL     1      47.000   5.028  14.040  0.00  0.00    +0.000 A 
ATOM      3  N   UNL     1      46.627   4.047  14.875  0.00  0.00    +0.000 NA
ATOM      4  C   UNL     1      47.194   4.027  16.096  0.00  0.00    +0.000 A 
ATOM      5  C   UNL     1      48.135   4.937  16.513  0.00  0.00    +0.000 A 
ATOM      6  C   UNL     1      48.451   5.907  15.591  0.00  0.00    +0.000 A 
ATOM      7  N   UNL     1      47.900   5.974  14.357  0.00  0.00    +0.000 NA
ATOM      8  H   UNL     1      46.539   6.073  12.473  0.00  0.00    +0.000 HD
ENDROOT
BRANCH   5   9
ATOM      9  C   UNL     1      48.687   4.852  17.870  0.00  0.00    +0.000 C 
ATOM     10  N   UNL     1      47.960   4.200  18.825  0.00  0.00    +0.000 N 
ATOM     11  O   UNL     1      49.758   5.377  18.145  0.00  0.00    +0.000 OA
ATOM     12  H   UNL     1      46.983   3.962  18.724  0.00  0.00    +0.000 HD
ATOM     13  H   UNL     1      48.328   4.250  19.768  0.00  0.00    +0.000 HD
ENDBRANCH   5   9
BRANCH   1  14
ATOM     14  C   UNL     1      45.084   4.596  12.710  0.00  0.00    +0.000 C 
BRANCH  14  16
ATOM     15  C   UNL     1      43.267   5.867  11.413  0.00  0.00    +0.000 C 
ATOM     16  C   UNL     1      44.506   5.029  11.394  0.00  0.00    +0.000 C 
BRANCH  16  17
ATOM     17  C   UNL     1      44.853   4.246  10.200  0.00  0.00    +0.000 A 
ATOM     18  C   UNL     1      45.541   4.837   9.135  0.00  0.00    +0.000 A 
ATOM     19  C   UNL     1      45.955   4.065   8.045  0.00  0.00    +0.000 A 
ATOM     20  C   UNL     1      45.685   2.699   8.017  0.00  0.00    +0.000 A 
ATOM     21  C   UNL     1      44.981   2.107   9.063  0.00  0.00    +0.000 A 
ATOM     22  C   UNL     1      44.558   2.880  10.145  0.00  0.00    +0.000 A 
ENDBRANCH  16  17
ENDBRANCH  14  16
ENDBRANCH   1  14
TORSDOF 4
ENDMDL
MODEL 6
REMARK VINA RESULT:    -6.539      4.113      6.998
REMARK INTER + INTRA:          -8.544
REMARK INTER:                  -8.189
REMARK INTRA:                  -0.355
REMARK UNBOUND:                -0.476
REMARK  Name = 
REMARK  5 active torsions:
REMARK  status: ('A' for Active; 'I' for Inactive)
REMARK    1  A    between atoms: C_1  and  C_2
REMARK    2  A    between atoms: C_2  and  C_3
REMARK    3  A    between atoms: C_2  and  C_14
REMARK    4  A    between atoms: C_3  and  N_4
REMARK    5  A    between atoms: C_8  and  C_9
REMARK                            x       y       z     vdW  Elec       q    Type
REMARK                         _______ _______ _______ _____ _____    ______ ____
ROOT
ATOM      1  N   UNL     1      45.359   4.744  12.715  0.00  0.00    +0.000 N 
ATOM      2  C   UNL     1      46.301   5.022  13.693  0.00  0.00    +0.000 A 
ATOM      3  N   UNL     1      47.033   6.144  13.617  0.00  0.00    +0.000 NA
ATOM      4  C   UNL     1      47.945   6.353  14.584  0.00  0.00    +0.000 A 
ATOM      5  C   UNL     1      48.147   5.495  15.638  0.00  0.00    +0.000 A 
ATOM      6  C   UNL     1      47.355   4.371  15.630  0.00  0.00    +0.000 A 
ATOM      7  N   UNL     1      46.431   4.114  14.674  0.00  0.00    +0.000 NA
ATOM      8  H   UNL     1      45.209   3.741  12.730  0.00  0.00    +0.000 HD
ENDROOT
BRANCH   5   9
ATOM      9  C   UNL     1      49.179   5.792  16.639  0.00  0.00    +0.000 C 
ATOM     10  N   UNL     1      49.028   6.906  17.413  0.00  0.00    +0.000 N 
ATOM     11  O   UNL     1      50.163   5.074  16.755  0.00  0.00    +0.000 OA
ATOM     12  H   UNL     1      48.379   7.653  17.205  0.00  0.00    +0.000 HD
ATOM     13  H   UNL     1      49.809   7.129  18.019  0.00  0.00    +0.000 HD
ENDBRANCH   5   9
BRANCH   1  14
ATOM     14  C   UNL     1      45.695   5.287  11.415  0.00  0.00    +0.000 C 
BRANCH  14  16
ATOM     15  C   UNL     1      43.303   4.548  10.840  0.00  0.00    +0.000 C 
ATOM     16  C   UNL     1      44.732   4.701  10.424  0.00  0.00    +0.000 C 
BRANCH  16  17
ATOM     17  C   UNL     1      45.279   3.877   9.338  0.00  0.00    +0.000 A 
ATOM     18  C   UNL     1      45.929   4.471   8.250  0.00  0.00    +0.000 A 
ATOM     19  C   UNL     1      46.533   3.679   7.270  0.00  0.00    +0.000 A 
ATOM     20  C   UNL     1      46.494   2.291   7.373  0.00  0.00    +0.000 A 
ATOM     21  C   UNL     1      45.830   1.691   8.441  0.00  0.00    +0.000 A 
ATOM     22  C   UNL     1      45.216   2.482   9.414  0.00  0.00    +0.000 A 
ENDBRANCH  16  17
ENDBRANCH  14  16
ENDBRANCH   1  14
TORSDOF 4
ENDMDL
MODEL 7
REMARK VINA RESULT:    -6.338      4.497      6.226
REMARK INTER + INTRA:          -8.296
REMARK INTER:                  -7.952
REMARK INTRA:                  -0.344
REMARK UNBOUND:                -0.476
REMARK  Name = 
REMARK  5 active torsions:
REMARK  status: ('A' for Active; 'I' for Inactive)
REMARK    1  A    between atoms: C_1  and  C_2
REMARK    2  A    between atoms: C_2  and  C_3
REMARK    3  A    between atoms: C_2  and  C_14
REMARK    4  A    between atoms: C_3  and  N_4
REMARK    5  A    between atoms: C_8  and  C_9
REMARK                            x       y       z     vdW  Elec       q    Type
REMARK                         _______ _______ _______ _____ _____    ______ ____
ROOT
ATOM      1  N   UNL     1      47.000   4.880  15.207  0.00  0.00    +0.000 N 
ATOM      2  C   UNL     1      46.413   4.831  13.953  0.00  0.00    +0.000 A 
ATOM      3  N   UNL     1      45.840   3.695  13.527  0.00  0.00    +0.000 NA
ATOM      4  C   UNL     1      45.303   3.700  12.292  0.00  0.00    +0.000 A 
ATOM      5  C   UNL     1      45.298   4.800  11.469  0.00  0.00    +0.000 A 
ATOM      6  C   UNL     1      45.912   5.915  11.989  0.00  0.00    +0.000 A 
ATOM      7  N   UNL     1      46.474   5.954  13.220  0.00  0.00    +0.000 NA
ATOM      8  H   UNL     1      47.676   5.635  15.185  0.00  0.00    +0.000 HD
ENDROOT
BRANCH   5   9
ATOM      9  C   UNL     1      44.707   4.710  10.129  0.00  0.00    +0.000 C 
ATOM     10  N   UNL     1      45.465   5.098   9.061  0.00  0.00    +0.000 N 
ATOM     11  O   UNL     1      43.555   4.327   9.976  0.00  0.00    +0.000 OA
ATOM     12  H   UNL     1      46.314   5.641   9.140  0.00  0.00    +0.000 HD
ATOM     13  H   UNL     1      44.987   5.116   8.166  0.00  0.00    +0.000 HD
ENDBRANCH   5   9
BRANCH   1  14
ATOM     14  C   UNL     1      47.528   3.606  15.652  0.00  0.00    +0.000 C 
BRANCH  14  16
ATOM     15  C   UNL     1      47.296   4.774  17.927  0.00  0.00    +0.000 C 
ATOM     16  C   UNL     1      48.016   3.792  17.059  0.00  0.00    +0.000 C 
BRANCH  16  17
ATOM     17  C   UNL     1      49.402   3.412  17.361  0.00  0.00    +0.000 A 
ATOM     18  C   UNL     1      49.844   2.101  17.153  0.00  0.00    +0.000 A 
ATOM     19  C   UNL     1      51.188   1.768  17.349  0.00  0.00    +0.000 A 
ATOM     20  C   UNL     1      52.095   2.744  17.752  0.00  0.00    +0.000 A 
ATOM     21  C   UNL     1      51.659   4.047  17.984  0.00  0.00    +0.000 A 
ATOM     22  C   UNL     1      50.315   4.376  17.800  0.00  0.00    +0.000 A 
ENDBRANCH  16  17
ENDBRANCH  14  16
ENDBRANCH   1  14
TORSDOF 4
ENDMDL
MODEL 8
REMARK VINA RESULT:    -6.260      5.388      7.920
REMARK INTER + INTRA:          -8.200
REMARK INTER:                  -7.853
REMARK INTRA:                  -0.347
REMARK UNBOUND:                -0.476
REMARK  Name = 
REMARK  5 active torsions:
REMARK  status: ('A' for Active; 'I' for Inactive)
REMARK    1  A    between atoms: C_1  and  C_2
REMARK    2  A    between atoms: C_2  and  C_3
REMARK    3  A    between atoms: C_2  and  C_14
REMARK    4  A    between atoms: C_3  and  N_4
REMARK    5  A    between atoms: C_8  and  C_9
REMARK                            x       y       z     vdW  Elec       q    Type
REMARK                         _______ _______ _______ _____ _____    ______ ____
ROOT
ATOM      1  N   UNL     1      46.251   4.496  14.484  0.00  0.00    +0.000 N 
ATOM      2  C   UNL     1      47.068   4.464  15.603  0.00  0.00    +0.000 A 
ATOM      3  N   UNL     1      48.144   5.262  15.668  0.00  0.00    +0.000 NA
ATOM      4  C   UNL     1      48.912   5.174  16.771  0.00  0.00    +0.000 A 
ATOM      5  C   UNL     1      48.640   4.333  17.823  0.00  0.00    +0.000 A 
ATOM      6  C   UNL     1      47.520   3.551  17.664  0.00  0.00    +0.000 A 
ATOM      7  N   UNL     1      46.724   3.597  16.570  0.00  0.00    +0.000 NA
ATOM      8  H   UNL     1      45.764   3.608  14.452  0.00  0.00    +0.000 HD
ENDROOT
BRANCH   5   9
ATOM      9  C   UNL     1      49.544   4.287  18.978  0.00  0.00    +0.000 C 
ATOM     10  N   UNL     1      49.004   4.067  20.213  0.00  0.00    +0.000 N 
ATOM     11  O   UNL     1      50.746   4.471  18.841  0.00  0.00    +0.000 OA
ATOM     12  H   UNL     1      48.018   4.149  20.420  0.00  0.00    +0.000 HD
ATOM     13  H   UNL     1      49.647   4.143  20.994  0.00  0.00    +0.000 HD
ENDBRANCH   5   9
BRANCH   1  14
ATOM     14  C   UNL     1      46.949   4.849  13.265  0.00  0.00    +0.000 C 
BRANCH  14  16
ATOM     15  C   UNL     1      45.204   6.701  12.917  0.00  0.00    +0.000 C 
ATOM     16  C   UNL     1      45.961   5.534  12.367  0.00  0.00    +0.000 C 
BRANCH  16  17
ATOM     17  C   UNL     1      45.429   4.776  11.227  0.00  0.00    +0.000 A 
ATOM     18  C   UNL     1      45.606   5.239   9.918  0.00  0.00    +0.000 A 
ATOM     19  C   UNL     1      45.184   4.466   8.832  0.00  0.00    +0.000 A 
ATOM     20  C   UNL     1      44.587   3.227   9.049  0.00  0.00    +0.000 A 
ATOM     21  C   UNL     1      44.386   2.770  10.349  0.00  0.00    +0.000 A 
ATOM     22  C   UNL     1      44.796   3.546  11.433  0.00  0.00    +0.000 A 
ENDBRANCH  16  17
ENDBRANCH  14  16
ENDBRANCH   1  14
TORSDOF 4
ENDMDL
MODEL 9
REMARK VINA RESULT:    -6.215      4.592      6.421
REMARK INTER + INTRA:          -8.145
REMARK INTER:                  -7.807
REMARK INTRA:                  -0.337
REMARK UNBOUND:                -0.476
REMARK  Name = 
REMARK  5 active torsions:
REMARK  status: ('A' for Active; 'I' for Inactive)
REMARK    1  A    between atoms: C_1  and  C_2
REMARK    2  A    between atoms: C_2  and  C_3
REMARK    3  A    between atoms: C_2  and  C_14
REMARK    4  A    between atoms: C_3  and  N_4
REMARK    5  A    between atoms: C_8  and  C_9
REMARK                            x       y       z     vdW  Elec       q    Type
REMARK                         _______ _______ _______ _____ _____    ______ ____
ROOT
ATOM      1  N   UNL     1      47.203   3.585  14.662  0.00  0.00    +0.000 N 
ATOM      2  C   UNL     1      46.325   3.955  13.656  0.00  0.00    +0.000 A 
ATOM      3  N   UNL     1      45.981   5.243  13.509  0.00  0.00    +0.000 NA
ATOM      4  C   UNL     1      45.110   5.541  12.527  0.00  0.00    +0.000 A 
ATOM      5  C   UNL     1      44.581   4.607  11.669  0.00  0.00    +0.000 A 
ATOM      6  C   UNL     1      44.988   3.314  11.898  0.00  0.00    +0.000 A 
ATOM      7  N   UNL     1      45.854   2.965  12.880  0.00  0.00    +0.000 NA
ATOM      8  H   UNL     1      47.037   2.603  14.849  0.00  0.00    +0.000 HD
ENDROOT
BRANCH   5   9
ATOM      9  C   UNL     1      43.622   5.018  10.637  0.00  0.00    +0.000 C 
ATOM     10  N   UNL     1      43.831   4.598   9.355  0.00  0.00    +0.000 N 
ATOM     11  O   UNL     1      42.675   5.743  10.915  0.00  0.00    +0.000 OA
ATOM     12  H   UNL     1      44.704   4.210   9.024  0.00  0.00    +0.000 HD
ATOM     13  H   UNL     1      43.205   4.984   8.658  0.00  0.00    +0.000 HD
ENDBRANCH   5   9
BRANCH   1  14
ATOM     14  C   UNL     1      47.143   4.442  15.828  0.00  0.00    +0.000 C 
BRANCH  14  16
ATOM     15  C   UNL     1      48.611   2.493  16.631  0.00  0.00    +0.000 C 
ATOM     16  C   UNL     1      48.096   3.882  16.844  0.00  0.00    +0.000 C 
BRANCH  16  17
ATOM     17  C   UNL     1      48.095   4.474  18.188  0.00  0.00    +0.000 A 
ATOM     18  C   UNL     1      49.034   4.075  19.144  0.00  0.00    +0.000 A 
ATOM     19  C   UNL     1      49.091   4.710  20.388  0.00  0.00    +0.000 A 
ATOM     20  C   UNL     1      48.212   5.749  20.680  0.00  0.00    +0.000 A 
ATOM     21  C   UNL     1      47.258   6.138  19.742  0.00  0.00    +0.000 A 
ATOM     22  C   UNL     1      47.193   5.496  18.505  0.00  0.00    +0.000 A 
ENDBRANCH  16  17
ENDBRANCH  14  16
ENDBRANCH   1  14
TORSDOF 4
ENDMDL
