MODEL 1
REMARK VINA RESULT:    -7.815      0.000      0.000
REMARK INTER + INTRA:         -12.783
REMARK INTER:                 -11.470
REMARK INTRA:                  -1.313
REMARK UNBOUND:                -1.313
REMARK  Name = 
REMARK  9 active torsions:
REMARK  status: ('A' for Active; 'I' for Inactive)
REMARK    1  A    between atoms: C_1  and  O_2
REMARK    2  A    between atoms: O_2  and  C_3
REMARK    3  A    between atoms: C_10  and  C_11
REMARK    4  A    between atoms: N_13  and  C_14
REMARK    5  A    between atoms: C_14  and  C_15
REMARK    6  A    between atoms: C_18  and  C_19
REMARK    7  A    between atoms: C_19  and  N_20
REMARK    8  A    between atoms: N_20  and  C_21
REMARK    9  A    between atoms: C_21  and  C_22
REMARK                            x       y       z     vdW  Elec       q    Type
REMARK                         _______ _______ _______ _____ _____    ______ ____
ROOT
ATOM      1  C   UNL     1      48.124   6.694  13.291  0.00  0.00    +0.000 C 
ENDROOT
BRANCH   1   2
ATOM      2  C   UNL     1      46.950   5.941  12.723  0.00  0.00    +0.000 A 
ATOM      3  C   UNL     1      46.394   4.865  13.423  0.00  0.00    +0.000 A 
ATOM      4  C   UNL     1      45.335   4.138  12.881  0.00  0.00    +0.000 A 
ATOM      5  C   UNL     1      44.776   4.491  11.646  0.00  0.00    +0.000 A 
ATOM      6  C   UNL     1      45.360   5.547  10.929  0.00  0.00    +0.000 A 
ATOM      7  C   UNL     1      46.438   6.261  11.459  0.00  0.00    +0.000 A 
BRANCH   5   8
ATOM      8  C   UNL     1      43.593   3.756  11.045  0.00  0.00    +0.000 C 
BRANCH   8   9
ATOM      9  N   UNL     1      43.729   3.372   9.635  0.00  0.00    +0.000 NA
ATOM     10  H   UNL     1      44.147   4.137   9.112  0.00  0.00    +0.000 HD
BRANCH   9  11
ATOM     11  C   UNL     1      44.497   2.139   9.453  0.00  0.00    +0.000 C 
BRANCH  11  12
ATOM     12  C   UNL     1      45.776   2.393   8.638  0.00  0.00    +0.000 C 
ATOM     13  C   UNL     1      45.577   3.451   7.545  0.00  0.00    +0.000 C 
ATOM     14  C   UNL     1      46.810   3.550   6.658  0.00  0.00    +0.000 C 
ATOM     15  O   UNL     1      47.134   2.280   6.093  0.00  0.00    +0.000 OA
ATOM     16  C   UNL     1      47.451   1.314   7.093  0.00  0.00    +0.000 C 
ATOM     17  C   UNL     1      46.260   1.077   8.009  0.00  0.00    +0.000 C 
ENDBRANCH  11  12
ENDBRANCH   9  11
ENDBRANCH   8   9
ENDBRANCH   5   8
ENDBRANCH   1   2
BRANCH   1  20
ATOM     18  C   UNL     1      49.149   6.861  15.516  0.00  0.00    +0.000 C 
ATOM     19  O   UNL     1      50.277   6.910  15.022  0.00  0.00    +0.000 OA
ATOM     20  N   UNL     1      48.038   6.754  14.727  0.00  0.00    +0.000 N 
ATOM     21  H   UNL     1      47.123   6.661  15.147  0.00  0.00    +0.000 HD
BRANCH  18  29
ATOM     22  C   UNL     1      48.893   4.460  17.976  0.00  0.00    +0.000 A 
ATOM     23  N   UNL     1      48.765   3.753  19.116  0.00  0.00    +0.000 NA
ATOM     24  C   UNL     1      48.576   4.422  20.255  0.00  0.00    +0.000 A 
ATOM     25  N   UNL     1      48.497   5.740  20.403  0.00  0.00    +0.000 NA
ATOM     26  C   UNL     1      48.639   6.409  19.246  0.00  0.00    +0.000 A 
ATOM     27  S   UNL     1      48.560   8.104  19.247  0.00  0.00    +0.000 S 
ATOM     28  C   UNL     1      48.800   8.165  17.567  0.00  0.00    +0.000 A 
ATOM     29  C   UNL     1      48.947   6.918  16.972  0.00  0.00    +0.000 A 
ATOM     30  C   UNL     1      48.849   5.865  17.981  0.00  0.00    +0.000 A 
BRANCH  22  32
ATOM     31  C   UNL     1      47.914   3.174  16.295  0.00  0.00    +0.000 C 
ATOM     32  O   UNL     1      49.109   3.762  16.806  0.00  0.00    +0.000 OA
ENDBRANCH  22  32
ENDBRANCH  18  29
ENDBRANCH   1  20
TORSDOF 8
ENDMDL
MODEL 2
REMARK VINA RESULT:    -7.588      1.477      2.574
REMARK INTER + INTRA:         -12.450
REMARK INTER:                 -11.620
REMARK INTRA:                  -0.830
REMARK UNBOUND:                -1.313
REMARK  Name = 
REMARK  9 active torsions:
REMARK  status: ('A' for Active; 'I' for Inactive)
REMARK    1  A    between atoms: C_1  and  O_2
REMARK    2  A    between atoms: O_2  and  C_3
REMARK    3  A    between atoms: C_10  and  C_11
REMARK    4  A    between atoms: N_13  and  C_14
REMARK    5  A    between atoms: C_14  and  C_15
REMARK    6  A    between atoms: C_18  and  C_19
REMARK    7  A    between atoms: C_19  and  N_20
REMARK    8  A    between atoms: N_20  and  C_21
REMARK    9  A    between atoms: C_21  and  C_22
REMARK                            x       y       z     vdW  Elec       q    Type
REMARK                         _______ _______ _______ _____ _____    ______ ____
ROOT
ATOM      1  C   UNL     1      48.107   6.494  13.587  0.00  0.00    +0.000 C 
ENDROOT
BRANCH   1   2
ATOM      2  C   UNL     1      46.953   5.945  12.791  0.00  0.00    +0.000 A 
ATOM      3  C   UNL     1      46.445   4.671  13.068  0.00  0.00    +0.000 A 
ATOM      4  C   UNL     1      45.405   4.142  12.305  0.00  0.00    +0.000 A 
ATOM      5  C   UNL     1      44.817   4.886  11.274  0.00  0.00    +0.000 A 
ATOM      6  C   UNL     1      45.352   6.148  10.975  0.00  0.00    +0.000 A 
ATOM      7  C   UNL     1      46.412   6.670  11.722  0.00  0.00    +0.000 A 
BRANCH   5   8
ATOM      8  C   UNL     1      43.652   4.364  10.454  0.00  0.00    +0.000 C 
BRANCH   8   9
ATOM      9  N   UNL     1      43.998   3.432   9.376  0.00  0.00    +0.000 NA
ATOM     10  H   UNL     1      43.152   3.139   8.892  0.00  0.00    +0.000 HD
BRANCH   9  11
ATOM     11  C   UNL     1      44.968   3.990   8.431  0.00  0.00    +0.000 C 
BRANCH  11  12
ATOM     12  C   UNL     1      45.628   2.884   7.590  0.00  0.00    +0.000 C 
ATOM     13  C   UNL     1      46.048   1.674   8.435  0.00  0.00    +0.000 C 
ATOM     14  C   UNL     1      46.844   0.682   7.599  0.00  0.00    +0.000 C 
ATOM     15  O   UNL     1      47.976   1.313   7.002  0.00  0.00    +0.000 OA
ATOM     16  C   UNL     1      47.598   2.357   6.109  0.00  0.00    +0.000 C 
ATOM     17  C   UNL     1      46.847   3.454   6.850  0.00  0.00    +0.000 C 
ENDBRANCH  11  12
ENDBRANCH   9  11
ENDBRANCH   8   9
ENDBRANCH   5   8
ENDBRANCH   1   2
BRANCH   1  20
ATOM     18  C   UNL     1      48.985   6.285  15.871  0.00  0.00    +0.000 C 
ATOM     19  O   UNL     1      50.104   6.647  15.503  0.00  0.00    +0.000 OA
ATOM     20  N   UNL     1      47.950   6.185  14.985  0.00  0.00    +0.000 N 
ATOM     21  H   UNL     1      47.050   5.836  15.290  0.00  0.00    +0.000 HD
BRANCH  18  29
ATOM     22  C   UNL     1      47.907   8.115  18.587  0.00  0.00    +0.000 A 
ATOM     23  N   UNL     1      47.502   8.573  19.787  0.00  0.00    +0.000 NA
ATOM     24  C   UNL     1      47.453   7.712  20.806  0.00  0.00    +0.000 A 
ATOM     25  N   UNL     1      47.761   6.420  20.776  0.00  0.00    +0.000 NA
ATOM     26  C   UNL     1      48.149   6.001  19.559  0.00  0.00    +0.000 A 
ATOM     27  S   UNL     1      48.588   4.376  19.338  0.00  0.00    +0.000 S 
ATOM     28  C   UNL     1      48.924   4.640  17.694  0.00  0.00    +0.000 A 
ATOM     29  C   UNL     1      48.712   5.949  17.278  0.00  0.00    +0.000 A 
ATOM     30  C   UNL     1      48.249   6.765  18.399  0.00  0.00    +0.000 A 
BRANCH  22  32
ATOM     31  C   UNL     1      48.730  10.157  17.818  0.00  0.00    +0.000 C 
ATOM     32  O   UNL     1      47.936   9.006  17.534  0.00  0.00    +0.000 OA
ENDBRANCH  22  32
ENDBRANCH  18  29
ENDBRANCH   1  20
TORSDOF 8
ENDMDL
MODEL 3
REMARK VINA RESULT:    -7.562      1.915      3.597
REMARK INTER + INTRA:         -12.411
REMARK INTER:                 -11.030
REMARK INTRA:                  -1.381
REMARK UNBOUND:                -1.313
REMARK  Name = 
REMARK  9 active torsions:
REMARK  status: ('A' for Active; 'I' for Inactive)
REMARK    1  A    between atoms: C_1  and  O_2
REMARK    2  A    between atoms: O_2  and  C_3
REMARK    3  A    between atoms: C_10  and  C_11
REMARK    4  A    between atoms: N_13  and  C_14
REMARK    5  A    between atoms: C_14  and  C_15
REMARK    6  A    between atoms: C_18  and  C_19
REMARK    7  A    between atoms: C_19  and  N_20
REMARK    8  A    between atoms: N_20  and  C_21
REMARK    9  A    between atoms: C_21  and  C_22
REMARK                            x       y       z     vdW  Elec       q    Type
REMARK                         _______ _______ _______ _____ _____    ______ ____
ROOT
ATOM      1  C   UNL     1      47.196   4.275  14.892  0.00  0.00    +0.000 C 
ENDROOT
BRANCH   1   2
ATOM      2  C   UNL     1      46.319   4.380  13.672  0.00  0.00    +0.000 A 
ATOM      3  C   UNL     1      45.805   5.619  13.276  0.00  0.00    +0.000 A 
ATOM      4  C   UNL     1      44.958   5.714  12.172  0.00  0.00    +0.000 A 
ATOM      5  C   UNL     1      44.637   4.583  11.411  0.00  0.00    +0.000 A 
ATOM      6  C   UNL     1      45.124   3.336  11.832  0.00  0.00    +0.000 A 
ATOM      7  C   UNL     1      45.953   3.235  12.953  0.00  0.00    +0.000 A 
BRANCH   5   8
ATOM      8  C   UNL     1      43.758   4.653  10.176  0.00  0.00    +0.000 C 
BRANCH   8   9
ATOM      9  N   UNL     1      44.069   3.687   9.116  0.00  0.00    +0.000 NA
ATOM     10  H   UNL     1      43.230   3.487   8.579  0.00  0.00    +0.000 HD
BRANCH   9  11
ATOM     11  C   UNL     1      45.152   4.135   8.238  0.00  0.00    +0.000 C 
BRANCH  11  12
ATOM     12  C   UNL     1      45.765   2.958   7.462  0.00  0.00    +0.000 C 
ATOM     13  C   UNL     1      46.085   1.760   8.365  0.00  0.00    +0.000 C 
ATOM     14  C   UNL     1      46.840   0.688   7.593  0.00  0.00    +0.000 C 
ATOM     15  O   UNL     1      48.026   1.223   7.007  0.00  0.00    +0.000 OA
ATOM     16  C   UNL     1      47.740   2.252   6.063  0.00  0.00    +0.000 C 
ATOM     17  C   UNL     1      47.038   3.421   6.738  0.00  0.00    +0.000 C 
ENDBRANCH  11  12
ENDBRANCH   9  11
ENDBRANCH   8   9
ENDBRANCH   5   8
ENDBRANCH   1   2
BRANCH   1  20
ATOM     18  C   UNL     1      48.579   5.790  16.241  0.00  0.00    +0.000 C 
ATOM     19  O   UNL     1      49.282   4.853  16.623  0.00  0.00    +0.000 OA
ATOM     20  N   UNL     1      47.532   5.584  15.387  0.00  0.00    +0.000 N 
ATOM     21  H   UNL     1      46.931   6.354  15.125  0.00  0.00    +0.000 HD
BRANCH  18  29
ATOM     22  C   UNL     1      48.784   8.813  14.596  0.00  0.00    +0.000 A 
ATOM     23  N   UNL     1      48.911  10.101  14.222  0.00  0.00    +0.000 NA
ATOM     24  C   UNL     1      49.179  11.008  15.165  0.00  0.00    +0.000 A 
ATOM     25  N   UNL     1      49.339  10.784  16.465  0.00  0.00    +0.000 NA
ATOM     26  C   UNL     1      49.195   9.490  16.798  0.00  0.00    +0.000 A 
ATOM     27  S   UNL     1      49.372   9.022  18.419  0.00  0.00    +0.000 S 
ATOM     28  C   UNL     1      49.076   7.395  18.033  0.00  0.00    +0.000 A 
ATOM     29  C   UNL     1      48.836   7.170  16.682  0.00  0.00    +0.000 A 
ATOM     30  C   UNL     1      48.909   8.429  15.943  0.00  0.00    +0.000 A 
BRANCH  22  32
ATOM     31  C   UNL     1      48.028   8.494  12.413  0.00  0.00    +0.000 C 
ATOM     32  O   UNL     1      48.486   7.885  13.620  0.00  0.00    +0.000 OA
ENDBRANCH  22  32
ENDBRANCH  18  29
ENDBRANCH   1  20
TORSDOF 8
ENDMDL
MODEL 4
REMARK VINA RESULT:    -7.123      1.760      2.754
REMARK INTER + INTRA:         -11.767
REMARK INTER:                 -10.828
REMARK INTRA:                  -0.939
REMARK UNBOUND:                -1.313
REMARK  Name = 
REMARK  9 active torsions:
REMARK  status: ('A' for Active; 'I' for Inactive)
REMARK    1  A    between atoms: C_1  and  O_2
REMARK    2  A    between atoms: O_2  and  C_3
REMARK    3  A    between atoms: C_10  and  C_11
REMARK    4  A    between atoms: N_13  and  C_14
REMARK    5  A    between atoms: C_14  and  C_15
REMARK    6  A    between atoms: C_18  and  C_19
REMARK    7  A    between atoms: C_19  and  N_20
REMARK    8  A    between atoms: N_20  and  C_21
REMARK    9  A    between atoms: C_21  and  C_22
REMARK                            x       y       z     vdW  Elec       q    Type
REMARK                         _______ _______ _______ _____ _____    ______ ____
ROOT
ATOM      1  C   UNL     1      47.150   4.483  15.219  0.00  0.00    +0.000 C 
ENDROOT
BRANCH   1   2
ATOM      2  C   UNL     1      46.684   4.846  13.834  0.00  0.00    +0.000 A 
ATOM      3  C   UNL     1      47.150   6.010  13.214  0.00  0.00    +0.000 A 
ATOM      4  C   UNL     1      46.689   6.373  11.949  0.00  0.00    +0.000 A 
ATOM      5  C   UNL     1      45.783   5.562  11.253  0.00  0.00    +0.000 A 
ATOM      6  C   UNL     1      45.289   4.415  11.893  0.00  0.00    +0.000 A 
ATOM      7  C   UNL     1      45.731   4.063  13.171  0.00  0.00    +0.000 A 
BRANCH   5   8
ATOM      8  C   UNL     1      45.294   5.897   9.857  0.00  0.00    +0.000 C 
BRANCH   8   9
ATOM      9  N   UNL     1      45.813   5.048   8.779  0.00  0.00    +0.000 NA
ATOM     10  H   UNL     1      46.725   4.682   9.040  0.00  0.00    +0.000 HD
BRANCH   9  11
ATOM     11  C   UNL     1      44.900   3.960   8.422  0.00  0.00    +0.000 C 
BRANCH  11  12
ATOM     12  C   UNL     1      45.611   2.890   7.577  0.00  0.00    +0.000 C 
ATOM     13  C   UNL     1      45.992   1.650   8.397  0.00  0.00    +0.000 C 
ATOM     14  C   UNL     1      46.837   0.693   7.567  0.00  0.00    +0.000 C 
ATOM     15  O   UNL     1      47.996   1.350   7.057  0.00  0.00    +0.000 OA
ATOM     16  C   UNL     1      47.661   2.427   6.185  0.00  0.00    +0.000 C 
ATOM     17  C   UNL     1      46.865   3.492   6.926  0.00  0.00    +0.000 C 
ENDBRANCH  11  12
ENDBRANCH   9  11
ENDBRANCH   8   9
ENDBRANCH   5   8
ENDBRANCH   1   2
BRANCH   1  20
ATOM     18  C   UNL     1      48.928   5.356  16.671  0.00  0.00    +0.000 C 
ATOM     19  O   UNL     1      49.265   4.214  16.989  0.00  0.00    +0.000 OA
ATOM     20  N   UNL     1      47.893   5.568  15.804  0.00  0.00    +0.000 N 
ATOM     21  H   UNL     1      47.592   6.511  15.593  0.00  0.00    +0.000 HD
BRANCH  18  29
ATOM     22  C   UNL     1      49.033   6.847  19.777  0.00  0.00    +0.000 A 
ATOM     23  N   UNL     1      49.258   7.616  20.860  0.00  0.00    +0.000 NA
ATOM     24  C   UNL     1      50.061   8.674  20.726  0.00  0.00    +0.000 A 
ATOM     25  N   UNL     1      50.684   9.069  19.620  0.00  0.00    +0.000 NA
ATOM     26  C   UNL     1      50.441   8.270  18.567  0.00  0.00    +0.000 A 
ATOM     27  S   UNL     1      51.152   8.629  17.068  0.00  0.00    +0.000 S 
ATOM     28  C   UNL     1      50.413   7.283  16.341  0.00  0.00    +0.000 A 
ATOM     29  C   UNL     1      49.622   6.537  17.206  0.00  0.00    +0.000 A 
ATOM     30  C   UNL     1      49.639   7.132  18.541  0.00  0.00    +0.000 A 
BRANCH  22  32
ATOM     31  C   UNL     1      48.895   4.649  20.544  0.00  0.00    +0.000 C 
ATOM     32  O   UNL     1      48.218   5.744  19.929  0.00  0.00    +0.000 OA
ENDBRANCH  22  32
ENDBRANCH  18  29
ENDBRANCH   1  20
TORSDOF 8
ENDMDL
MODEL 5
REMARK VINA RESULT:    -6.895      1.889      2.381
REMARK INTER + INTRA:         -11.433
REMARK INTER:                 -10.296
REMARK INTRA:                  -1.136
REMARK UNBOUND:                -1.313
REMARK  Name = 
REMARK  9 active torsions:
REMARK  status: ('A' for Active; 'I' for Inactive)
REMARK    1  A    between atoms: C_1  and  O_2
REMARK    2  A    between atoms: O_2  and  C_3
REMARK    3  A    between atoms: C_10  and  C_11
REMARK    4  A    between atoms: N_13  and  C_14
REMARK    5  A    between atoms: C_14  and  C_15
REMARK    6  A    between atoms: C_18  and  C_19
REMARK    7  A    between atoms: C_19  and  N_20
REMARK    8  A    between atoms: N_20  and  C_21
REMARK    9  A    between atoms: C_21  and  C_22
REMARK                            x       y       z     vdW  Elec       q    Type
REMARK                         _______ _______ _______ _____ _____    ______ ____
ROOT
ATOM      1  C   UNL     1      46.908   8.076  13.071  0.00  0.00    +0.000 C 
ENDROOT
BRANCH   1   2
ATOM      2  C   UNL     1      46.120   6.882  12.602  0.00  0.00    +0.000 A 
ATOM      3  C   UNL     1      45.216   7.003  11.542  0.00  0.00    +0.000 A 
ATOM      4  C   UNL     1      44.454   5.909  11.132  0.00  0.00    +0.000 A 
ATOM      5  C   UNL     1      44.604   4.657  11.743  0.00  0.00    +0.000 A 
ATOM      6  C   UNL     1      45.484   4.548  12.831  0.00  0.00    +0.000 A 
ATOM      7  C   UNL     1      46.231   5.649  13.259  0.00  0.00    +0.000 A 
BRANCH   5   8
ATOM      8  C   UNL     1      43.828   3.433  11.295  0.00  0.00    +0.000 C 
BRANCH   8   9
ATOM      9  N   UNL     1      43.763   3.214   9.846  0.00  0.00    +0.000 NA
ATOM     10  H   UNL     1      44.121   4.032   9.360  0.00  0.00    +0.000 HD
BRANCH   9  11
ATOM     11  C   UNL     1      44.473   2.006   9.420  0.00  0.00    +0.000 C 
BRANCH  11  12
ATOM     12  C   UNL     1      45.774   2.355   8.678  0.00  0.00    +0.000 C 
ATOM     13  C   UNL     1      45.587   3.493   7.666  0.00  0.00    +0.000 C 
ATOM     14  C   UNL     1      46.849   3.692   6.839  0.00  0.00    +0.000 C 
ATOM     15  O   UNL     1      47.227   2.480   6.188  0.00  0.00    +0.000 OA
ATOM     16  C   UNL     1      47.533   1.445   7.119  0.00  0.00    +0.000 C 
ATOM     17  C   UNL     1      46.316   1.106   7.967  0.00  0.00    +0.000 C 
ENDBRANCH  11  12
ENDBRANCH   9  11
ENDBRANCH   8   9
ENDBRANCH   5   8
ENDBRANCH   1   2
BRANCH   1  20
ATOM     18  C   UNL     1      48.586   8.089  14.864  0.00  0.00    +0.000 C 
ATOM     19  O   UNL     1      47.896   8.852  15.542  0.00  0.00    +0.000 OA
ATOM     20  N   UNL     1      48.166   7.663  13.635  0.00  0.00    +0.000 N 
ATOM     21  H   UNL     1      48.766   7.079  13.067  0.00  0.00    +0.000 HD
BRANCH  18  29
ATOM     22  C   UNL     1      49.537   5.489  16.919  0.00  0.00    +0.000 A 
ATOM     23  N   UNL     1      50.180   4.570  17.665  0.00  0.00    +0.000 NA
ATOM     24  C   UNL     1      51.511   4.638  17.740  0.00  0.00    +0.000 A 
ATOM     25  N   UNL     1      52.299   5.528  17.148  0.00  0.00    +0.000 NA
ATOM     26  C   UNL     1      51.622   6.420  16.406  0.00  0.00    +0.000 A 
ATOM     27  S   UNL     1      52.471   7.637  15.582  0.00  0.00    +0.000 S 
ATOM     28  C   UNL     1      51.033   8.284  14.954  0.00  0.00    +0.000 A 
ATOM     29  C   UNL     1      49.888   7.601  15.346  0.00  0.00    +0.000 A 
ATOM     30  C   UNL     1      50.244   6.483  16.219  0.00  0.00    +0.000 A 
BRANCH  22  32
ATOM     31  C   UNL     1      47.547   5.215  18.102  0.00  0.00    +0.000 C 
ATOM     32  O   UNL     1      48.164   5.400  16.829  0.00  0.00    +0.000 OA
ENDBRANCH  22  32
ENDBRANCH  18  29
ENDBRANCH   1  20
TORSDOF 8
ENDMDL
MODEL 6
REMARK VINA RESULT:    -6.820      2.119      3.174
REMARK INTER + INTRA:         -11.322
REMARK INTER:                 -10.196
REMARK INTRA:                  -1.127
REMARK UNBOUND:                -1.313
REMARK  Name = 
REMARK  9 active torsions:
REMARK  status: ('A' for Active; 'I' for Inactive)
REMARK    1  A    between atoms: C_1  and  O_2
REMARK    2  A    between atoms: O_2  and  C_3
REMARK    3  A    between atoms: C_10  and  C_11
REMARK    4  A    between atoms: N_13  and  C_14
REMARK    5  A    between atoms: C_14  and  C_15
REMARK    6  A    between atoms: C_18  and  C_19
REMARK    7  A    between atoms: C_19  and  N_20
REMARK    8  A    between atoms: N_20  and  C_21
REMARK    9  A    between atoms: C_21  and  C_22
REMARK                            x       y       z     vdW  Elec       q    Type
REMARK                         _______ _______ _______ _____ _____    ______ ____
ROOT
ATOM      1  C   UNL     1      47.184   4.844  14.517  0.00  0.00    +0.000 C 
ENDROOT
BRANCH   1   2
ATOM      2  C   UNL     1      46.285   4.726  13.314  0.00  0.00    +0.000 A 
ATOM      3  C   UNL     1      45.827   5.874  12.659  0.00  0.00    +0.000 A 
ATOM      4  C   UNL     1      44.960   5.770  11.572  0.00  0.00    +0.000 A 
ATOM      5  C   UNL     1      44.562   4.519  11.085  0.00  0.00    +0.000 A 
ATOM      6  C   UNL     1      44.993   3.371  11.767  0.00  0.00    +0.000 A 
ATOM      7  C   UNL     1      45.842   3.473  12.872  0.00  0.00    +0.000 A 
BRANCH   5   8
ATOM      8  C   UNL     1      43.659   4.363   9.876  0.00  0.00    +0.000 C 
BRANCH   8   9
ATOM      9  N   UNL     1      44.257   3.696   8.714  0.00  0.00    +0.000 NA
ATOM     10  H   UNL     1      43.578   3.648   7.960  0.00  0.00    +0.000 HD
BRANCH   9  11
ATOM     11  C   UNL     1      45.491   4.341   8.260  0.00  0.00    +0.000 C 
BRANCH  11  12
ATOM     12  C   UNL     1      46.524   3.303   7.793  0.00  0.00    +0.000 C 
ATOM     13  C   UNL     1      46.754   3.343   6.276  0.00  0.00    +0.000 C 
ATOM     14  C   UNL     1      47.651   2.195   5.835  0.00  0.00    +0.000 C 
ATOM     15  O   UNL     1      47.108   0.940   6.241  0.00  0.00    +0.000 OA
ATOM     16  C   UNL     1      47.010   0.832   7.659  0.00  0.00    +0.000 C 
ATOM     17  C   UNL     1      46.075   1.896   8.216  0.00  0.00    +0.000 C 
ENDBRANCH  11  12
ENDBRANCH   9  11
ENDBRANCH   8   9
ENDBRANCH   5   8
ENDBRANCH   1   2
BRANCH   1  20
ATOM     18  C   UNL     1      48.644   6.574  15.469  0.00  0.00    +0.000 C 
ATOM     19  O   UNL     1      49.391   5.719  15.947  0.00  0.00    +0.000 OA
ATOM     20  N   UNL     1      47.536   6.221  14.752  0.00  0.00    +0.000 N 
ATOM     21  H   UNL     1      46.902   6.932  14.411  0.00  0.00    +0.000 HD
BRANCH  18  29
ATOM     22  C   UNL     1      49.093   8.587  18.232  0.00  0.00    +0.000 A 
ATOM     23  N   UNL     1      49.306   9.585  19.112  0.00  0.00    +0.000 NA
ATOM     24  C   UNL     1      49.507  10.815  18.633  0.00  0.00    +0.000 A 
ATOM     25  N   UNL     1      49.523  11.182  17.357  0.00  0.00    +0.000 NA
ATOM     26  C   UNL     1      49.317  10.157  16.511  0.00  0.00    +0.000 A 
ATOM     27  S   UNL     1      49.299  10.446  14.839  0.00  0.00    +0.000 S 
ATOM     28  C   UNL     1      49.001   8.807  14.510  0.00  0.00    +0.000 A 
ATOM     29  C   UNL     1      48.912   8.010  15.645  0.00  0.00    +0.000 A 
ATOM     30  C   UNL     1      49.100   8.823  16.846  0.00  0.00    +0.000 A 
BRANCH  22  32
ATOM     31  C   UNL     1      47.560   7.083  19.141  0.00  0.00    +0.000 C 
ATOM     32  O   UNL     1      48.907   7.315  18.732  0.00  0.00    +0.000 OA
ENDBRANCH  22  32
ENDBRANCH  18  29
ENDBRANCH   1  20
TORSDOF 8
ENDMDL
MODEL 7
REMARK VINA RESULT:    -6.541      1.825      2.597
REMARK INTER + INTRA:         -10.914
REMARK INTER:                  -9.868
REMARK INTRA:                  -1.046
REMARK UNBOUND:                -1.313
REMARK  Name = 
REMARK  9 active torsions:
REMARK  status: ('A' for Active; 'I' for Inactive)
REMARK    1  A    between atoms: C_1  and  O_2
REMARK    2  A    between atoms: O_2  and  C_3
REMARK    3  A    between atoms: C_10  and  C_11
REMARK    4  A    between atoms: N_13  and  C_14
REMARK    5  A    between atoms: C_14  and  C_15
REMARK    6  A    between atoms: C_18  and  C_19
REMARK    7  A    between atoms: C_19  and  N_20
REMARK    8  A    between atoms: N_20  and  C_21
REMARK    9  A    between atoms: C_21  and  C_22
REMARK                            x       y       z     vdW  Elec       q    Type
REMARK                         _______ _______ _______ _____ _____    ______ ____
ROOT
ATOM      1  C   UNL     1      47.824   7.206  13.576  0.00  0.00    +0.000 C 
ENDROOT
BRANCH   1   2
ATOM      2  C   UNL     1      46.742   6.521  12.783  0.00  0.00    +0.000 A 
ATOM      3  C   UNL     1      46.725   6.611  11.387  0.00  0.00    +0.000 A 
ATOM      4  C   UNL     1      45.702   6.015  10.651  0.00  0.00    +0.000 A 
ATOM      5  C   UNL     1      44.693   5.279  11.286  0.00  0.00    +0.000 A 
ATOM      6  C   UNL     1      44.692   5.222  12.688  0.00  0.00    +0.000 A 
ATOM      7  C   UNL     1      45.703   5.840  13.429  0.00  0.00    +0.000 A 
BRANCH   5   8
ATOM      8  C   UNL     1      43.590   4.575  10.517  0.00  0.00    +0.000 C 
BRANCH   8   9
ATOM      9  N   UNL     1      43.948   4.106   9.174  0.00  0.00    +0.000 NA
ATOM     10  H   UNL     1      44.619   4.745   8.756  0.00  0.00    +0.000 HD
BRANCH   9  11
ATOM     11  C   UNL     1      44.463   2.736   9.168  0.00  0.00    +0.000 C 
BRANCH  11  12
ATOM     12  C   UNL     1      45.387   2.492   7.963  0.00  0.00    +0.000 C 
ATOM     13  C   UNL     1      46.305   1.278   8.161  0.00  0.00    +0.000 C 
ATOM     14  C   UNL     1      47.314   1.173   7.026  0.00  0.00    +0.000 C 
ATOM     15  O   UNL     1      48.069   2.377   6.904  0.00  0.00    +0.000 OA
ATOM     16  C   UNL     1      47.246   3.497   6.589  0.00  0.00    +0.000 C 
ATOM     17  C   UNL     1      46.231   3.747   7.694  0.00  0.00    +0.000 C 
ENDBRANCH  11  12
ENDBRANCH   9  11
ENDBRANCH   8   9
ENDBRANCH   5   8
ENDBRANCH   1   2
BRANCH   1  20
ATOM     18  C   UNL     1      48.714   6.988  15.855  0.00  0.00    +0.000 C 
ATOM     19  O   UNL     1      48.924   8.200  15.917  0.00  0.00    +0.000 OA
ATOM     20  N   UNL     1      48.174   6.424  14.733  0.00  0.00    +0.000 N 
ATOM     21  H   UNL     1      48.056   5.421  14.675  0.00  0.00    +0.000 HD
BRANCH  18  29
ATOM     22  C   UNL     1      51.491   6.582  17.857  0.00  0.00    +0.000 A 
ATOM     23  N   UNL     1      52.411   6.220  18.772  0.00  0.00    +0.000 NA
ATOM     24  C   UNL     1      52.102   5.238  19.622  0.00  0.00    +0.000 A 
ATOM     25  N   UNL     1      50.962   4.559  19.677  0.00  0.00    +0.000 NA
ATOM     26  C   UNL     1      50.067   4.957  18.757  0.00  0.00    +0.000 A 
ATOM     27  S   UNL     1      48.554   4.192  18.679  0.00  0.00    +0.000 S 
ATOM     28  C   UNL     1      48.071   5.174  17.380  0.00  0.00    +0.000 A 
ATOM     29  C   UNL     1      49.031   6.096  16.981  0.00  0.00    +0.000 A 
ATOM     30  C   UNL     1      50.229   5.963  17.808  0.00  0.00    +0.000 A 
BRANCH  22  32
ATOM     31  C   UNL     1      52.488   7.151  15.827  0.00  0.00    +0.000 C 
ATOM     32  O   UNL     1      51.809   7.611  16.995  0.00  0.00    +0.000 OA
ENDBRANCH  22  32
ENDBRANCH  18  29
ENDBRANCH   1  20
TORSDOF 8
ENDMDL
MODEL 8
REMARK VINA RESULT:    -6.270      1.705      2.131
REMARK INTER + INTRA:         -10.516
REMARK INTER:                  -9.117
REMARK INTRA:                  -1.400
REMARK UNBOUND:                -1.313
REMARK  Name = 
REMARK  9 active torsions:
REMARK  status: ('A' for Active; 'I' for Inactive)
REMARK    1  A    between atoms: C_1  and  O_2
REMARK    2  A    between atoms: O_2  and  C_3
REMARK    3  A    between atoms: C_10  and  C_11
REMARK    4  A    between atoms: N_13  and  C_14
REMARK    5  A    between atoms: C_14  and  C_15
REMARK    6  A    between atoms: C_18  and  C_19
REMARK    7  A    between atoms: C_19  and  N_20
REMARK    8  A    between atoms: N_20  and  C_21
REMARK    9  A    between atoms: C_21  and  C_22
REMARK                            x       y       z     vdW  Elec       q    Type
REMARK                         _______ _______ _______ _____ _____    ______ ____
ROOT
ATOM      1  C   UNL     1      48.995   7.223  12.846  0.00  0.00    +0.000 C 
ENDROOT
BRANCH   1   2
ATOM      2  C   UNL     1      47.596   6.668  12.866  0.00  0.00    +0.000 A 
ATOM      3  C   UNL     1      47.376   5.316  13.150  0.00  0.00    +0.000 A 
ATOM      4  C   UNL     1      46.085   4.788  13.128  0.00  0.00    +0.000 A 
ATOM      5  C   UNL     1      44.978   5.604  12.864  0.00  0.00    +0.000 A 
ATOM      6  C   UNL     1      45.205   6.951  12.544  0.00  0.00    +0.000 A 
ATOM      7  C   UNL     1      46.500   7.477  12.540  0.00  0.00    +0.000 A 
BRANCH   5   8
ATOM      8  C   UNL     1      43.555   5.079  12.879  0.00  0.00    +0.000 C 
BRANCH   8   9
ATOM      9  N   UNL     1      43.018   4.654  11.581  0.00  0.00    +0.000 NA
ATOM     10  H   UNL     1      43.236   5.353  10.876  0.00  0.00    +0.000 HD
BRANCH   9  11
ATOM     11  C   UNL     1      43.501   3.335  11.170  0.00  0.00    +0.000 C 
BRANCH  11  12
ATOM     12  C   UNL     1      44.094   3.374   9.752  0.00  0.00    +0.000 C 
ATOM     13  C   UNL     1      44.759   2.050   9.355  0.00  0.00    +0.000 C 
ATOM     14  C   UNL     1      45.477   2.185   8.019  0.00  0.00    +0.000 C 
ATOM     15  O   UNL     1      46.427   3.248   8.057  0.00  0.00    +0.000 OA
ATOM     16  C   UNL     1      45.810   4.511   8.295  0.00  0.00    +0.000 C 
ATOM     17  C   UNL     1      45.110   4.522   9.646  0.00  0.00    +0.000 C 
ENDBRANCH  11  12
ENDBRANCH   9  11
ENDBRANCH   8   9
ENDBRANCH   5   8
ENDBRANCH   1   2
BRANCH   1  20
ATOM     18  C   UNL     1      49.315   7.868  15.193  0.00  0.00    +0.000 C 
ATOM     19  O   UNL     1      48.483   8.771  15.087  0.00  0.00    +0.000 OA
ATOM     20  N   UNL     1      49.622   7.063  14.132  0.00  0.00    +0.000 N 
ATOM     21  H   UNL     1      50.345   6.362  14.218  0.00  0.00    +0.000 HD
BRANCH  18  29
ATOM     22  C   UNL     1      49.496   5.149  17.304  0.00  0.00    +0.000 A 
ATOM     23  N   UNL     1      49.744   4.258  18.284  0.00  0.00    +0.000 NA
ATOM     24  C   UNL     1      50.532   4.637  19.294  0.00  0.00    +0.000 A 
ATOM     25  N   UNL     1      51.118   5.819  19.450  0.00  0.00    +0.000 NA
ATOM     26  C   UNL     1      50.853   6.674  18.447  0.00  0.00    +0.000 A 
ATOM     27  S   UNL     1      51.516   8.236  18.486  0.00  0.00    +0.000 S 
ATOM     28  C   UNL     1      50.770   8.641  17.015  0.00  0.00    +0.000 A 
ATOM     29  C   UNL     1      50.013   7.615  16.464  0.00  0.00    +0.000 A 
ATOM     30  C   UNL     1      50.063   6.435  17.326  0.00  0.00    +0.000 A 
BRANCH  22  32
ATOM     31  C   UNL     1      47.378   4.400  16.675  0.00  0.00    +0.000 C 
ATOM     32  O   UNL     1      48.698   4.744  16.254  0.00  0.00    +0.000 OA
ENDBRANCH  22  32
ENDBRANCH  18  29
ENDBRANCH   1  20
TORSDOF 8
ENDMDL
MODEL 9
REMARK VINA RESULT:    -5.827      3.287      4.878
REMARK INTER + INTRA:          -9.866
REMARK INTER:                  -8.677
REMARK INTRA:                  -1.189
REMARK UNBOUND:                -1.313
REMARK  Name = 
REMARK  9 active torsions:
REMARK  status: ('A' for Active; 'I' for Inactive)
REMARK    1  A    between atoms: C_1  and  O_2
REMARK    2  A    between atoms: O_2  and  C_3
REMARK    3  A    between atoms: C_10  and  C_11
REMARK    4  A    between atoms: N_13  and  C_14
REMARK    5  A    between atoms: C_14  and  C_15
REMARK    6  A    between atoms: C_18  and  C_19
REMARK    7  A    between atoms: C_19  and  N_20
REMARK    8  A    between atoms: N_20  and  C_21
REMARK    9  A    between atoms: C_21  and  C_22
REMARK                            x       y       z     vdW  Elec       q    Type
REMARK                         _______ _______ _______ _____ _____    ______ ____
ROOT
ATOM      1  C   UNL     1      50.963   7.536  16.715  0.00  0.00    +0.000 C 
ENDROOT
BRANCH   1   2
ATOM      2  C   UNL     1      50.138   7.390  15.463  0.00  0.00    +0.000 A 
ATOM      3  C   UNL     1      50.514   8.050  14.288  0.00  0.00    +0.000 A 
ATOM      4  C   UNL     1      49.730   7.952  13.139  0.00  0.00    +0.000 A 
ATOM      5  C   UNL     1      48.574   7.160  13.120  0.00  0.00    +0.000 A 
ATOM      6  C   UNL     1      48.180   6.530  14.310  0.00  0.00    +0.000 A 
ATOM      7  C   UNL     1      48.951   6.647  15.470  0.00  0.00    +0.000 A 
BRANCH   5   8
ATOM      8  C   UNL     1      47.722   6.990  11.877  0.00  0.00    +0.000 C 
BRANCH   8   9
ATOM      9  N   UNL     1      46.621   6.026  11.985  0.00  0.00    +0.000 NA
ATOM     10  H   UNL     1      46.493   5.761  12.958  0.00  0.00    +0.000 HD
BRANCH   9  11
ATOM     11  C   UNL     1      45.368   6.528  11.416  0.00  0.00    +0.000 C 
BRANCH  11  12
ATOM     12  C   UNL     1      44.505   5.380  10.869  0.00  0.00    +0.000 C 
ATOM     13  C   UNL     1      44.203   4.313  11.929  0.00  0.00    +0.000 C 
ATOM     14  C   UNL     1      43.493   3.118  11.307  0.00  0.00    +0.000 C 
ATOM     15  O   UNL     1      44.258   2.575  10.232  0.00  0.00    +0.000 OA
ATOM     16  C   UNL     1      44.438   3.514   9.175  0.00  0.00    +0.000 C 
ATOM     17  C   UNL     1      45.205   4.734   9.663  0.00  0.00    +0.000 C 
ENDBRANCH  11  12
ENDBRANCH   9  11
ENDBRANCH   8   9
ENDBRANCH   5   8
ENDBRANCH   1   2
BRANCH   1  20
ATOM     18  C   UNL     1      51.984   5.978  18.314  0.00  0.00    +0.000 C 
ATOM     19  O   UNL     1      51.769   6.752  19.248  0.00  0.00    +0.000 OA
ATOM     20  N   UNL     1      51.616   6.294  17.037  0.00  0.00    +0.000 N 
ATOM     21  H   UNL     1      51.847   5.673  16.272  0.00  0.00    +0.000 HD
BRANCH  18  29
ATOM     22  C   UNL     1      51.195   2.737  17.444  0.00  0.00    +0.000 A 
ATOM     23  N   UNL     1      51.140   1.407  17.237  0.00  0.00    +0.000 NA
ATOM     24  C   UNL     1      52.126   0.651  17.726  0.00  0.00    +0.000 A 
ATOM     25  N   UNL     1      53.186   1.067  18.410  0.00  0.00    +0.000 NA
ATOM     26  C   UNL     1      53.209   2.399  18.586  0.00  0.00    +0.000 A 
ATOM     27  S   UNL     1      54.491   3.105  19.445  0.00  0.00    +0.000 S 
ATOM     28  C   UNL     1      53.833   4.658  19.248  0.00  0.00    +0.000 A 
ATOM     29  C   UNL     1      52.643   4.680  18.532  0.00  0.00    +0.000 A 
ATOM     30  C   UNL     1      52.269   3.323  18.137  0.00  0.00    +0.000 A 
BRANCH  22  32
ATOM     31  C   UNL     1      48.991   3.454  17.700  0.00  0.00    +0.000 C 
ATOM     32  O   UNL     1      50.183   3.513  16.918  0.00  0.00    +0.000 OA
ENDBRANCH  22  32
ENDBRANCH  18  29
ENDBRANCH   1  20
TORSDOF 8
ENDMDL
