MODEL 1
REMARK VINA RESULT:    -7.197      0.000      0.000
REMARK INTER + INTRA:         -12.632
REMARK INTER:                 -10.984
REMARK INTRA:                  -1.648
REMARK UNBOUND:                -1.648
REMARK  Name = 
REMARK  10 active torsions:
REMARK  status: ('A' for Active; 'I' for Inactive)
REMARK    1  A    between atoms: C_1  and  C_2
REMARK    2  A    between atoms: C_2  and  O_3
REMARK    3  A    between atoms: O_3  and  C_4
REMARK    4  A    between atoms: C_6  and  C_7
REMARK    5  A    between atoms: C_7  and  N_8
REMARK    6  A    between atoms: C_9  and  C_11
REMARK    7  A    between atoms: C_23  and  C_24
REMARK    8  A    between atoms: C_24  and  N_25
REMARK    9  A    between atoms: N_25  and  C_26
REMARK   10  A    between atoms: C_26  and  C_27
REMARK                            x       y       z     vdW  Elec       q    Type
REMARK                         _______ _______ _______ _____ _____    ______ ____
ROOT
ATOM      1  C   UNL     1      48.242   6.289  15.280  0.00  0.00    +0.000 A 
ATOM      2  C   UNL     1      48.366   5.436  16.393  0.00  0.00    +0.000 A 
ATOM      3  C   UNL     1      47.787   4.160  16.423  0.00  0.00    +0.000 A 
ATOM      4  C   UNL     1      47.091   3.721  15.301  0.00  0.00    +0.000 A 
ATOM      5  C   UNL     1      46.977   4.545  14.175  0.00  0.00    +0.000 A 
ATOM      6  C   UNL     1      47.550   5.837  14.140  0.00  0.00    +0.000 A 
ENDROOT
BRANCH   1   7
ATOM      7  O   UNL     1      48.770   7.562  15.255  0.00  0.00    +0.000 OA
BRANCH   7   9
ATOM      8  C   UNL     1      50.683   8.114  13.876  0.00  0.00    +0.000 C 
ATOM      9  C   UNL     1      50.202   7.637  15.230  0.00  0.00    +0.000 C 
ENDBRANCH   7   9
ENDBRANCH   1   7
BRANCH   3  10
ATOM     10  C   UNL     1      47.967   3.297  17.646  0.00  0.00    +0.000 C 
BRANCH  10  11
ATOM     11  N   UNL     1      49.364   3.076  17.932  0.00  0.00    +0.000 N 
ATOM     12  C   UNL     1      50.120   2.231  17.157  0.00  0.00    +0.000 C 
ATOM     13  O   UNL     1      49.650   1.645  16.187  0.00  0.00    +0.000 OA
ATOM     14  H   UNL     1      49.703   3.352  18.846  0.00  0.00    +0.000 HD
BRANCH  12  15
ATOM     15  C   UNL     1      51.543   2.122  17.506  0.00  0.00    +0.000 A 
ATOM     16  C   UNL     1      52.115   0.863  17.657  0.00  0.00    +0.000 A 
ATOM     17  S   UNL     1      53.785   0.904  17.998  0.00  0.00    +0.000 S 
ATOM     18  C   UNL     1      53.797   2.606  18.009  0.00  0.00    +0.000 A 
ATOM     19  N   UNL     1      54.941   3.294  18.269  0.00  0.00    +0.000 NA
ATOM     20  C   UNL     1      54.801   4.578  18.270  0.00  0.00    +0.000 A 
ATOM     21  N   UNL     1      53.622   5.234  18.031  0.00  0.00    +0.000 N 
ATOM     22  C   UNL     1      52.446   4.581  17.743  0.00  0.00    +0.000 A 
ATOM     23  O   UNL     1      51.415   5.198  17.502  0.00  0.00    +0.000 OA
ATOM     24  C   UNL     1      52.546   3.134  17.737  0.00  0.00    +0.000 A 
ATOM     25  H   UNL     1      53.583   6.244  18.040  0.00  0.00    +0.000 HD
ENDBRANCH  12  15
ENDBRANCH  10  11
ENDBRANCH   3  10
BRANCH   6  26
ATOM     26  C   UNL     1      47.427   6.645  12.859  0.00  0.00    +0.000 C 
BRANCH  26  27
ATOM     27  N   UNL     1      46.022   6.933  12.526  0.00  0.00    +0.000 NA
ATOM     28  H   UNL     1      45.790   7.843  12.919  0.00  0.00    +0.000 HD
BRANCH  27  29
ATOM     29  C   UNL     1      45.796   6.961  11.082  0.00  0.00    +0.000 C 
BRANCH  29  30
ATOM     30  C   UNL     1      45.347   5.608  10.563  0.00  0.00    +0.000 A 
ATOM     31  C   UNL     1      45.715   5.167   9.282  0.00  0.00    +0.000 A 
ATOM     32  C   UNL     1      45.319   3.907   8.822  0.00  0.00    +0.000 A 
ATOM     33 CL   UNL     1      45.781   3.391   7.245  0.00  0.00    +0.000 Cl
ATOM     34  C   UNL     1      44.559   3.061   9.625  0.00  0.00    +0.000 A 
ATOM     35  C   UNL     1      44.188   3.493  10.895  0.00  0.00    +0.000 A 
ATOM     36 CL   UNL     1      43.253   2.456  11.902  0.00  0.00    +0.000 Cl
ATOM     37  C   UNL     1      44.572   4.753  11.364  0.00  0.00    +0.000 A 
ENDBRANCH  29  30
ENDBRANCH  27  29
ENDBRANCH  26  27
ENDBRANCH   6  26
TORSDOF 9
ENDMDL
MODEL 2
REMARK VINA RESULT:    -6.801      3.973      8.814
REMARK INTER + INTRA:         -12.027
REMARK INTER:                 -10.363
REMARK INTRA:                  -1.664
REMARK UNBOUND:                -1.648
REMARK  Name = 
REMARK  10 active torsions:
REMARK  status: ('A' for Active; 'I' for Inactive)
REMARK    1  A    between atoms: C_1  and  C_2
REMARK    2  A    between atoms: C_2  and  O_3
REMARK    3  A    between atoms: O_3  and  C_4
REMARK    4  A    between atoms: C_6  and  C_7
REMARK    5  A    between atoms: C_7  and  N_8
REMARK    6  A    between atoms: C_9  and  C_11
REMARK    7  A    between atoms: C_23  and  C_24
REMARK    8  A    between atoms: C_24  and  N_25
REMARK    9  A    between atoms: N_25  and  C_26
REMARK   10  A    between atoms: C_26  and  C_27
REMARK                            x       y       z     vdW  Elec       q    Type
REMARK                         _______ _______ _______ _____ _____    ______ ____
ROOT
ATOM      1  C   UNL     1      48.750   8.746  15.813  0.00  0.00    +0.000 A 
ATOM      2  C   UNL     1      47.919   8.674  14.678  0.00  0.00    +0.000 A 
ATOM      3  C   UNL     1      48.378   8.186  13.448  0.00  0.00    +0.000 A 
ATOM      4  C   UNL     1      49.692   7.736  13.361  0.00  0.00    +0.000 A 
ATOM      5  C   UNL     1      50.527   7.777  14.484  0.00  0.00    +0.000 A 
ATOM      6  C   UNL     1      50.075   8.276  15.726  0.00  0.00    +0.000 A 
ENDROOT
BRANCH   1   7
ATOM      7  O   UNL     1      48.323   9.263  17.016  0.00  0.00    +0.000 OA
BRANCH   7   9
ATOM      8  C   UNL     1      47.631  11.145  18.374  0.00  0.00    +0.000 C 
ATOM      9  C   UNL     1      48.346  10.693  17.118  0.00  0.00    +0.000 C 
ENDBRANCH   7   9
ENDBRANCH   1   7
BRANCH   3  10
ATOM     10  C   UNL     1      47.430   8.130  12.276  0.00  0.00    +0.000 C 
BRANCH  10  11
ATOM     11  N   UNL     1      46.761   6.853  12.203  0.00  0.00    +0.000 N 
ATOM     12  C   UNL     1      45.475   6.754  11.731  0.00  0.00    +0.000 C 
ATOM     13  O   UNL     1      44.849   7.734  11.340  0.00  0.00    +0.000 OA
ATOM     14  H   UNL     1      47.160   6.087  12.733  0.00  0.00    +0.000 HD
BRANCH  12  15
ATOM     15  C   UNL     1      44.912   5.399  11.650  0.00  0.00    +0.000 A 
ATOM     16  C   UNL     1      44.277   4.855  12.761  0.00  0.00    +0.000 A 
ATOM     17  S   UNL     1      43.622   3.305  12.487  0.00  0.00    +0.000 S 
ATOM     18  C   UNL     1      44.207   3.279  10.889  0.00  0.00    +0.000 A 
ATOM     19  N   UNL     1      44.005   2.199  10.089  0.00  0.00    +0.000 NA
ATOM     20  C   UNL     1      44.525   2.304   8.911  0.00  0.00    +0.000 A 
ATOM     21  N   UNL     1      45.223   3.393   8.462  0.00  0.00    +0.000 N 
ATOM     22  C   UNL     1      45.434   4.517   9.227  0.00  0.00    +0.000 A 
ATOM     23  O   UNL     1      46.036   5.488   8.785  0.00  0.00    +0.000 OA
ATOM     24  C   UNL     1      44.878   4.447  10.565  0.00  0.00    +0.000 A 
ATOM     25  H   UNL     1      45.598   3.414   7.523  0.00  0.00    +0.000 HD
ENDBRANCH  12  15
ENDBRANCH  10  11
ENDBRANCH   3  10
BRANCH   6  26
ATOM     26  C   UNL     1      51.028   8.235  16.909  0.00  0.00    +0.000 C 
BRANCH  26  27
ATOM     27  N   UNL     1      50.543   7.339  17.972  0.00  0.00    +0.000 NA
ATOM     28  H   UNL     1      49.620   7.006  17.700  0.00  0.00    +0.000 HD
BRANCH  27  29
ATOM     29  C   UNL     1      51.429   6.193  18.168  0.00  0.00    +0.000 C 
BRANCH  29  30
ATOM     30  C   UNL     1      50.750   4.892  17.784  0.00  0.00    +0.000 A 
ATOM     31  C   UNL     1      51.459   3.680  17.778  0.00  0.00    +0.000 A 
ATOM     32  C   UNL     1      50.818   2.482  17.448  0.00  0.00    +0.000 A 
ATOM     33 CL   UNL     1      51.711   1.010  17.444  0.00  0.00    +0.000 Cl
ATOM     34  C   UNL     1      49.463   2.463  17.127  0.00  0.00    +0.000 A 
ATOM     35  C   UNL     1      48.755   3.661  17.128  0.00  0.00    +0.000 A 
ATOM     36 CL   UNL     1      47.077   3.653  16.738  0.00  0.00    +0.000 Cl
ATOM     37  C   UNL     1      49.386   4.866  17.449  0.00  0.00    +0.000 A 
ENDBRANCH  29  30
ENDBRANCH  27  29
ENDBRANCH  26  27
ENDBRANCH   6  26
TORSDOF 9
ENDMDL
MODEL 3
REMARK VINA RESULT:    -6.797      3.881      8.784
REMARK INTER + INTRA:         -12.022
REMARK INTER:                 -10.149
REMARK INTRA:                  -1.872
REMARK UNBOUND:                -1.648
REMARK  Name = 
REMARK  10 active torsions:
REMARK  status: ('A' for Active; 'I' for Inactive)
REMARK    1  A    between atoms: C_1  and  C_2
REMARK    2  A    between atoms: C_2  and  O_3
REMARK    3  A    between atoms: O_3  and  C_4
REMARK    4  A    between atoms: C_6  and  C_7
REMARK    5  A    between atoms: C_7  and  N_8
REMARK    6  A    between atoms: C_9  and  C_11
REMARK    7  A    between atoms: C_23  and  C_24
REMARK    8  A    between atoms: C_24  and  N_25
REMARK    9  A    between atoms: N_25  and  C_26
REMARK   10  A    between atoms: C_26  and  C_27
REMARK                            x       y       z     vdW  Elec       q    Type
REMARK                         _______ _______ _______ _____ _____    ______ ____
ROOT
ATOM      1  C   UNL     1      50.672   8.172  14.225  0.00  0.00    +0.000 A 
ATOM      2  C   UNL     1      49.925   8.050  13.037  0.00  0.00    +0.000 A 
ATOM      3  C   UNL     1      48.525   8.116  13.027  0.00  0.00    +0.000 A 
ATOM      4  C   UNL     1      47.862   8.333  14.231  0.00  0.00    +0.000 A 
ATOM      5  C   UNL     1      48.589   8.481  15.419  0.00  0.00    +0.000 A 
ATOM      6  C   UNL     1      49.999   8.408  15.440  0.00  0.00    +0.000 A 
ENDROOT
BRANCH   1   7
ATOM      7  O   UNL     1      52.045   8.067  14.253  0.00  0.00    +0.000 OA
BRANCH   7   9
ATOM      8  C   UNL     1      52.677  10.379  13.900  0.00  0.00    +0.000 C 
ATOM      9  C   UNL     1      52.752   8.958  13.380  0.00  0.00    +0.000 C 
ENDBRANCH   7   9
ENDBRANCH   1   7
BRANCH   3  10
ATOM     10  C   UNL     1      47.790   7.985  11.717  0.00  0.00    +0.000 C 
BRANCH  10  11
ATOM     11  N   UNL     1      47.063   6.740  11.645  0.00  0.00    +0.000 N 
ATOM     12  C   UNL     1      45.691   6.718  11.683  0.00  0.00    +0.000 C 
ATOM     13  O   UNL     1      45.027   7.747  11.764  0.00  0.00    +0.000 OA
ATOM     14  H   UNL     1      47.582   5.886  11.819  0.00  0.00    +0.000 HD
BRANCH  12  15
ATOM     15  C   UNL     1      45.054   5.401  11.549  0.00  0.00    +0.000 A 
ATOM     16  C   UNL     1      44.367   4.860  12.630  0.00  0.00    +0.000 A 
ATOM     17  S   UNL     1      43.632   3.359  12.295  0.00  0.00    +0.000 S 
ATOM     18  C   UNL     1      44.247   3.349  10.709  0.00  0.00    +0.000 A 
ATOM     19  N   UNL     1      44.001   2.306   9.871  0.00  0.00    +0.000 NA
ATOM     20  C   UNL     1      44.550   2.417   8.707  0.00  0.00    +0.000 A 
ATOM     21  N   UNL     1      45.318   3.478   8.305  0.00  0.00    +0.000 N 
ATOM     22  C   UNL     1      45.576   4.565   9.110  0.00  0.00    +0.000 A 
ATOM     23  O   UNL     1      46.240   5.512   8.709  0.00  0.00    +0.000 OA
ATOM     24  C   UNL     1      44.989   4.486  10.434  0.00  0.00    +0.000 A 
ATOM     25  H   UNL     1      45.712   3.506   7.375  0.00  0.00    +0.000 HD
ENDBRANCH  12  15
ENDBRANCH  10  11
ENDBRANCH   3  10
BRANCH   6  26
ATOM     26  C   UNL     1      50.713   8.633  16.762  0.00  0.00    +0.000 C 
BRANCH  26  27
ATOM     27  N   UNL     1      50.449   7.546  17.720  0.00  0.00    +0.000 NA
ATOM     28  H   UNL     1      49.505   7.205  17.549  0.00  0.00    +0.000 HD
BRANCH  27  29
ATOM     29  C   UNL     1      51.395   6.442  17.570  0.00  0.00    +0.000 C 
BRANCH  29  30
ATOM     30  C   UNL     1      50.681   5.107  17.478  0.00  0.00    +0.000 A 
ATOM     31  C   UNL     1      49.289   5.041  17.310  0.00  0.00    +0.000 A 
ATOM     32  C   UNL     1      48.643   3.806  17.198  0.00  0.00    +0.000 A 
ATOM     33 CL   UNL     1      46.934   3.753  16.998  0.00  0.00    +0.000 Cl
ATOM     34  C   UNL     1      49.366   2.617  17.244  0.00  0.00    +0.000 A 
ATOM     35  C   UNL     1      50.746   2.674  17.412  0.00  0.00    +0.000 A 
ATOM     36 CL   UNL     1      51.654   1.212  17.465  0.00  0.00    +0.000 Cl
ATOM     37  C   UNL     1      51.402   3.902  17.532  0.00  0.00    +0.000 A 
ENDBRANCH  29  30
ENDBRANCH  27  29
ENDBRANCH  26  27
ENDBRANCH   6  26
TORSDOF 9
ENDMDL
MODEL 4
REMARK VINA RESULT:    -6.778      3.177      5.414
REMARK INTER + INTRA:         -11.992
REMARK INTER:                 -10.909
REMARK INTRA:                  -1.083
REMARK UNBOUND:                -1.648
REMARK  Name = 
REMARK  10 active torsions:
REMARK  status: ('A' for Active; 'I' for Inactive)
REMARK    1  A    between atoms: C_1  and  C_2
REMARK    2  A    between atoms: C_2  and  O_3
REMARK    3  A    between atoms: O_3  and  C_4
REMARK    4  A    between atoms: C_6  and  C_7
REMARK    5  A    between atoms: C_7  and  N_8
REMARK    6  A    between atoms: C_9  and  C_11
REMARK    7  A    between atoms: C_23  and  C_24
REMARK    8  A    between atoms: C_24  and  N_25
REMARK    9  A    between atoms: N_25  and  C_26
REMARK   10  A    between atoms: C_26  and  C_27
REMARK                            x       y       z     vdW  Elec       q    Type
REMARK                         _______ _______ _______ _____ _____    ______ ____
ROOT
ATOM      1  C   UNL     1      44.528   7.568  11.433  0.00  0.00    +0.000 A 
ATOM      2  C   UNL     1      45.572   8.195  12.140  0.00  0.00    +0.000 A 
ATOM      3  C   UNL     1      46.508   7.467  12.888  0.00  0.00    +0.000 A 
ATOM      4  C   UNL     1      46.408   6.079  12.906  0.00  0.00    +0.000 A 
ATOM      5  C   UNL     1      45.391   5.437  12.191  0.00  0.00    +0.000 A 
ATOM      6  C   UNL     1      44.438   6.162  11.441  0.00  0.00    +0.000 A 
ENDROOT
BRANCH   1   7
ATOM      7  O   UNL     1      43.577   8.274  10.729  0.00  0.00    +0.000 OA
BRANCH   7   9
ATOM      8  C   UNL     1      43.382  10.423   9.628  0.00  0.00    +0.000 C 
ATOM      9  C   UNL     1      43.578   9.693  10.941  0.00  0.00    +0.000 C 
ENDBRANCH   7   9
ENDBRANCH   1   7
BRANCH   3  10
ATOM     10  C   UNL     1      47.605   8.204  13.614  0.00  0.00    +0.000 C 
BRANCH  10  11
ATOM     11  N   UNL     1      47.951   7.546  14.851  0.00  0.00    +0.000 N 
ATOM     12  C   UNL     1      49.241   7.154  15.107  0.00  0.00    +0.000 C 
ATOM     13  O   UNL     1      50.153   7.359  14.312  0.00  0.00    +0.000 OA
ATOM     14  H   UNL     1      47.192   7.159  15.401  0.00  0.00    +0.000 HD
BRANCH  12  15
ATOM     15  C   UNL     1      49.490   6.541  16.420  0.00  0.00    +0.000 A 
ATOM     16  C   UNL     1      50.388   7.141  17.295  0.00  0.00    +0.000 A 
ATOM     17  S   UNL     1      50.517   6.346  18.798  0.00  0.00    +0.000 S 
ATOM     18  C   UNL     1      49.418   5.139  18.316  0.00  0.00    +0.000 A 
ATOM     19  N   UNL     1      49.098   4.114  19.150  0.00  0.00    +0.000 NA
ATOM     20  C   UNL     1      48.272   3.257  18.647  0.00  0.00    +0.000 A 
ATOM     21  N   UNL     1      47.737   3.336  17.389  0.00  0.00    +0.000 N 
ATOM     22  C   UNL     1      48.015   4.366  16.519  0.00  0.00    +0.000 A 
ATOM     23  O   UNL     1      47.494   4.424  15.412  0.00  0.00    +0.000 OA
ATOM     24  C   UNL     1      48.946   5.353  17.032  0.00  0.00    +0.000 A 
ATOM     25  H   UNL     1      47.088   2.634  17.059  0.00  0.00    +0.000 HD
ENDBRANCH  12  15
ENDBRANCH  10  11
ENDBRANCH   3  10
BRANCH   6  26
ATOM     26  C   UNL     1      43.401   5.385  10.649  0.00  0.00    +0.000 C 
BRANCH  26  27
ATOM     27  N   UNL     1      43.997   4.697   9.492  0.00  0.00    +0.000 NA
ATOM     28  H   UNL     1      44.768   5.269   9.154  0.00  0.00    +0.000 HD
BRANCH  27  29
ATOM     29  C   UNL     1      44.500   3.370   9.843  0.00  0.00    +0.000 C 
BRANCH  29  30
ATOM     30  C   UNL     1      45.349   2.784   8.731  0.00  0.00    +0.000 A 
ATOM     31  C   UNL     1      45.652   1.413   8.698  0.00  0.00    +0.000 A 
ATOM     32  C   UNL     1      46.413   0.878   7.654  0.00  0.00    +0.000 A 
ATOM     33 CL   UNL     1      46.775  -0.805   7.639  0.00  0.00    +0.000 Cl
ATOM     34  C   UNL     1      46.879   1.689   6.623  0.00  0.00    +0.000 A 
ATOM     35  C   UNL     1      46.584   3.049   6.650  0.00  0.00    +0.000 A 
ATOM     36 CL   UNL     1      47.150   4.064   5.379  0.00  0.00    +0.000 Cl
ATOM     37  C   UNL     1      45.831   3.597   7.692  0.00  0.00    +0.000 A 
ENDBRANCH  29  30
ENDBRANCH  27  29
ENDBRANCH  26  27
ENDBRANCH   6  26
TORSDOF 9
ENDMDL
MODEL 5
REMARK VINA RESULT:    -6.770      3.943      8.845
REMARK INTER + INTRA:         -11.979
REMARK INTER:                 -10.229
REMARK INTRA:                  -1.750
REMARK UNBOUND:                -1.648
REMARK  Name = 
REMARK  10 active torsions:
REMARK  status: ('A' for Active; 'I' for Inactive)
REMARK    1  A    between atoms: C_1  and  C_2
REMARK    2  A    between atoms: C_2  and  O_3
REMARK    3  A    between atoms: O_3  and  C_4
REMARK    4  A    between atoms: C_6  and  C_7
REMARK    5  A    between atoms: C_7  and  N_8
REMARK    6  A    between atoms: C_9  and  C_11
REMARK    7  A    between atoms: C_23  and  C_24
REMARK    8  A    between atoms: C_24  and  N_25
REMARK    9  A    between atoms: N_25  and  C_26
REMARK   10  A    between atoms: C_26  and  C_27
REMARK                            x       y       z     vdW  Elec       q    Type
REMARK                         _______ _______ _______ _____ _____    ______ ____
ROOT
ATOM      1  C   UNL     1      51.048   8.464  13.966  0.00  0.00    +0.000 A 
ATOM      2  C   UNL     1      50.123   8.474  12.903  0.00  0.00    +0.000 A 
ATOM      3  C   UNL     1      48.915   7.766  12.960  0.00  0.00    +0.000 A 
ATOM      4  C   UNL     1      48.617   7.054  14.117  0.00  0.00    +0.000 A 
ATOM      5  C   UNL     1      49.512   7.051  15.193  0.00  0.00    +0.000 A 
ATOM      6  C   UNL     1      50.737   7.754  15.142  0.00  0.00    +0.000 A 
ENDROOT
BRANCH   1   7
ATOM      7  O   UNL     1      52.258   9.121  13.905  0.00  0.00    +0.000 OA
BRANCH   7   9
ATOM      8  C   UNL     1      54.258   7.776  13.669  0.00  0.00    +0.000 C 
ATOM      9  C   UNL     1      53.200   8.596  12.960  0.00  0.00    +0.000 C 
ENDBRANCH   7   9
ENDBRANCH   1   7
BRANCH   3  10
ATOM     10  C   UNL     1      47.969   7.829  11.788  0.00  0.00    +0.000 C 
BRANCH  10  11
ATOM     11  N   UNL     1      47.197   6.615  11.671  0.00  0.00    +0.000 N 
ATOM     12  C   UNL     1      45.829   6.631  11.794  0.00  0.00    +0.000 C 
ATOM     13  O   UNL     1      45.207   7.670  11.990  0.00  0.00    +0.000 OA
ATOM     14  H   UNL     1      47.696   5.736  11.749  0.00  0.00    +0.000 HD
BRANCH  12  15
ATOM     15  C   UNL     1      45.141   5.346  11.604  0.00  0.00    +0.000 A 
ATOM     16  C   UNL     1      44.444   4.781  12.666  0.00  0.00    +0.000 A 
ATOM     17  S   UNL     1      43.648   3.327  12.268  0.00  0.00    +0.000 S 
ATOM     18  C   UNL     1      44.248   3.369  10.676  0.00  0.00    +0.000 A 
ATOM     19  N   UNL     1      43.955   2.377   9.793  0.00  0.00    +0.000 NA
ATOM     20  C   UNL     1      44.497   2.523   8.629  0.00  0.00    +0.000 A 
ATOM     21  N   UNL     1      45.302   3.572   8.271  0.00  0.00    +0.000 N 
ATOM     22  C   UNL     1      45.608   4.608   9.122  0.00  0.00    +0.000 A 
ATOM     23  O   UNL     1      46.305   5.548   8.760  0.00  0.00    +0.000 OA
ATOM     24  C   UNL     1      45.031   4.488  10.448  0.00  0.00    +0.000 A 
ATOM     25  H   UNL     1      45.689   3.629   7.338  0.00  0.00    +0.000 HD
ENDBRANCH  12  15
ENDBRANCH  10  11
ENDBRANCH   3  10
BRANCH   6  26
ATOM     26  C   UNL     1      51.626   7.744  16.374  0.00  0.00    +0.000 C 
BRANCH  26  27
ATOM     27  N   UNL     1      50.919   7.225  17.556  0.00  0.00    +0.000 NA
ATOM     28  H   UNL     1      50.003   6.900  17.252  0.00  0.00    +0.000 HD
BRANCH  27  29
ATOM     29  C   UNL     1      51.639   6.118  18.183  0.00  0.00    +0.000 C 
BRANCH  29  30
ATOM     30  C   UNL     1      51.003   4.781  17.850  0.00  0.00    +0.000 A 
ATOM     31  C   UNL     1      51.786   3.624  17.710  0.00  0.00    +0.000 A 
ATOM     32  C   UNL     1      51.188   2.391  17.429  0.00  0.00    +0.000 A 
ATOM     33 CL   UNL     1      52.171   0.987  17.258  0.00  0.00    +0.000 Cl
ATOM     34  C   UNL     1      49.807   2.283  17.291  0.00  0.00    +0.000 A 
ATOM     35  C   UNL     1      49.026   3.426  17.426  0.00  0.00    +0.000 A 
ATOM     36 CL   UNL     1      47.315   3.307  17.263  0.00  0.00    +0.000 Cl
ATOM     37  C   UNL     1      49.611   4.666  17.699  0.00  0.00    +0.000 A 
ENDBRANCH  29  30
ENDBRANCH  27  29
ENDBRANCH  26  27
ENDBRANCH   6  26
TORSDOF 9
ENDMDL
MODEL 6
REMARK VINA RESULT:    -6.696      4.275      8.754
REMARK INTER + INTRA:         -11.867
REMARK INTER:                  -9.317
REMARK INTRA:                  -2.550
REMARK UNBOUND:                -1.648
REMARK  Name = 
REMARK  10 active torsions:
REMARK  status: ('A' for Active; 'I' for Inactive)
REMARK    1  A    between atoms: C_1  and  C_2
REMARK    2  A    between atoms: C_2  and  O_3
REMARK    3  A    between atoms: O_3  and  C_4
REMARK    4  A    between atoms: C_6  and  C_7
REMARK    5  A    between atoms: C_7  and  N_8
REMARK    6  A    between atoms: C_9  and  C_11
REMARK    7  A    between atoms: C_23  and  C_24
REMARK    8  A    between atoms: C_24  and  N_25
REMARK    9  A    between atoms: N_25  and  C_26
REMARK   10  A    between atoms: C_26  and  C_27
REMARK                            x       y       z     vdW  Elec       q    Type
REMARK                         _______ _______ _______ _____ _____    ______ ____
ROOT
ATOM      1  C   UNL     1      50.255   4.758  18.559  0.00  0.00    +0.000 A 
ATOM      2  C   UNL     1      48.937   4.560  18.104  0.00  0.00    +0.000 A 
ATOM      3  C   UNL     1      48.583   3.470  17.298  0.00  0.00    +0.000 A 
ATOM      4  C   UNL     1      49.567   2.544  16.964  0.00  0.00    +0.000 A 
ATOM      5  C   UNL     1      50.877   2.711  17.426  0.00  0.00    +0.000 A 
ATOM      6  C   UNL     1      51.246   3.812  18.231  0.00  0.00    +0.000 A 
ENDROOT
BRANCH   1   7
ATOM      7  O   UNL     1      50.625   5.849  19.315  0.00  0.00    +0.000 OA
BRANCH   7   9
ATOM      8  C   UNL     1      50.595   8.238  19.709  0.00  0.00    +0.000 C 
ATOM      9  C   UNL     1      49.915   7.063  19.038  0.00  0.00    +0.000 C 
ENDBRANCH   7   9
ENDBRANCH   1   7
BRANCH   3  10
ATOM     10  C   UNL     1      47.150   3.316  16.854  0.00  0.00    +0.000 C 
BRANCH  10  11
ATOM     11  N   UNL     1      46.783   4.338  15.903  0.00  0.00    +0.000 N 
ATOM     12  C   UNL     1      46.879   4.115  14.551  0.00  0.00    +0.000 C 
ATOM     13  O   UNL     1      47.261   3.042  14.095  0.00  0.00    +0.000 OA
ATOM     14  H   UNL     1      46.699   5.288  16.248  0.00  0.00    +0.000 HD
BRANCH  12  15
ATOM     15  C   UNL     1      46.428   5.205  13.675  0.00  0.00    +0.000 A 
ATOM     16  C   UNL     1      47.270   6.286  13.441  0.00  0.00    +0.000 A 
ATOM     17  S   UNL     1      46.630   7.433  12.354  0.00  0.00    +0.000 S 
ATOM     18  C   UNL     1      45.180   6.556  12.197  0.00  0.00    +0.000 A 
ATOM     19  N   UNL     1      44.170   7.013  11.410  0.00  0.00    +0.000 NA
ATOM     20  C   UNL     1      43.118   6.261  11.402  0.00  0.00    +0.000 A 
ATOM     21  N   UNL     1      42.990   5.094  12.108  0.00  0.00    +0.000 N 
ATOM     22  C   UNL     1      43.993   4.582  12.900  0.00  0.00    +0.000 A 
ATOM     23  O   UNL     1      43.858   3.519  13.493  0.00  0.00    +0.000 OA
ATOM     24  C   UNL     1      45.194   5.394  12.950  0.00  0.00    +0.000 A 
ATOM     25  H   UNL     1      42.141   4.549  12.052  0.00  0.00    +0.000 HD
ENDBRANCH  12  15
ENDBRANCH  10  11
ENDBRANCH   3  10
BRANCH   6  26
ATOM     26  C   UNL     1      52.677   3.889  18.736  0.00  0.00    +0.000 C 
BRANCH  26  27
ATOM     27  N   UNL     1      53.254   5.230  18.545  0.00  0.00    +0.000 NA
ATOM     28  H   UNL     1      54.148   5.255  19.032  0.00  0.00    +0.000 HD
BRANCH  27  29
ATOM     29  C   UNL     1      53.465   5.539  17.132  0.00  0.00    +0.000 C 
BRANCH  29  30
ATOM     30  C   UNL     1      52.904   6.902  16.771  0.00  0.00    +0.000 A 
ATOM     31  C   UNL     1      51.798   7.024  15.914  0.00  0.00    +0.000 A 
ATOM     32  C   UNL     1      51.271   8.282  15.609  0.00  0.00    +0.000 A 
ATOM     33 CL   UNL     1      49.917   8.406  14.551  0.00  0.00    +0.000 Cl
ATOM     34  C   UNL     1      51.825   9.439  16.152  0.00  0.00    +0.000 A 
ATOM     35  C   UNL     1      52.922   9.325  17.000  0.00  0.00    +0.000 A 
ATOM     36 CL   UNL     1      53.614  10.746  17.684  0.00  0.00    +0.000 Cl
ATOM     37  C   UNL     1      53.463   8.074  17.308  0.00  0.00    +0.000 A 
ENDBRANCH  29  30
ENDBRANCH  27  29
ENDBRANCH  26  27
ENDBRANCH   6  26
TORSDOF 9
ENDMDL
MODEL 7
REMARK VINA RESULT:    -6.604      5.227      7.482
REMARK INTER + INTRA:         -11.726
REMARK INTER:                  -9.813
REMARK INTRA:                  -1.913
REMARK UNBOUND:                -1.648
REMARK  Name = 
REMARK  10 active torsions:
REMARK  status: ('A' for Active; 'I' for Inactive)
REMARK    1  A    between atoms: C_1  and  C_2
REMARK    2  A    between atoms: C_2  and  O_3
REMARK    3  A    between atoms: O_3  and  C_4
REMARK    4  A    between atoms: C_6  and  C_7
REMARK    5  A    between atoms: C_7  and  N_8
REMARK    6  A    between atoms: C_9  and  C_11
REMARK    7  A    between atoms: C_23  and  C_24
REMARK    8  A    between atoms: C_24  and  N_25
REMARK    9  A    between atoms: N_25  and  C_26
REMARK   10  A    between atoms: C_26  and  C_27
REMARK                            x       y       z     vdW  Elec       q    Type
REMARK                         _______ _______ _______ _____ _____    ______ ____
ROOT
ATOM      1  C   UNL     1      48.150   7.478  13.250  0.00  0.00    +0.000 A 
ATOM      2  C   UNL     1      49.527   7.490  12.956  0.00  0.00    +0.000 A 
ATOM      3  C   UNL     1      50.102   8.455  12.119  0.00  0.00    +0.000 A 
ATOM      4  C   UNL     1      49.281   9.445  11.585  0.00  0.00    +0.000 A 
ATOM      5  C   UNL     1      47.914   9.464  11.885  0.00  0.00    +0.000 A 
ATOM      6  C   UNL     1      47.324   8.489  12.721  0.00  0.00    +0.000 A 
ENDROOT
BRANCH   1   7
ATOM      7  O   UNL     1      47.566   6.510  14.038  0.00  0.00    +0.000 OA
BRANCH   7   9
ATOM      8  C   UNL     1      46.556   4.319  14.250  0.00  0.00    +0.000 C 
ATOM      9  C   UNL     1      47.505   5.198  13.462  0.00  0.00    +0.000 C 
ENDBRANCH   7   9
ENDBRANCH   1   7
BRANCH   3  10
ATOM     10  C   UNL     1      51.586   8.412  11.854  0.00  0.00    +0.000 C 
BRANCH  10  11
ATOM     11  N   UNL     1      51.865   8.014  10.495  0.00  0.00    +0.000 N 
ATOM     12  C   UNL     1      52.798   8.679   9.740  0.00  0.00    +0.000 C 
ATOM     13  O   UNL     1      53.443   9.624  10.186  0.00  0.00    +0.000 OA
ATOM     14  H   UNL     1      51.191   7.410  10.038  0.00  0.00    +0.000 HD
BRANCH  12  15
ATOM     15  C   UNL     1      53.040   8.156   8.388  0.00  0.00    +0.000 A 
ATOM     16  C   UNL     1      52.948   9.012   7.297  0.00  0.00    +0.000 A 
ATOM     17  S   UNL     1      53.319   8.269   5.808  0.00  0.00    +0.000 S 
ATOM     18  C   UNL     1      53.565   6.762   6.558  0.00  0.00    +0.000 A 
ATOM     19  N   UNL     1      53.892   5.663   5.826  0.00  0.00    +0.000 NA
ATOM     20  C   UNL     1      54.024   4.581   6.520  0.00  0.00    +0.000 A 
ATOM     21  N   UNL     1      53.862   4.502   7.878  0.00  0.00    +0.000 N 
ATOM     22  C   UNL     1      53.553   5.590   8.662  0.00  0.00    +0.000 A 
ATOM     23  O   UNL     1      53.446   5.492   9.878  0.00  0.00    +0.000 OA
ATOM     24  C   UNL     1      53.384   6.831   7.929  0.00  0.00    +0.000 A 
ATOM     25  H   UNL     1      53.988   3.623   8.362  0.00  0.00    +0.000 HD
ENDBRANCH  12  15
ENDBRANCH  10  11
ENDBRANCH   3  10
BRANCH   6  26
ATOM     26  C   UNL     1      45.844   8.614  13.040  0.00  0.00    +0.000 C 
BRANCH  26  27
ATOM     27  N   UNL     1      45.085   7.436  12.588  0.00  0.00    +0.000 NA
ATOM     28  H   UNL     1      44.118   7.557  12.884  0.00  0.00    +0.000 HD
BRANCH  27  29
ATOM     29  C   UNL     1      45.129   7.280  11.136  0.00  0.00    +0.000 C 
BRANCH  29  30
ATOM     30  C   UNL     1      44.979   5.826  10.728  0.00  0.00    +0.000 A 
ATOM     31  C   UNL     1      45.533   5.352   9.528  0.00  0.00    +0.000 A 
ATOM     32  C   UNL     1      45.412   4.005   9.173  0.00  0.00    +0.000 A 
ATOM     33 CL   UNL     1      46.096   3.448   7.694  0.00  0.00    +0.000 Cl
ATOM     34  C   UNL     1      44.748   3.105  10.003  0.00  0.00    +0.000 A 
ATOM     35  C   UNL     1      44.195   3.569  11.193  0.00  0.00    +0.000 A 
ATOM     36 CL   UNL     1      43.376   2.467  12.232  0.00  0.00    +0.000 Cl
ATOM     37  C   UNL     1      44.303   4.915  11.555  0.00  0.00    +0.000 A 
ENDBRANCH  29  30
ENDBRANCH  27  29
ENDBRANCH  26  27
ENDBRANCH   6  26
TORSDOF 9
ENDMDL
MODEL 8
REMARK VINA RESULT:    -6.405      3.600      5.665
REMARK INTER + INTRA:         -11.422
REMARK INTER:                  -9.836
REMARK INTRA:                  -1.586
REMARK UNBOUND:                -1.648
REMARK  Name = 
REMARK  10 active torsions:
REMARK  status: ('A' for Active; 'I' for Inactive)
REMARK    1  A    between atoms: C_1  and  C_2
REMARK    2  A    between atoms: C_2  and  O_3
REMARK    3  A    between atoms: O_3  and  C_4
REMARK    4  A    between atoms: C_6  and  C_7
REMARK    5  A    between atoms: C_7  and  N_8
REMARK    6  A    between atoms: C_9  and  C_11
REMARK    7  A    between atoms: C_23  and  C_24
REMARK    8  A    between atoms: C_24  and  N_25
REMARK    9  A    between atoms: N_25  and  C_26
REMARK   10  A    between atoms: C_26  and  C_27
REMARK                            x       y       z     vdW  Elec       q    Type
REMARK                         _______ _______ _______ _____ _____    ______ ____
ROOT
ATOM      1  C   UNL     1      44.600   5.786  12.800  0.00  0.00    +0.000 A 
ATOM      2  C   UNL     1      45.168   4.710  13.510  0.00  0.00    +0.000 A 
ATOM      3  C   UNL     1      46.534   4.660  13.818  0.00  0.00    +0.000 A 
ATOM      4  C   UNL     1      47.343   5.723  13.428  0.00  0.00    +0.000 A 
ATOM      5  C   UNL     1      46.792   6.812  12.742  0.00  0.00    +0.000 A 
ATOM      6  C   UNL     1      45.418   6.868  12.419  0.00  0.00    +0.000 A 
ENDROOT
BRANCH   1   7
ATOM      7  O   UNL     1      43.267   5.827  12.454  0.00  0.00    +0.000 OA
BRANCH   7   9
ATOM      8  C   UNL     1      43.764   4.716  10.360  0.00  0.00    +0.000 C 
ATOM      9  C   UNL     1      42.831   4.803  11.550  0.00  0.00    +0.000 C 
ENDBRANCH   7   9
ENDBRANCH   1   7
BRANCH   3  10
ATOM     10  C   UNL     1      47.073   3.481  14.588  0.00  0.00    +0.000 C 
BRANCH  10  11
ATOM     11  N   UNL     1      48.064   3.893  15.554  0.00  0.00    +0.000 N 
ATOM     12  C   UNL     1      47.820   3.798  16.902  0.00  0.00    +0.000 C 
ATOM     13  O   UNL     1      46.767   3.349  17.342  0.00  0.00    +0.000 OA
ATOM     14  H   UNL     1      48.823   4.477  15.223  0.00  0.00    +0.000 HD
BRANCH  12  15
ATOM     15  C   UNL     1      48.919   4.196  17.794  0.00  0.00    +0.000 A 
ATOM     16  C   UNL     1      48.763   5.306  18.617  0.00  0.00    +0.000 A 
ATOM     17  S   UNL     1      50.098   5.598  19.636  0.00  0.00    +0.000 S 
ATOM     18  C   UNL     1      50.957   4.284  18.979  0.00  0.00    +0.000 A 
ATOM     19  N   UNL     1      52.213   3.988  19.407  0.00  0.00    +0.000 NA
ATOM     20  C   UNL     1      52.757   2.982  18.805  0.00  0.00    +0.000 A 
ATOM     21  N   UNL     1      52.155   2.245  17.819  0.00  0.00    +0.000 N 
ATOM     22  C   UNL     1      50.879   2.494  17.370  0.00  0.00    +0.000 A 
ATOM     23  O   UNL     1      50.357   1.796  16.509  0.00  0.00    +0.000 OA
ATOM     24  C   UNL     1      50.225   3.621  18.008  0.00  0.00    +0.000 A 
ATOM     25  H   UNL     1      52.635   1.463  17.394  0.00  0.00    +0.000 HD
ENDBRANCH  12  15
ENDBRANCH  10  11
ENDBRANCH   3  10
BRANCH   6  26
ATOM     26  C   UNL     1      44.890   8.111  11.722  0.00  0.00    +0.000 C 
BRANCH  26  27
ATOM     27  N   UNL     1      45.070   9.318  12.545  0.00  0.00    +0.000 NA
ATOM     28  H   UNL     1      45.668   9.072  13.332  0.00  0.00    +0.000 HD
BRANCH  27  29
ATOM     29  C   UNL     1      45.689  10.408  11.792  0.00  0.00    +0.000 C 
BRANCH  29  30
ATOM     30  C   UNL     1      47.191  10.446  12.002  0.00  0.00    +0.000 A 
ATOM     31  C   UNL     1      47.766   9.976  13.193  0.00  0.00    +0.000 A 
ATOM     32  C   UNL     1      49.154   9.991  13.367  0.00  0.00    +0.000 A 
ATOM     33 CL   UNL     1      49.835   9.413  14.839  0.00  0.00    +0.000 Cl
ATOM     34  C   UNL     1      49.994  10.464  12.362  0.00  0.00    +0.000 A 
ATOM     35  C   UNL     1      49.429  10.933  11.179  0.00  0.00    +0.000 A 
ATOM     36 CL   UNL     1      50.456  11.516   9.925  0.00  0.00    +0.000 Cl
ATOM     37  C   UNL     1      48.044  10.930  10.996  0.00  0.00    +0.000 A 
ENDBRANCH  29  30
ENDBRANCH  27  29
ENDBRANCH  26  27
ENDBRANCH   6  26
TORSDOF 9
ENDMDL
MODEL 9
REMARK VINA RESULT:    -6.312      3.419      4.937
REMARK INTER + INTRA:         -11.281
REMARK INTER:                 -10.225
REMARK INTRA:                  -1.056
REMARK UNBOUND:                -1.648
REMARK  Name = 
REMARK  10 active torsions:
REMARK  status: ('A' for Active; 'I' for Inactive)
REMARK    1  A    between atoms: C_1  and  C_2
REMARK    2  A    between atoms: C_2  and  O_3
REMARK    3  A    between atoms: O_3  and  C_4
REMARK    4  A    between atoms: C_6  and  C_7
REMARK    5  A    between atoms: C_7  and  N_8
REMARK    6  A    between atoms: C_9  and  C_11
REMARK    7  A    between atoms: C_23  and  C_24
REMARK    8  A    between atoms: C_24  and  N_25
REMARK    9  A    between atoms: N_25  and  C_26
REMARK   10  A    between atoms: C_26  and  C_27
REMARK                            x       y       z     vdW  Elec       q    Type
REMARK                         _______ _______ _______ _____ _____    ______ ____
ROOT
ATOM      1  C   UNL     1      45.221   5.819  12.245  0.00  0.00    +0.000 A 
ATOM      2  C   UNL     1      46.270   6.612  12.750  0.00  0.00    +0.000 A 
ATOM      3  C   UNL     1      47.224   6.105  13.642  0.00  0.00    +0.000 A 
ATOM      4  C   UNL     1      47.140   4.766  14.014  0.00  0.00    +0.000 A 
ATOM      5  C   UNL     1      46.120   3.956  13.504  0.00  0.00    +0.000 A 
ATOM      6  C   UNL     1      45.147   4.461  12.611  0.00  0.00    +0.000 A 
ENDROOT
BRANCH   1   7
ATOM      7  O   UNL     1      44.253   6.317  11.401  0.00  0.00    +0.000 OA
BRANCH   7   9
ATOM      8  C   UNL     1      44.421   8.707  11.050  0.00  0.00    +0.000 C 
ATOM      9  C   UNL     1      43.702   7.587  11.773  0.00  0.00    +0.000 C 
ENDBRANCH   7   9
ENDBRANCH   1   7
BRANCH   3  10
ATOM     10  C   UNL     1      48.325   7.009  14.137  0.00  0.00    +0.000 C 
BRANCH  10  11
ATOM     11  N   UNL     1      48.474   6.919  15.570  0.00  0.00    +0.000 N 
ATOM     12  C   UNL     1      49.712   6.775  16.145  0.00  0.00    +0.000 C 
ATOM     13  O   UNL     1      50.739   6.733  15.475  0.00  0.00    +0.000 OA
ATOM     14  H   UNL     1      47.643   6.712  16.113  0.00  0.00    +0.000 HD
BRANCH  12  15
ATOM     15  C   UNL     1      49.752   6.747  17.614  0.00  0.00    +0.000 A 
ATOM     16  C   UNL     1      50.293   7.826  18.303  0.00  0.00    +0.000 A 
ATOM     17  S   UNL     1      50.207   7.670  19.999  0.00  0.00    +0.000 S 
ATOM     18  C   UNL     1      49.492   6.130  19.877  0.00  0.00    +0.000 A 
ATOM     19  N   UNL     1      49.177   5.416  20.990  0.00  0.00    +0.000 NA
ATOM     20  C   UNL     1      48.664   4.255  20.751  0.00  0.00    +0.000 A 
ATOM     21  N   UNL     1      48.436   3.747  19.499  0.00  0.00    +0.000 N 
ATOM     22  C   UNL     1      48.718   4.441  18.345  0.00  0.00    +0.000 A 
ATOM     23  O   UNL     1      48.472   3.971  17.241  0.00  0.00    +0.000 OA
ATOM     24  C   UNL     1      49.305   5.750  18.558  0.00  0.00    +0.000 A 
ATOM     25  H   UNL     1      48.024   2.831  19.381  0.00  0.00    +0.000 HD
ENDBRANCH  12  15
ENDBRANCH  10  11
ENDBRANCH   3  10
BRANCH   6  26
ATOM     26  C   UNL     1      44.106   3.501  12.061  0.00  0.00    +0.000 C 
BRANCH  26  27
ATOM     27  N   UNL     1      44.626   2.719  10.927  0.00  0.00    +0.000 NA
ATOM     28  H   UNL     1      44.099   1.849  10.881  0.00  0.00    +0.000 HD
BRANCH  27  29
ATOM     29  C   UNL     1      44.488   3.434   9.660  0.00  0.00    +0.000 C 
BRANCH  29  30
ATOM     30  C   UNL     1      45.317   2.790   8.565  0.00  0.00    +0.000 A 
ATOM     31  C   UNL     1      45.801   3.547   7.485  0.00  0.00    +0.000 A 
ATOM     32  C   UNL     1      46.587   2.950   6.494  0.00  0.00    +0.000 A 
ATOM     33 CL   UNL     1      47.165   3.898   5.179  0.00  0.00    +0.000 Cl
ATOM     34  C   UNL     1      46.911   1.597   6.559  0.00  0.00    +0.000 A 
ATOM     35  C   UNL     1      46.433   0.841   7.625  0.00  0.00    +0.000 A 
ATOM     36 CL   UNL     1      46.830  -0.832   7.722  0.00  0.00    +0.000 Cl
ATOM     37  C   UNL     1      45.641   1.424   8.618  0.00  0.00    +0.000 A 
ENDBRANCH  29  30
ENDBRANCH  27  29
ENDBRANCH  26  27
ENDBRANCH   6  26
TORSDOF 9
ENDMDL
