MODEL 1
REMARK VINA RESULT:    -9.363      0.000      0.000
REMARK INTER + INTRA:         -12.153
REMARK INTER:                 -11.553
REMARK INTRA:                  -0.601
REMARK UNBOUND:                -0.601
REMARK  Name = 
REMARK  4 active torsions:
REMARK  status: ('A' for Active; 'I' for Inactive)
REMARK    1  A    between atoms: C_2  and  C_4
REMARK    2  A    between atoms: N_8  and  C_9
REMARK    3  A    between atoms: C_9  and  C_10
REMARK    4  A    between atoms: C_15  and  C_16
REMARK                            x       y       z     vdW  Elec       q    Type
REMARK                         _______ _______ _______ _____ _____    ______ ____
ROOT
ATOM      1  C   UNL     1      43.634   4.470  11.129  0.00  0.00    +0.000 C 
ENDROOT
BRANCH   1   6
ATOM      2  C   UNL     1      46.382   2.284   7.691  0.00  0.00    +0.000 A 
ATOM      3  C   UNL     1      45.593   1.830   8.717  0.00  0.00    +0.000 A 
ATOM      4  N   UNL     1      44.750   2.620   9.407  0.00  0.00    +0.000 NA
ATOM      5  C   UNL     1      44.699   3.918   9.069  0.00  0.00    +0.000 A 
ATOM      6  N   UNL     1      43.812   4.756   9.719  0.00  0.00    +0.000 N 
ATOM      7  N   UNL     1      45.446   4.462   8.100  0.00  0.00    +0.000 NA
ATOM      8  C   UNL     1      46.281   3.630   7.430  0.00  0.00    +0.000 A 
ATOM      9  H   UNL     1      44.078   5.711   9.505  0.00  0.00    +0.000 HD
BRANCH   2  11
ATOM     10  N   UNL     1      48.422   2.005   6.410  0.00  0.00    +0.000 N 
ATOM     11  C   UNL     1      47.305   1.423   6.941  0.00  0.00    +0.000 C 
ATOM     12  O   UNL     1      47.091   0.225   6.821  0.00  0.00    +0.000 OA
ATOM     13  H   UNL     1      49.086   1.379   5.965  0.00  0.00    +0.000 HD
ATOM     14  H   UNL     1      48.766   2.916   6.680  0.00  0.00    +0.000 HD
ENDBRANCH   2  11
ENDBRANCH   1   6
BRANCH   1  15
ATOM     15  C   UNL     1      44.896   4.826  11.877  0.00  0.00    +0.000 A 
ATOM     16  C   UNL     1      45.468   3.943  12.792  0.00  0.00    +0.000 A 
ATOM     17  C   UNL     1      46.608   4.325  13.485  0.00  0.00    +0.000 A 
ATOM     18  F   UNL     1      47.151   3.478  14.369  0.00  0.00    +0.000 F 
ATOM     19  C   UNL     1      47.197   5.573  13.286  0.00  0.00    +0.000 A 
ATOM     20  C   UNL     1      46.645   6.498  12.386  0.00  0.00    +0.000 A 
ATOM     21  C   UNL     1      45.484   6.096  11.696  0.00  0.00    +0.000 A 
BRANCH  20  22
ATOM     22  C   UNL     1      47.244   7.836  12.176  0.00  0.00    +0.000 A 
ATOM     23  C   UNL     1      48.580   8.008  11.778  0.00  0.00    +0.000 A 
ATOM     24  C   UNL     1      49.109   9.284  11.576  0.00  0.00    +0.000 A 
ATOM     25  C   UNL     1      48.289  10.376  11.790  0.00  0.00    +0.000 A 
ATOM     26  N   UNL     1      47.003  10.274  12.177  0.00  0.00    +0.000 NA
ATOM     27  C   UNL     1      46.519   9.019  12.354  0.00  0.00    +0.000 A 
ENDBRANCH  20  22
ENDBRANCH   1  15
TORSDOF 4
ENDMDL
MODEL 2
REMARK VINA RESULT:    -8.856      2.320      3.620
REMARK INTER + INTRA:         -11.528
REMARK INTER:                 -10.832
REMARK INTRA:                  -0.696
REMARK UNBOUND:                -0.601
REMARK  Name = 
REMARK  4 active torsions:
REMARK  status: ('A' for Active; 'I' for Inactive)
REMARK    1  A    between atoms: C_2  and  C_4
REMARK    2  A    between atoms: N_8  and  C_9
REMARK    3  A    between atoms: C_9  and  C_10
REMARK    4  A    between atoms: C_15  and  C_16
REMARK                            x       y       z     vdW  Elec       q    Type
REMARK                         _______ _______ _______ _____ _____    ______ ____
ROOT
ATOM      1  C   UNL     1      43.847   4.479  11.245  0.00  0.00    +0.000 C 
ENDROOT
BRANCH   1   6
ATOM      2  C   UNL     1      46.424   2.329   7.655  0.00  0.00    +0.000 A 
ATOM      3  C   UNL     1      45.734   1.867   8.746  0.00  0.00    +0.000 A 
ATOM      4  N   UNL     1      44.911   2.637   9.481  0.00  0.00    +0.000 NA
ATOM      5  C   UNL     1      44.779   3.924   9.122  0.00  0.00    +0.000 A 
ATOM      6  N   UNL     1      43.907   4.739   9.820  0.00  0.00    +0.000 N 
ATOM      7  N   UNL     1      45.427   4.476   8.088  0.00  0.00    +0.000 NA
ATOM      8  C   UNL     1      46.244   3.664   7.374  0.00  0.00    +0.000 A 
ATOM      9  H   UNL     1      44.114   5.699   9.567  0.00  0.00    +0.000 HD
BRANCH   2  11
ATOM     10  N   UNL     1      48.393   2.100   6.258  0.00  0.00    +0.000 N 
ATOM     11  C   UNL     1      47.324   1.490   6.855  0.00  0.00    +0.000 C 
ATOM     12  O   UNL     1      47.137   0.286   6.751  0.00  0.00    +0.000 OA
ATOM     13  H   UNL     1      49.046   1.490   5.776  0.00  0.00    +0.000 HD
ATOM     14  H   UNL     1      48.726   3.021   6.505  0.00  0.00    +0.000 HD
ENDBRANCH   2  11
ENDBRANCH   1   6
BRANCH   1  15
ATOM     15  C   UNL     1      44.858   5.347  11.956  0.00  0.00    +0.000 A 
ATOM     16  C   UNL     1      45.128   6.644  11.523  0.00  0.00    +0.000 A 
ATOM     17  C   UNL     1      46.092   7.395  12.183  0.00  0.00    +0.000 A 
ATOM     18  F   UNL     1      46.355   8.638  11.760  0.00  0.00    +0.000 F 
ATOM     19  C   UNL     1      46.795   6.882  13.271  0.00  0.00    +0.000 A 
ATOM     20  C   UNL     1      46.565   5.575  13.730  0.00  0.00    +0.000 A 
ATOM     21  C   UNL     1      45.589   4.825  13.044  0.00  0.00    +0.000 A 
BRANCH  20  22
ATOM     22  C   UNL     1      47.317   5.004  14.871  0.00  0.00    +0.000 A 
ATOM     23  C   UNL     1      47.134   3.681  15.306  0.00  0.00    +0.000 A 
ATOM     24  C   UNL     1      47.870   3.171  16.377  0.00  0.00    +0.000 A 
ATOM     25  C   UNL     1      48.775   4.003  17.008  0.00  0.00    +0.000 A 
ATOM     26  N   UNL     1      48.989   5.281  16.640  0.00  0.00    +0.000 NA
ATOM     27  C   UNL     1      48.264   5.741  15.589  0.00  0.00    +0.000 A 
ENDBRANCH  20  22
ENDBRANCH   1  15
TORSDOF 4
ENDMDL
MODEL 3
REMARK VINA RESULT:    -7.990      3.413      7.177
REMARK INTER + INTRA:         -10.459
REMARK INTER:                 -10.190
REMARK INTRA:                  -0.269
REMARK UNBOUND:                -0.601
REMARK  Name = 
REMARK  4 active torsions:
REMARK  status: ('A' for Active; 'I' for Inactive)
REMARK    1  A    between atoms: C_2  and  C_4
REMARK    2  A    between atoms: N_8  and  C_9
REMARK    3  A    between atoms: C_9  and  C_10
REMARK    4  A    between atoms: C_15  and  C_16
REMARK                            x       y       z     vdW  Elec       q    Type
REMARK                         _______ _______ _______ _____ _____    ______ ____
ROOT
ATOM      1  C   UNL     1      45.025   6.360  11.204  0.00  0.00    +0.000 C 
ENDROOT
BRANCH   1   6
ATOM      2  C   UNL     1      47.837   5.565  15.155  0.00  0.00    +0.000 A 
ATOM      3  C   UNL     1      46.818   4.873  14.550  0.00  0.00    +0.000 A 
ATOM      4  N   UNL     1      46.334   5.183  13.334  0.00  0.00    +0.000 NA
ATOM      5  C   UNL     1      46.878   6.234  12.698  0.00  0.00    +0.000 A 
ATOM      6  N   UNL     1      46.444   6.558  11.426  0.00  0.00    +0.000 N 
ATOM      7  N   UNL     1      47.859   6.986  13.213  0.00  0.00    +0.000 NA
ATOM      8  C   UNL     1      48.318   6.637  14.440  0.00  0.00    +0.000 A 
ATOM      9  H   UNL     1      46.786   7.489  11.213  0.00  0.00    +0.000 HD
BRANCH   2  11
ATOM     10  N   UNL     1      47.950   5.993  17.539  0.00  0.00    +0.000 N 
ATOM     11  C   UNL     1      48.363   5.228  16.483  0.00  0.00    +0.000 C 
ATOM     12  O   UNL     1      49.121   4.281  16.639  0.00  0.00    +0.000 OA
ATOM     13  H   UNL     1      48.262   5.695  18.458  0.00  0.00    +0.000 HD
ATOM     14  H   UNL     1      47.156   6.616  17.507  0.00  0.00    +0.000 HD
ENDBRANCH   2  11
ENDBRANCH   1   6
BRANCH   1  15
ATOM     15  C   UNL     1      44.790   4.966  10.674  0.00  0.00    +0.000 A 
ATOM     16  C   UNL     1      43.915   4.088  11.313  0.00  0.00    +0.000 A 
ATOM     17  C   UNL     1      43.757   2.803  10.813  0.00  0.00    +0.000 A 
ATOM     18  F   UNL     1      42.921   1.959  11.433  0.00  0.00    +0.000 F 
ATOM     19  C   UNL     1      44.452   2.368   9.686  0.00  0.00    +0.000 A 
ATOM     20  C   UNL     1      45.354   3.215   9.023  0.00  0.00    +0.000 A 
ATOM     21  C   UNL     1      45.508   4.514   9.546  0.00  0.00    +0.000 A 
BRANCH  20  22
ATOM     22  C   UNL     1      46.118   2.765   7.836  0.00  0.00    +0.000 A 
ATOM     23  C   UNL     1      46.329   3.591   6.720  0.00  0.00    +0.000 A 
ATOM     24  C   UNL     1      47.065   3.140   5.624  0.00  0.00    +0.000 A 
ATOM     25  C   UNL     1      47.573   1.855   5.656  0.00  0.00    +0.000 A 
ATOM     26  N   UNL     1      47.399   1.015   6.695  0.00  0.00    +0.000 NA
ATOM     27  C   UNL     1      46.687   1.490   7.748  0.00  0.00    +0.000 A 
ENDBRANCH  20  22
ENDBRANCH   1  15
TORSDOF 4
ENDMDL
MODEL 4
REMARK VINA RESULT:    -7.808      3.086      6.914
REMARK INTER + INTRA:         -10.235
REMARK INTER:                  -9.540
REMARK INTRA:                  -0.695
REMARK UNBOUND:                -0.601
REMARK  Name = 
REMARK  4 active torsions:
REMARK  status: ('A' for Active; 'I' for Inactive)
REMARK    1  A    between atoms: C_2  and  C_4
REMARK    2  A    between atoms: N_8  and  C_9
REMARK    3  A    between atoms: C_9  and  C_10
REMARK    4  A    between atoms: C_15  and  C_16
REMARK                            x       y       z     vdW  Elec       q    Type
REMARK                         _______ _______ _______ _____ _____    ______ ____
ROOT
ATOM      1  C   UNL     1      44.573   6.548  11.315  0.00  0.00    +0.000 C 
ENDROOT
BRANCH   1   6
ATOM      2  C   UNL     1      49.129   7.541  12.867  0.00  0.00    +0.000 A 
ATOM      3  C   UNL     1      48.305   8.079  11.912  0.00  0.00    +0.000 A 
ATOM      4  N   UNL     1      46.998   7.779  11.809  0.00  0.00    +0.000 NA
ATOM      5  C   UNL     1      46.492   6.896  12.686  0.00  0.00    +0.000 A 
ATOM      6  N   UNL     1      45.144   6.595  12.647  0.00  0.00    +0.000 N 
ATOM      7  N   UNL     1      47.219   6.298  13.638  0.00  0.00    +0.000 NA
ATOM      8  C   UNL     1      48.532   6.631  13.708  0.00  0.00    +0.000 A 
ATOM      9  H   UNL     1      44.999   5.760  13.206  0.00  0.00    +0.000 HD
BRANCH   2  11
ATOM     10  N   UNL     1      51.126   7.797  14.218  0.00  0.00    +0.000 N 
ATOM     11  C   UNL     1      50.556   7.867  12.977  0.00  0.00    +0.000 C 
ATOM     12  O   UNL     1      51.213   8.162  11.989  0.00  0.00    +0.000 OA
ATOM     13  H   UNL     1      52.129   7.948  14.260  0.00  0.00    +0.000 HD
ATOM     14  H   UNL     1      50.702   7.333  15.008  0.00  0.00    +0.000 HD
ENDBRANCH   2  11
ENDBRANCH   1   6
BRANCH   1  15
ATOM     15  C   UNL     1      44.443   5.110  10.875  0.00  0.00    +0.000 A 
ATOM     16  C   UNL     1      43.638   4.211  11.575  0.00  0.00    +0.000 A 
ATOM     17  C   UNL     1      43.576   2.888  11.158  0.00  0.00    +0.000 A 
ATOM     18  F   UNL     1      42.808   2.025  11.836  0.00  0.00    +0.000 F 
ATOM     19  C   UNL     1      44.298   2.437  10.054  0.00  0.00    +0.000 A 
ATOM     20  C   UNL     1      45.132   3.305   9.332  0.00  0.00    +0.000 A 
ATOM     21  C   UNL     1      45.189   4.642   9.773  0.00  0.00    +0.000 A 
BRANCH  20  22
ATOM     22  C   UNL     1      45.924   2.840   8.171  0.00  0.00    +0.000 A 
ATOM     23  C   UNL     1      46.237   3.680   7.089  0.00  0.00    +0.000 A 
ATOM     24  C   UNL     1      46.997   3.213   6.016  0.00  0.00    +0.000 A 
ATOM     25  C   UNL     1      47.424   1.899   6.036  0.00  0.00    +0.000 A 
ATOM     26  N   UNL     1      47.151   1.045   7.041  0.00  0.00    +0.000 NA
ATOM     27  C   UNL     1      46.418   1.535   8.073  0.00  0.00    +0.000 A 
ENDBRANCH  20  22
ENDBRANCH   1  15
TORSDOF 4
ENDMDL
MODEL 5
REMARK VINA RESULT:    -7.756      2.550      3.095
REMARK INTER + INTRA:         -10.171
REMARK INTER:                  -9.593
REMARK INTRA:                  -0.577
REMARK UNBOUND:                -0.601
REMARK  Name = 
REMARK  4 active torsions:
REMARK  status: ('A' for Active; 'I' for Inactive)
REMARK    1  A    between atoms: C_2  and  C_4
REMARK    2  A    between atoms: N_8  and  C_9
REMARK    3  A    between atoms: C_9  and  C_10
REMARK    4  A    between atoms: C_15  and  C_16
REMARK                            x       y       z     vdW  Elec       q    Type
REMARK                         _______ _______ _______ _____ _____    ______ ____
ROOT
ATOM      1  C   UNL     1      44.054   5.196  11.155  0.00  0.00    +0.000 C 
ENDROOT
BRANCH   1   6
ATOM      2  C   UNL     1      46.254   2.133   8.004  0.00  0.00    +0.000 A 
ATOM      3  C   UNL     1      45.622   1.973   9.210  0.00  0.00    +0.000 A 
ATOM      4  N   UNL     1      44.894   2.940   9.798  0.00  0.00    +0.000 NA
ATOM      5  C   UNL     1      44.801   4.120   9.164  0.00  0.00    +0.000 A 
ATOM      6  N   UNL     1      44.024   5.126   9.707  0.00  0.00    +0.000 N 
ATOM      7  N   UNL     1      45.401   4.383   7.995  0.00  0.00    +0.000 NA
ATOM      8  C   UNL     1      46.122   3.380   7.438  0.00  0.00    +0.000 A 
ATOM      9  H   UNL     1      44.261   5.989   9.230  0.00  0.00    +0.000 HD
BRANCH   2  11
ATOM     10  N   UNL     1      46.737  -0.219   7.663  0.00  0.00    +0.000 N 
ATOM     11  C   UNL     1      47.050   1.079   7.365  0.00  0.00    +0.000 C 
ATOM     12  O   UNL     1      47.942   1.355   6.575  0.00  0.00    +0.000 OA
ATOM     13  H   UNL     1      47.246  -0.932   7.150  0.00  0.00    +0.000 HD
ATOM     14  H   UNL     1      45.875  -0.503   8.105  0.00  0.00    +0.000 HD
ENDBRANCH   2  11
ENDBRANCH   1   6
BRANCH   1  15
ATOM     15  C   UNL     1      44.604   6.536  11.581  0.00  0.00    +0.000 A 
ATOM     16  C   UNL     1      44.049   7.727  11.114  0.00  0.00    +0.000 A 
ATOM     17  C   UNL     1      44.610   8.936  11.501  0.00  0.00    +0.000 A 
ATOM     18  F   UNL     1      44.079  10.079  11.045  0.00  0.00    +0.000 F 
ATOM     19  C   UNL     1      45.714   8.989  12.350  0.00  0.00    +0.000 A 
ATOM     20  C   UNL     1      46.313   7.813  12.830  0.00  0.00    +0.000 A 
ATOM     21  C   UNL     1      45.737   6.594  12.421  0.00  0.00    +0.000 A 
BRANCH  20  22
ATOM     22  C   UNL     1      47.500   7.848  13.715  0.00  0.00    +0.000 A 
ATOM     23  C   UNL     1      47.657   8.808  14.728  0.00  0.00    +0.000 A 
ATOM     24  C   UNL     1      48.782   8.803  15.552  0.00  0.00    +0.000 A 
ATOM     25  C   UNL     1      49.748   7.837  15.341  0.00  0.00    +0.000 A 
ATOM     26  N   UNL     1      49.657   6.894  14.383  0.00  0.00    +0.000 NA
ATOM     27  C   UNL     1      48.544   6.922  13.607  0.00  0.00    +0.000 A 
ENDBRANCH  20  22
ENDBRANCH   1  15
TORSDOF 4
ENDMDL
MODEL 6
REMARK VINA RESULT:    -7.511      4.888      7.790
REMARK INTER + INTRA:          -9.867
REMARK INTER:                  -9.395
REMARK INTRA:                  -0.472
REMARK UNBOUND:                -0.601
REMARK  Name = 
REMARK  4 active torsions:
REMARK  status: ('A' for Active; 'I' for Inactive)
REMARK    1  A    between atoms: C_2  and  C_4
REMARK    2  A    between atoms: N_8  and  C_9
REMARK    3  A    between atoms: C_9  and  C_10
REMARK    4  A    between atoms: C_15  and  C_16
REMARK                            x       y       z     vdW  Elec       q    Type
REMARK                         _______ _______ _______ _____ _____    ______ ____
ROOT
ATOM      1  C   UNL     1      46.212   5.390  13.864  0.00  0.00    +0.000 C 
ENDROOT
BRANCH   1   6
ATOM      2  C   UNL     1      49.395   3.924  17.310  0.00  0.00    +0.000 A 
ATOM      3  C   UNL     1      48.834   5.130  16.976  0.00  0.00    +0.000 A 
ATOM      4  N   UNL     1      47.805   5.256  16.118  0.00  0.00    +0.000 NA
ATOM      5  C   UNL     1      47.323   4.134  15.559  0.00  0.00    +0.000 A 
ATOM      6  N   UNL     1      46.236   4.211  14.708  0.00  0.00    +0.000 N 
ATOM      7  N   UNL     1      47.817   2.913  15.801  0.00  0.00    +0.000 NA
ATOM      8  C   UNL     1      48.851   2.832  16.673  0.00  0.00    +0.000 A 
ATOM      9  H   UNL     1      46.168   3.328  14.214  0.00  0.00    +0.000 HD
BRANCH   2  11
ATOM     10  N   UNL     1      51.313   2.681  18.119  0.00  0.00    +0.000 N 
ATOM     11  C   UNL     1      50.519   3.787  18.243  0.00  0.00    +0.000 C 
ATOM     12  O   UNL     1      50.749   4.647  19.083  0.00  0.00    +0.000 OA
ATOM     13  H   UNL     1      52.130   2.646  18.720  0.00  0.00    +0.000 HD
ATOM     14  H   UNL     1      51.318   2.079  17.308  0.00  0.00    +0.000 HD
ENDBRANCH   2  11
ENDBRANCH   1   6
BRANCH   1  15
ATOM     15  C   UNL     1      45.275   5.157  12.704  0.00  0.00    +0.000 A 
ATOM     16  C   UNL     1      43.933   5.530  12.772  0.00  0.00    +0.000 A 
ATOM     17  C   UNL     1      43.098   5.264  11.696  0.00  0.00    +0.000 A 
ATOM     18  F   UNL     1      41.807   5.616  11.766  0.00  0.00    +0.000 F 
ATOM     19  C   UNL     1      43.570   4.633  10.546  0.00  0.00    +0.000 A 
ATOM     20  C   UNL     1      44.910   4.227  10.442  0.00  0.00    +0.000 A 
ATOM     21  C   UNL     1      45.742   4.498  11.546  0.00  0.00    +0.000 A 
BRANCH  20  22
ATOM     22  C   UNL     1      45.425   3.536   9.238  0.00  0.00    +0.000 A 
ATOM     23  C   UNL     1      45.848   4.233   8.094  0.00  0.00    +0.000 A 
ATOM     24  C   UNL     1      46.342   3.551   6.981  0.00  0.00    +0.000 A 
ATOM     25  C   UNL     1      46.393   2.171   7.025  0.00  0.00    +0.000 A 
ATOM     26  N   UNL     1      45.997   1.448   8.091  0.00  0.00    +0.000 NA
ATOM     27  C   UNL     1      45.532   2.144   9.159  0.00  0.00    +0.000 A 
ENDBRANCH  20  22
ENDBRANCH   1  15
TORSDOF 4
ENDMDL
MODEL 7
REMARK VINA RESULT:    -7.390      5.421      7.926
REMARK INTER + INTRA:          -9.718
REMARK INTER:                  -9.071
REMARK INTRA:                  -0.647
REMARK UNBOUND:                -0.601
REMARK  Name = 
REMARK  4 active torsions:
REMARK  status: ('A' for Active; 'I' for Inactive)
REMARK    1  A    between atoms: C_2  and  C_4
REMARK    2  A    between atoms: N_8  and  C_9
REMARK    3  A    between atoms: C_9  and  C_10
REMARK    4  A    between atoms: C_15  and  C_16
REMARK                            x       y       z     vdW  Elec       q    Type
REMARK                         _______ _______ _______ _____ _____    ______ ____
ROOT
ATOM      1  C   UNL     1      48.671   6.556  15.849  0.00  0.00    +0.000 C 
ENDROOT
BRANCH   1   6
ATOM      2  C   UNL     1      51.007   2.515  17.385  0.00  0.00    +0.000 A 
ATOM      3  C   UNL     1      51.271   3.858  17.458  0.00  0.00    +0.000 A 
ATOM      4  N   UNL     1      50.367   4.807  17.153  0.00  0.00    +0.000 NA
ATOM      5  C   UNL     1      49.153   4.401  16.746  0.00  0.00    +0.000 A 
ATOM      6  N   UNL     1      48.179   5.342  16.468  0.00  0.00    +0.000 N 
ATOM      7  N   UNL     1      48.806   3.114  16.619  0.00  0.00    +0.000 NA
ATOM      8  C   UNL     1      49.747   2.191  16.938  0.00  0.00    +0.000 A 
ATOM      9  H   UNL     1      47.434   4.873  15.963  0.00  0.00    +0.000 HD
BRANCH   2  11
ATOM     10  N   UNL     1      51.522   0.262  18.121  0.00  0.00    +0.000 N 
ATOM     11  C   UNL     1      51.994   1.480  17.715  0.00  0.00    +0.000 C 
ATOM     12  O   UNL     1      53.193   1.694  17.603  0.00  0.00    +0.000 OA
ATOM     13  H   UNL     1      52.217  -0.463  18.267  0.00  0.00    +0.000 HD
ATOM     14  H   UNL     1      50.566  -0.041  17.998  0.00  0.00    +0.000 HD
ENDBRANCH   2  11
ENDBRANCH   1   6
BRANCH   1  15
ATOM     15  C   UNL     1      48.228   6.598  14.406  0.00  0.00    +0.000 A 
ATOM     16  C   UNL     1      48.849   7.440  13.484  0.00  0.00    +0.000 A 
ATOM     17  C   UNL     1      48.386   7.475  12.176  0.00  0.00    +0.000 A 
ATOM     18  F   UNL     1      48.980   8.290  11.293  0.00  0.00    +0.000 F 
ATOM     19  C   UNL     1      47.315   6.686  11.761  0.00  0.00    +0.000 A 
ATOM     20  C   UNL     1      46.651   5.837  12.661  0.00  0.00    +0.000 A 
ATOM     21  C   UNL     1      47.129   5.819  13.986  0.00  0.00    +0.000 A 
BRANCH  20  22
ATOM     22  C   UNL     1      45.498   5.007  12.245  0.00  0.00    +0.000 A 
ATOM     23  C   UNL     1      45.013   4.998  10.926  0.00  0.00    +0.000 A 
ATOM     24  C   UNL     1      43.932   4.193  10.566  0.00  0.00    +0.000 A 
ATOM     25  C   UNL     1      43.339   3.413  11.540  0.00  0.00    +0.000 A 
ATOM     26  N   UNL     1      43.754   3.384  12.821  0.00  0.00    +0.000 NA
ATOM     27  C   UNL     1      44.815   4.171  13.135  0.00  0.00    +0.000 A 
ENDBRANCH  20  22
ENDBRANCH   1  15
TORSDOF 4
ENDMDL
MODEL 8
REMARK VINA RESULT:    -7.073      1.833      2.306
REMARK INTER + INTRA:          -9.327
REMARK INTER:                  -8.622
REMARK INTRA:                  -0.706
REMARK UNBOUND:                -0.601
REMARK  Name = 
REMARK  4 active torsions:
REMARK  status: ('A' for Active; 'I' for Inactive)
REMARK    1  A    between atoms: C_2  and  C_4
REMARK    2  A    between atoms: N_8  and  C_9
REMARK    3  A    between atoms: C_9  and  C_10
REMARK    4  A    between atoms: C_15  and  C_16
REMARK                            x       y       z     vdW  Elec       q    Type
REMARK                         _______ _______ _______ _____ _____    ______ ____
ROOT
ATOM      1  C   UNL     1      43.932   3.994  11.331  0.00  0.00    +0.000 C 
ENDROOT
BRANCH   1   6
ATOM      2  C   UNL     1      46.446   2.485   7.387  0.00  0.00    +0.000 A 
ATOM      3  C   UNL     1      46.191   1.948   8.623  0.00  0.00    +0.000 A 
ATOM      4  N   UNL     1      45.283   2.454   9.477  0.00  0.00    +0.000 NA
ATOM      5  C   UNL     1      44.609   3.549   9.089  0.00  0.00    +0.000 A 
ATOM      6  N   UNL     1      43.633   4.075   9.915  0.00  0.00    +0.000 N 
ATOM      7  N   UNL     1      44.803   4.162   7.914  0.00  0.00    +0.000 NA
ATOM      8  C   UNL     1      45.726   3.617   7.084  0.00  0.00    +0.000 A 
ATOM      9  H   UNL     1      43.411   5.005   9.575  0.00  0.00    +0.000 HD
BRANCH   2  11
ATOM     10  N   UNL     1      47.877   2.746   5.447  0.00  0.00    +0.000 N 
ATOM     11  C   UNL     1      47.439   1.935   6.457  0.00  0.00    +0.000 C 
ATOM     12  O   UNL     1      47.876   0.801   6.600  0.00  0.00    +0.000 OA
ATOM     13  H   UNL     1      48.621   2.375   4.864  0.00  0.00    +0.000 HD
ATOM     14  H   UNL     1      47.739   3.746   5.427  0.00  0.00    +0.000 HD
ENDBRANCH   2  11
ENDBRANCH   1   6
BRANCH   1  15
ATOM     15  C   UNL     1      44.805   5.161  11.726  0.00  0.00    +0.000 A 
ATOM     16  C   UNL     1      45.974   4.971  12.463  0.00  0.00    +0.000 A 
ATOM     17  C   UNL     1      46.728   6.075  12.837  0.00  0.00    +0.000 A 
ATOM     18  F   UNL     1      47.847   5.891  13.551  0.00  0.00    +0.000 F 
ATOM     19  C   UNL     1      46.346   7.370  12.492  0.00  0.00    +0.000 A 
ATOM     20  C   UNL     1      45.168   7.606  11.765  0.00  0.00    +0.000 A 
ATOM     21  C   UNL     1      44.411   6.476  11.399  0.00  0.00    +0.000 A 
BRANCH  20  22
ATOM     22  C   UNL     1      44.733   8.975  11.407  0.00  0.00    +0.000 A 
ATOM     23  C   UNL     1      45.044  10.094  12.197  0.00  0.00    +0.000 A 
ATOM     24  C   UNL     1      44.629  11.373  11.823  0.00  0.00    +0.000 A 
ATOM     25  C   UNL     1      43.894  11.512  10.661  0.00  0.00    +0.000 A 
ATOM     26  N   UNL     1      43.561  10.478   9.866  0.00  0.00    +0.000 NA
ATOM     27  C   UNL     1      43.989   9.250  10.255  0.00  0.00    +0.000 A 
ENDBRANCH  20  22
ENDBRANCH   1  15
TORSDOF 4
ENDMDL
MODEL 9
REMARK VINA RESULT:    -6.907      5.268      8.050
REMARK INTER + INTRA:          -9.123
REMARK INTER:                  -8.644
REMARK INTRA:                  -0.479
REMARK UNBOUND:                -0.601
REMARK  Name = 
REMARK  4 active torsions:
REMARK  status: ('A' for Active; 'I' for Inactive)
REMARK    1  A    between atoms: C_2  and  C_4
REMARK    2  A    between atoms: N_8  and  C_9
REMARK    3  A    between atoms: C_9  and  C_10
REMARK    4  A    between atoms: C_15  and  C_16
REMARK                            x       y       z     vdW  Elec       q    Type
REMARK                         _______ _______ _______ _____ _____    ______ ____
ROOT
ATOM      1  C   UNL     1      48.352   7.013  14.271  0.00  0.00    +0.000 C 
ENDROOT
BRANCH   1   6
ATOM      2  C   UNL     1      50.770   4.352  17.621  0.00  0.00    +0.000 A 
ATOM      3  C   UNL     1      50.998   5.560  17.012  0.00  0.00    +0.000 A 
ATOM      4  N   UNL     1      50.074   6.202  16.274  0.00  0.00    +0.000 NA
ATOM      5  C   UNL     1      48.877   5.611  16.125  0.00  0.00    +0.000 A 
ATOM      6  N   UNL     1      47.883   6.257  15.415  0.00  0.00    +0.000 N 
ATOM      7  N   UNL     1      48.566   4.423  16.660  0.00  0.00    +0.000 NA
ATOM      8  C   UNL     1      49.525   3.812  17.397  0.00  0.00    +0.000 A 
ATOM      9  H   UNL     1      47.158   5.576  15.213  0.00  0.00    +0.000 HD
BRANCH   2  11
ATOM     10  N   UNL     1      51.968   2.319  18.178  0.00  0.00    +0.000 N 
ATOM     11  C   UNL     1      51.779   3.651  18.424  0.00  0.00    +0.000 C 
ATOM     12  O   UNL     1      52.442   4.245  19.262  0.00  0.00    +0.000 OA
ATOM     13  H   UNL     1      52.724   1.872  18.687  0.00  0.00    +0.000 HD
ATOM     14  H   UNL     1      51.632   1.845  17.352  0.00  0.00    +0.000 HD
ENDBRANCH   2  11
ENDBRANCH   1   6
BRANCH   1  15
ATOM     15  C   UNL     1      47.209   7.227  13.308  0.00  0.00    +0.000 A 
ATOM     16  C   UNL     1      46.490   8.422  13.295  0.00  0.00    +0.000 A 
ATOM     17  C   UNL     1      45.422   8.563  12.419  0.00  0.00    +0.000 A 
ATOM     18  F   UNL     1      44.728   9.709  12.413  0.00  0.00    +0.000 F 
ATOM     19  C   UNL     1      45.052   7.538  11.550  0.00  0.00    +0.000 A 
ATOM     20  C   UNL     1      45.739   6.314  11.542  0.00  0.00    +0.000 A 
ATOM     21  C   UNL     1      46.816   6.184  12.442  0.00  0.00    +0.000 A 
BRANCH  20  22
ATOM     22  C   UNL     1      45.348   5.205  10.642  0.00  0.00    +0.000 A 
ATOM     23  C   UNL     1      45.697   5.182   9.281  0.00  0.00    +0.000 A 
ATOM     24  C   UNL     1      45.323   4.115   8.463  0.00  0.00    +0.000 A 
ATOM     25  C   UNL     1      44.590   3.084   9.022  0.00  0.00    +0.000 A 
ATOM     26  N   UNL     1      44.223   3.053  10.317  0.00  0.00    +0.000 NA
ATOM     27  C   UNL     1      44.611   4.102  11.085  0.00  0.00    +0.000 A 
ENDBRANCH  20  22
ENDBRANCH   1  15
TORSDOF 4
ENDMDL
