MODEL 1
REMARK VINA RESULT:    -9.188      0.000      0.000
REMARK INTER + INTRA:         -13.408
REMARK INTER:                 -12.679
REMARK INTRA:                  -0.729
REMARK UNBOUND:                -0.729
REMARK  Name = 
REMARK  8 active torsions:
REMARK  status: ('A' for Active; 'I' for Inactive)
REMARK    1  A    between atoms: C_1  and  C_2
REMARK    2  A    between atoms: C_2  and  O_3
REMARK    3  A    between atoms: C_5  and  O_6
REMARK    4  A    between atoms: O_6  and  C_7
REMARK    5  A    between atoms: C_11  and  C_12
REMARK    6  A    between atoms: C_12  and  C_13
REMARK    7  A    between atoms: C_13  and  N_14
REMARK    8  A    between atoms: C_18  and  C_19
REMARK                            x       y       z     vdW  Elec       q    Type
REMARK                         _______ _______ _______ _____ _____    ______ ____
ROOT
ATOM      1  C   UNL     1      43.183   5.183  12.338  0.00  0.00    +0.000 C 
ENDROOT
BRANCH   1   6
ATOM      2  C   UNL     1      46.832   5.548  13.522  0.00  0.00    +0.000 A 
ATOM      3  C   UNL     1      47.142   6.813  13.031  0.00  0.00    +0.000 A 
ATOM      4  C   UNL     1      46.160   7.561  12.379  0.00  0.00    +0.000 A 
ATOM      5  C   UNL     1      44.883   7.033  12.186  0.00  0.00    +0.000 A 
ATOM      6  C   UNL     1      44.567   5.741  12.631  0.00  0.00    +0.000 A 
ATOM      7  C   UNL     1      45.558   5.015  13.312  0.00  0.00    +0.000 A 
BRANCH   2   8
ATOM      8  O   UNL     1      47.706   4.745  14.213  0.00  0.00    +0.000 OA
BRANCH   8  12
ATOM      9  C   UNL     1      48.733   3.241  18.376  0.00  0.00    +0.000 C 
ATOM     10  C   UNL     1      47.636   3.309  17.327  0.00  0.00    +0.000 C 
ATOM     11  C   UNL     1      48.077   2.879  15.908  0.00  0.00    +0.000 C 
ATOM     12  C   UNL     1      47.191   4.023  15.351  0.00  0.00    +0.000 C 
ATOM     13  C   UNL     1      47.370   4.716  16.726  0.00  0.00    +0.000 C 
BRANCH  10  14
ATOM     14  O   UNL     1      46.457   2.637  17.824  0.00  0.00    +0.000 OA
ATOM     15  H   UNL     1      46.246   3.074  18.667  0.00  0.00    +0.000 HD
ENDBRANCH  10  14
ENDBRANCH   8  12
ENDBRANCH   2   8
ENDBRANCH   1   6
BRANCH   1  16
ATOM     16  C   UNL     1      43.085   4.411  11.020  0.00  0.00    +0.000 C 
BRANCH  16  17
ATOM     17  N   UNL     1      43.902   4.996   9.950  0.00  0.00    +0.000 N 
ATOM     18  C   UNL     1      44.679   4.005   9.314  0.00  0.00    +0.000 A 
ATOM     19  C   UNL     1      45.543   4.377   8.287  0.00  0.00    +0.000 A 
ATOM     20  C   UNL     1      46.307   3.395   7.647  0.00  0.00    +0.000 A 
ATOM     21  C   UNL     1      46.197   2.060   8.038  0.00  0.00    +0.000 A 
ATOM     22  C   UNL     1      45.306   1.778   9.055  0.00  0.00    +0.000 A 
ATOM     23  N   UNL     1      44.556   2.712   9.683  0.00  0.00    +0.000 NA
ATOM     24  H   UNL     1      44.528   5.718  10.298  0.00  0.00    +0.000 HD
BRANCH  21  25
ATOM     25  C   UNL     1      47.017   1.025   7.362  0.00  0.00    +0.000 C 
ATOM     26  N   UNL     1      46.771  -0.296   7.626  0.00  0.00    +0.000 N 
ATOM     27  O   UNL     1      47.908   1.335   6.582  0.00  0.00    +0.000 OA
ATOM     28  H   UNL     1      46.079  -0.661   8.262  0.00  0.00    +0.000 HD
ATOM     29  H   UNL     1      47.360  -0.968   7.151  0.00  0.00    +0.000 HD
ENDBRANCH  21  25
ENDBRANCH  16  17
ENDBRANCH   1  16
TORSDOF 7
ENDMDL
MODEL 2
REMARK VINA RESULT:    -7.608      1.849      2.157
REMARK INTER + INTRA:         -11.228
REMARK INTER:                 -10.428
REMARK INTRA:                  -0.801
REMARK UNBOUND:                -0.729
REMARK  Name = 
REMARK  8 active torsions:
REMARK  status: ('A' for Active; 'I' for Inactive)
REMARK    1  A    between atoms: C_1  and  C_2
REMARK    2  A    between atoms: C_2  and  O_3
REMARK    3  A    between atoms: C_5  and  O_6
REMARK    4  A    between atoms: O_6  and  C_7
REMARK    5  A    between atoms: C_11  and  C_12
REMARK    6  A    between atoms: C_12  and  C_13
REMARK    7  A    between atoms: C_13  and  N_14
REMARK    8  A    between atoms: C_18  and  C_19
REMARK                            x       y       z     vdW  Elec       q    Type
REMARK                         _______ _______ _______ _____ _____    ______ ____
ROOT
ATOM      1  C   UNL     1      43.868   5.316  12.394  0.00  0.00    +0.000 C 
ENDROOT
BRANCH   1   6
ATOM      2  C   UNL     1      47.416   5.353  13.896  0.00  0.00    +0.000 A 
ATOM      3  C   UNL     1      48.062   6.226  13.024  0.00  0.00    +0.000 A 
ATOM      4  C   UNL     1      47.338   6.840  12.000  0.00  0.00    +0.000 A 
ATOM      5  C   UNL     1      45.983   6.557  11.826  0.00  0.00    +0.000 A 
ATOM      6  C   UNL     1      45.328   5.644  12.664  0.00  0.00    +0.000 A 
ATOM      7  C   UNL     1      46.065   5.059  13.709  0.00  0.00    +0.000 A 
BRANCH   2   8
ATOM      8  O   UNL     1      48.020   4.728  14.959  0.00  0.00    +0.000 OA
BRANCH   8  12
ATOM      9  C   UNL     1      50.572   6.462  18.295  0.00  0.00    +0.000 C 
ATOM     10  C   UNL     1      49.145   6.234  17.828  0.00  0.00    +0.000 C 
ATOM     11  C   UNL     1      48.841   4.788  17.371  0.00  0.00    +0.000 C 
ATOM     12  C   UNL     1      47.970   5.393  16.239  0.00  0.00    +0.000 C 
ATOM     13  C   UNL     1      48.839   6.670  16.369  0.00  0.00    +0.000 C 
BRANCH  10  14
ATOM     14  O   UNL     1      48.229   6.761  18.815  0.00  0.00    +0.000 OA
ATOM     15  H   UNL     1      47.876   5.985  19.282  0.00  0.00    +0.000 HD
ENDBRANCH  10  14
ENDBRANCH   8  12
ENDBRANCH   2   8
ENDBRANCH   1   6
BRANCH   1  16
ATOM     16  C   UNL     1      43.571   4.933  10.942  0.00  0.00    +0.000 C 
BRANCH  16  17
ATOM     17  N   UNL     1      43.769   3.503  10.675  0.00  0.00    +0.000 N 
ATOM     18  C   UNL     1      44.643   3.313   9.584  0.00  0.00    +0.000 A 
ATOM     19  C   UNL     1      44.929   2.018   9.163  0.00  0.00    +0.000 A 
ATOM     20  C   UNL     1      45.803   1.825   8.087  0.00  0.00    +0.000 A 
ATOM     21  C   UNL     1      46.379   2.926   7.450  0.00  0.00    +0.000 A 
ATOM     22  C   UNL     1      46.051   4.174   7.941  0.00  0.00    +0.000 A 
ATOM     23  N   UNL     1      45.212   4.380   8.982  0.00  0.00    +0.000 NA
ATOM     24  H   UNL     1      42.893   3.027  10.470  0.00  0.00    +0.000 HD
BRANCH  21  25
ATOM     25  C   UNL     1      47.298   2.716   6.305  0.00  0.00    +0.000 C 
ATOM     26  N   UNL     1      48.614   2.429   6.552  0.00  0.00    +0.000 N 
ATOM     27  O   UNL     1      46.898   2.802   5.151  0.00  0.00    +0.000 OA
ATOM     28  H   UNL     1      49.050   2.353   7.457  0.00  0.00    +0.000 HD
ATOM     29  H   UNL     1      49.207   2.303   5.741  0.00  0.00    +0.000 HD
ENDBRANCH  21  25
ENDBRANCH  16  17
ENDBRANCH   1  16
TORSDOF 7
ENDMDL
MODEL 3
REMARK VINA RESULT:    -7.222      3.020      7.938
REMARK INTER + INTRA:         -10.696
REMARK INTER:                  -9.999
REMARK INTRA:                  -0.697
REMARK UNBOUND:                -0.729
REMARK  Name = 
REMARK  8 active torsions:
REMARK  status: ('A' for Active; 'I' for Inactive)
REMARK    1  A    between atoms: C_1  and  C_2
REMARK    2  A    between atoms: C_2  and  O_3
REMARK    3  A    between atoms: C_5  and  O_6
REMARK    4  A    between atoms: O_6  and  C_7
REMARK    5  A    between atoms: C_11  and  C_12
REMARK    6  A    between atoms: C_12  and  C_13
REMARK    7  A    between atoms: C_13  and  N_14
REMARK    8  A    between atoms: C_18  and  C_19
REMARK                            x       y       z     vdW  Elec       q    Type
REMARK                         _______ _______ _______ _____ _____    ______ ____
ROOT
ATOM      1  C   UNL     1      46.400   7.314  12.245  0.00  0.00    +0.000 C 
ENDROOT
BRANCH   1   6
ATOM      2  C   UNL     1      44.440   4.701  10.200  0.00  0.00    +0.000 A 
ATOM      3  C   UNL     1      43.595   4.182  11.177  0.00  0.00    +0.000 A 
ATOM      4  C   UNL     1      43.620   4.717  12.467  0.00  0.00    +0.000 A 
ATOM      5  C   UNL     1      44.510   5.743  12.789  0.00  0.00    +0.000 A 
ATOM      6  C   UNL     1      45.402   6.244  11.830  0.00  0.00    +0.000 A 
ATOM      7  C   UNL     1      45.342   5.715  10.529  0.00  0.00    +0.000 A 
BRANCH   2   8
ATOM      8  O   UNL     1      44.469   4.280   8.893  0.00  0.00    +0.000 OA
BRANCH   8  12
ATOM      9  C   UNL     1      46.864   2.863   5.301  0.00  0.00    +0.000 C 
ATOM     10  C   UNL     1      46.740   2.771   6.812  0.00  0.00    +0.000 C 
ATOM     11  C   UNL     1      45.314   2.460   7.322  0.00  0.00    +0.000 C 
ATOM     12  C   UNL     1      45.578   3.452   8.485  0.00  0.00    +0.000 C 
ATOM     13  C   UNL     1      46.620   4.128   7.558  0.00  0.00    +0.000 C 
BRANCH  10  14
ATOM     14  O   UNL     1      47.770   1.896   7.324  0.00  0.00    +0.000 OA
ATOM     15  H   UNL     1      48.109   1.414   6.549  0.00  0.00    +0.000 HD
ENDBRANCH  10  14
ENDBRANCH   8  12
ENDBRANCH   2   8
ENDBRANCH   1   6
BRANCH   1  16
ATOM     16  C   UNL     1      47.816   6.789  12.491  0.00  0.00    +0.000 C 
BRANCH  16  17
ATOM     17  N   UNL     1      48.371   7.219  13.780  0.00  0.00    +0.000 N 
ATOM     18  C   UNL     1      48.158   6.236  14.770  0.00  0.00    +0.000 A 
ATOM     19  C   UNL     1      48.592   6.479  16.070  0.00  0.00    +0.000 A 
ATOM     20  C   UNL     1      48.391   5.503  17.052  0.00  0.00    +0.000 A 
ATOM     21  C   UNL     1      47.763   4.301  16.723  0.00  0.00    +0.000 A 
ATOM     22  C   UNL     1      47.377   4.137  15.408  0.00  0.00    +0.000 A 
ATOM     23  N   UNL     1      47.566   5.067  14.443  0.00  0.00    +0.000 NA
ATOM     24  H   UNL     1      47.960   8.091  14.102  0.00  0.00    +0.000 HD
BRANCH  21  25
ATOM     25  C   UNL     1      47.544   3.274  17.770  0.00  0.00    +0.000 C 
ATOM     26  N   UNL     1      48.489   3.108  18.748  0.00  0.00    +0.000 N 
ATOM     27  O   UNL     1      46.539   2.574  17.769  0.00  0.00    +0.000 OA
ATOM     28  H   UNL     1      49.356   3.614  18.833  0.00  0.00    +0.000 HD
ATOM     29  H   UNL     1      48.303   2.390  19.436  0.00  0.00    +0.000 HD
ENDBRANCH  21  25
ENDBRANCH  16  17
ENDBRANCH   1  16
TORSDOF 7
ENDMDL
MODEL 4
REMARK VINA RESULT:    -7.167      2.568      3.959
REMARK INTER + INTRA:         -10.620
REMARK INTER:                 -10.790
REMARK INTRA:                   0.171
REMARK UNBOUND:                -0.729
REMARK  Name = 
REMARK  8 active torsions:
REMARK  status: ('A' for Active; 'I' for Inactive)
REMARK    1  A    between atoms: C_1  and  C_2
REMARK    2  A    between atoms: C_2  and  O_3
REMARK    3  A    between atoms: C_5  and  O_6
REMARK    4  A    between atoms: O_6  and  C_7
REMARK    5  A    between atoms: C_11  and  C_12
REMARK    6  A    between atoms: C_12  and  C_13
REMARK    7  A    between atoms: C_13  and  N_14
REMARK    8  A    between atoms: C_18  and  C_19
REMARK                            x       y       z     vdW  Elec       q    Type
REMARK                         _______ _______ _______ _____ _____    ______ ____
ROOT
ATOM      1  C   UNL     1      44.130   4.178  12.408  0.00  0.00    +0.000 C 
ENDROOT
BRANCH   1   6
ATOM      2  C   UNL     1      47.194   6.409  13.101  0.00  0.00    +0.000 A 
ATOM      3  C   UNL     1      46.617   7.675  13.040  0.00  0.00    +0.000 A 
ATOM      4  C   UNL     1      45.241   7.797  12.838  0.00  0.00    +0.000 A 
ATOM      5  C   UNL     1      44.449   6.661  12.663  0.00  0.00    +0.000 A 
ATOM      6  C   UNL     1      45.021   5.381  12.672  0.00  0.00    +0.000 A 
ATOM      7  C   UNL     1      46.403   5.275  12.907  0.00  0.00    +0.000 A 
BRANCH   2   8
ATOM      8  O   UNL     1      48.526   6.172  13.335  0.00  0.00    +0.000 OA
BRANCH   8  12
ATOM      9  C   UNL     1      49.034  10.220  11.332  0.00  0.00    +0.000 C 
ATOM     10  C   UNL     1      49.760   8.954  11.752  0.00  0.00    +0.000 C 
ATOM     11  C   UNL     1      49.065   7.641  11.323  0.00  0.00    +0.000 C 
ATOM     12  C   UNL     1      49.481   7.043  12.693  0.00  0.00    +0.000 C 
ATOM     13  C   UNL     1      49.525   8.500  13.219  0.00  0.00    +0.000 C 
BRANCH  10  14
ATOM     14  O   UNL     1      51.152   9.054  11.373  0.00  0.00    +0.000 OA
ATOM     15  H   UNL     1      51.204   9.821  10.777  0.00  0.00    +0.000 HD
ENDBRANCH  10  14
ENDBRANCH   8  12
ENDBRANCH   2   8
ENDBRANCH   1   6
BRANCH   1  16
ATOM     16  C   UNL     1      43.404   4.219  11.061  0.00  0.00    +0.000 C 
BRANCH  16  17
ATOM     17  N   UNL     1      44.147   4.954  10.031  0.00  0.00    +0.000 N 
ATOM     18  C   UNL     1      44.928   4.074   9.252  0.00  0.00    +0.000 A 
ATOM     19  C   UNL     1      45.727   4.595   8.239  0.00  0.00    +0.000 A 
ATOM     20  C   UNL     1      46.495   3.725   7.457  0.00  0.00    +0.000 A 
ATOM     21  C   UNL     1      46.452   2.350   7.697  0.00  0.00    +0.000 A 
ATOM     22  C   UNL     1      45.622   1.919   8.712  0.00  0.00    +0.000 A 
ATOM     23  N   UNL     1      44.869   2.744   9.475  0.00  0.00    +0.000 NA
ATOM     24  H   UNL     1      44.762   5.658  10.432  0.00  0.00    +0.000 HD
BRANCH  21  25
ATOM     25  C   UNL     1      47.276   1.433   6.872  0.00  0.00    +0.000 C 
ATOM     26  N   UNL     1      48.296   1.951   6.119  0.00  0.00    +0.000 N 
ATOM     27  O   UNL     1      47.053   0.230   6.851  0.00  0.00    +0.000 OA
ATOM     28  H   UNL     1      48.554   2.923   6.048  0.00  0.00    +0.000 HD
ATOM     29  H   UNL     1      48.826   1.291   5.564  0.00  0.00    +0.000 HD
ENDBRANCH  21  25
ENDBRANCH  16  17
ENDBRANCH   1  16
TORSDOF 7
ENDMDL
MODEL 5
REMARK VINA RESULT:    -7.047      3.538      8.768
REMARK INTER + INTRA:         -10.454
REMARK INTER:                  -9.843
REMARK INTRA:                  -0.610
REMARK UNBOUND:                -0.729
REMARK  Name = 
REMARK  8 active torsions:
REMARK  status: ('A' for Active; 'I' for Inactive)
REMARK    1  A    between atoms: C_1  and  C_2
REMARK    2  A    between atoms: C_2  and  O_3
REMARK    3  A    between atoms: C_5  and  O_6
REMARK    4  A    between atoms: O_6  and  C_7
REMARK    5  A    between atoms: C_11  and  C_12
REMARK    6  A    between atoms: C_12  and  C_13
REMARK    7  A    between atoms: C_13  and  N_14
REMARK    8  A    between atoms: C_18  and  C_19
REMARK                            x       y       z     vdW  Elec       q    Type
REMARK                         _______ _______ _______ _____ _____    ______ ____
ROOT
ATOM      1  C   UNL     1      45.663   5.739  13.308  0.00  0.00    +0.000 C 
ENDROOT
BRANCH   1   6
ATOM      2  C   UNL     1      44.581   3.932  10.081  0.00  0.00    +0.000 A 
ATOM      3  C   UNL     1      43.677   3.003  10.590  0.00  0.00    +0.000 A 
ATOM      4  C   UNL     1      43.379   3.006  11.954  0.00  0.00    +0.000 A 
ATOM      5  C   UNL     1      44.006   3.910  12.812  0.00  0.00    +0.000 A 
ATOM      6  C   UNL     1      44.955   4.821  12.325  0.00  0.00    +0.000 A 
ATOM      7  C   UNL     1      45.220   4.824  10.944  0.00  0.00    +0.000 A 
BRANCH   2   8
ATOM      8  O   UNL     1      44.915   4.045   8.754  0.00  0.00    +0.000 OA
BRANCH   8  12
ATOM      9  C   UNL     1      47.157   2.681   5.044  0.00  0.00    +0.000 C 
ATOM     10  C   UNL     1      47.164   2.664   6.563  0.00  0.00    +0.000 C 
ATOM     11  C   UNL     1      45.825   2.236   7.207  0.00  0.00    +0.000 C 
ATOM     12  C   UNL     1      46.071   3.315   8.294  0.00  0.00    +0.000 C 
ATOM     13  C   UNL     1      46.957   4.042   7.250  0.00  0.00    +0.000 C 
BRANCH  10  14
ATOM     14  O   UNL     1      48.321   1.932   7.027  0.00  0.00    +0.000 OA
ATOM     15  H   UNL     1      48.918   2.602   7.403  0.00  0.00    +0.000 HD
ENDBRANCH  10  14
ENDBRANCH   8  12
ENDBRANCH   2   8
ENDBRANCH   1   6
BRANCH   1  16
ATOM     16  C   UNL     1      47.022   5.221  13.783  0.00  0.00    +0.000 C 
BRANCH  16  17
ATOM     17  N   UNL     1      46.921   3.995  14.584  0.00  0.00    +0.000 N 
ATOM     18  C   UNL     1      47.485   4.184  15.863  0.00  0.00    +0.000 A 
ATOM     19  C   UNL     1      47.507   3.118  16.758  0.00  0.00    +0.000 A 
ATOM     20  C   UNL     1      48.056   3.304  18.031  0.00  0.00    +0.000 A 
ATOM     21  C   UNL     1      48.573   4.550  18.393  0.00  0.00    +0.000 A 
ATOM     22  C   UNL     1      48.499   5.555  17.449  0.00  0.00    +0.000 A 
ATOM     23  N   UNL     1      47.968   5.395  16.215  0.00  0.00    +0.000 NA
ATOM     24  H   UNL     1      47.389   3.209  14.141  0.00  0.00    +0.000 HD
BRANCH  21  25
ATOM     25  C   UNL     1      49.163   4.739  19.740  0.00  0.00    +0.000 C 
ATOM     26  N   UNL     1      48.700   3.979  20.782  0.00  0.00    +0.000 N 
ATOM     27  O   UNL     1      50.047   5.563  19.933  0.00  0.00    +0.000 OA
ATOM     28  H   UNL     1      47.968   3.288  20.739  0.00  0.00    +0.000 HD
ATOM     29  H   UNL     1      49.124   4.148  21.685  0.00  0.00    +0.000 HD
ENDBRANCH  21  25
ENDBRANCH  16  17
ENDBRANCH   1  16
TORSDOF 7
ENDMDL
MODEL 6
REMARK VINA RESULT:    -6.877      2.373      2.997
REMARK INTER + INTRA:         -10.219
REMARK INTER:                 -10.205
REMARK INTRA:                  -0.014
REMARK UNBOUND:                -0.729
REMARK  Name = 
REMARK  8 active torsions:
REMARK  status: ('A' for Active; 'I' for Inactive)
REMARK    1  A    between atoms: C_1  and  C_2
REMARK    2  A    between atoms: C_2  and  O_3
REMARK    3  A    between atoms: C_5  and  O_6
REMARK    4  A    between atoms: O_6  and  C_7
REMARK    5  A    between atoms: C_11  and  C_12
REMARK    6  A    between atoms: C_12  and  C_13
REMARK    7  A    between atoms: C_13  and  N_14
REMARK    8  A    between atoms: C_18  and  C_19
REMARK                            x       y       z     vdW  Elec       q    Type
REMARK                         _______ _______ _______ _____ _____    ______ ____
ROOT
ATOM      1  C   UNL     1      44.423   4.000  12.341  0.00  0.00    +0.000 C 
ENDROOT
BRANCH   1   6
ATOM      2  C   UNL     1      47.114   6.443  13.620  0.00  0.00    +0.000 A 
ATOM      3  C   UNL     1      46.554   7.664  13.257  0.00  0.00    +0.000 A 
ATOM      4  C   UNL     1      45.292   7.695  12.661  0.00  0.00    +0.000 A 
ATOM      5  C   UNL     1      44.607   6.509  12.396  0.00  0.00    +0.000 A 
ATOM      6  C   UNL     1      45.177   5.267  12.710  0.00  0.00    +0.000 A 
ATOM      7  C   UNL     1      46.434   5.256  13.338  0.00  0.00    +0.000 A 
BRANCH   2   8
ATOM      8  O   UNL     1      48.327   6.299  14.248  0.00  0.00    +0.000 OA
BRANCH   8  12
ATOM      9  C   UNL     1      50.985   8.186  17.413  0.00  0.00    +0.000 C 
ATOM     10  C   UNL     1      50.307   8.422  16.075  0.00  0.00    +0.000 C 
ATOM     11  C   UNL     1      48.807   8.047  16.039  0.00  0.00    +0.000 C 
ATOM     12  C   UNL     1      49.039   7.502  14.605  0.00  0.00    +0.000 C 
ATOM     13  C   UNL     1      50.523   7.312  15.009  0.00  0.00    +0.000 C 
BRANCH  10  14
ATOM     14  O   UNL     1      50.607   9.759  15.615  0.00  0.00    +0.000 OA
ATOM     15  H   UNL     1      51.302  10.088  16.212  0.00  0.00    +0.000 HD
ENDBRANCH  10  14
ENDBRANCH   8  12
ENDBRANCH   2   8
ENDBRANCH   1   6
BRANCH   1  16
ATOM     16  C   UNL     1      43.471   4.159  11.153  0.00  0.00    +0.000 C 
BRANCH  16  17
ATOM     17  N   UNL     1      44.079   4.874  10.024  0.00  0.00    +0.000 N 
ATOM     18  C   UNL     1      44.879   4.004   9.253  0.00  0.00    +0.000 A 
ATOM     19  C   UNL     1      45.563   4.510   8.151  0.00  0.00    +0.000 A 
ATOM     20  C   UNL     1      46.349   3.648   7.378  0.00  0.00    +0.000 A 
ATOM     21  C   UNL     1      46.439   2.296   7.714  0.00  0.00    +0.000 A 
ATOM     22  C   UNL     1      45.718   1.876   8.814  0.00  0.00    +0.000 A 
ATOM     23  N   UNL     1      44.950   2.693   9.571  0.00  0.00    +0.000 NA
ATOM     24  H   UNL     1      44.658   5.652  10.331  0.00  0.00    +0.000 HD
BRANCH  21  25
ATOM     25  C   UNL     1      47.281   1.390   6.897  0.00  0.00    +0.000 C 
ATOM     26  N   UNL     1      48.318   1.917   6.172  0.00  0.00    +0.000 N 
ATOM     27  O   UNL     1      47.060   0.186   6.857  0.00  0.00    +0.000 OA
ATOM     28  H   UNL     1      48.576   2.889   6.118  0.00  0.00    +0.000 HD
ATOM     29  H   UNL     1      48.860   1.263   5.621  0.00  0.00    +0.000 HD
ENDBRANCH  21  25
ENDBRANCH  16  17
ENDBRANCH   1  16
TORSDOF 7
ENDMDL
MODEL 7
REMARK VINA RESULT:    -6.589      2.787      3.244
REMARK INTER + INTRA:          -9.822
REMARK INTER:                  -9.219
REMARK INTRA:                  -0.603
REMARK UNBOUND:                -0.729
REMARK  Name = 
REMARK  8 active torsions:
REMARK  status: ('A' for Active; 'I' for Inactive)
REMARK    1  A    between atoms: C_1  and  C_2
REMARK    2  A    between atoms: C_2  and  O_3
REMARK    3  A    between atoms: C_5  and  O_6
REMARK    4  A    between atoms: O_6  and  C_7
REMARK    5  A    between atoms: C_11  and  C_12
REMARK    6  A    between atoms: C_12  and  C_13
REMARK    7  A    between atoms: C_13  and  N_14
REMARK    8  A    between atoms: C_18  and  C_19
REMARK                            x       y       z     vdW  Elec       q    Type
REMARK                         _______ _______ _______ _____ _____    ______ ____
ROOT
ATOM      1  C   UNL     1      44.657   5.264  12.165  0.00  0.00    +0.000 C 
ENDROOT
BRANCH   1   6
ATOM      2  C   UNL     1      46.371   8.675  12.687  0.00  0.00    +0.000 A 
ATOM      3  C   UNL     1      45.574   9.495  11.892  0.00  0.00    +0.000 A 
ATOM      4  C   UNL     1      44.460   8.956  11.245  0.00  0.00    +0.000 A 
ATOM      5  C   UNL     1      44.163   7.598  11.364  0.00  0.00    +0.000 A 
ATOM      6  C   UNL     1      44.982   6.749  12.121  0.00  0.00    +0.000 A 
ATOM      7  C   UNL     1      46.081   7.314  12.790  0.00  0.00    +0.000 A 
BRANCH   2   8
ATOM      8  O   UNL     1      47.463   9.107  13.399  0.00  0.00    +0.000 OA
BRANCH   8  12
ATOM      9  C   UNL     1      50.810   8.474  16.408  0.00  0.00    +0.000 C 
ATOM     10  C   UNL     1      49.438   7.990  15.972  0.00  0.00    +0.000 C 
ATOM     11  C   UNL     1      49.308   7.703  14.458  0.00  0.00    +0.000 C 
ATOM     12  C   UNL     1      47.882   8.309  14.526  0.00  0.00    +0.000 C 
ATOM     13  C   UNL     1      48.369   9.098  15.768  0.00  0.00    +0.000 C 
BRANCH  10  14
ATOM     14  O   UNL     1      49.019   6.905  16.831  0.00  0.00    +0.000 OA
ATOM     15  H   UNL     1      49.666   6.194  16.685  0.00  0.00    +0.000 HD
ENDBRANCH  10  14
ENDBRANCH   8  12
ENDBRANCH   2   8
ENDBRANCH   1   6
BRANCH   1  16
ATOM     16  C   UNL     1      43.692   4.801  11.071  0.00  0.00    +0.000 C 
BRANCH  16  17
ATOM     17  N   UNL     1      43.854   3.383  10.728  0.00  0.00    +0.000 N 
ATOM     18  C   UNL     1      44.703   3.232   9.610  0.00  0.00    +0.000 A 
ATOM     19  C   UNL     1      44.954   1.955   9.118  0.00  0.00    +0.000 A 
ATOM     20  C   UNL     1      45.803   1.800   8.017  0.00  0.00    +0.000 A 
ATOM     21  C   UNL     1      46.390   2.921   7.426  0.00  0.00    +0.000 A 
ATOM     22  C   UNL     1      46.099   4.148   7.987  0.00  0.00    +0.000 A 
ATOM     23  N   UNL     1      45.284   4.317   9.053  0.00  0.00    +0.000 NA
ATOM     24  H   UNL     1      42.965   2.936  10.516  0.00  0.00    +0.000 HD
BRANCH  21  25
ATOM     25  C   UNL     1      47.283   2.752   6.253  0.00  0.00    +0.000 C 
ATOM     26  N   UNL     1      48.610   2.483   6.460  0.00  0.00    +0.000 N 
ATOM     27  O   UNL     1      46.852   2.854   5.112  0.00  0.00    +0.000 OA
ATOM     28  H   UNL     1      49.071   2.397   7.352  0.00  0.00    +0.000 HD
ATOM     29  H   UNL     1      49.183   2.385   5.632  0.00  0.00    +0.000 HD
ENDBRANCH  21  25
ENDBRANCH  16  17
ENDBRANCH   1  16
TORSDOF 7
ENDMDL
MODEL 8
REMARK VINA RESULT:    -6.564      3.892      6.292
REMARK INTER + INTRA:          -9.787
REMARK INTER:                  -9.152
REMARK INTRA:                  -0.635
REMARK UNBOUND:                -0.729
REMARK  Name = 
REMARK  8 active torsions:
REMARK  status: ('A' for Active; 'I' for Inactive)
REMARK    1  A    between atoms: C_1  and  C_2
REMARK    2  A    between atoms: C_2  and  O_3
REMARK    3  A    between atoms: C_5  and  O_6
REMARK    4  A    between atoms: O_6  and  C_7
REMARK    5  A    between atoms: C_11  and  C_12
REMARK    6  A    between atoms: C_12  and  C_13
REMARK    7  A    between atoms: C_13  and  N_14
REMARK    8  A    between atoms: C_18  and  C_19
REMARK                            x       y       z     vdW  Elec       q    Type
REMARK                         _______ _______ _______ _____ _____    ______ ____
ROOT
ATOM      1  C   UNL     1      47.285   3.896  17.388  0.00  0.00    +0.000 C 
ENDROOT
BRANCH   1   6
ATOM      2  C   UNL     1      51.022   4.055  18.315  0.00  0.00    +0.000 A 
ATOM      3  C   UNL     1      50.968   4.776  19.505  0.00  0.00    +0.000 A 
ATOM      4  C   UNL     1      49.729   5.152  20.028  0.00  0.00    +0.000 A 
ATOM      5  C   UNL     1      48.551   4.839  19.349  0.00  0.00    +0.000 A 
ATOM      6  C   UNL     1      48.589   4.155  18.125  0.00  0.00    +0.000 A 
ATOM      7  C   UNL     1      49.843   3.758  17.629  0.00  0.00    +0.000 A 
BRANCH   2   8
ATOM      8  O   UNL     1      52.180   3.599  17.734  0.00  0.00    +0.000 OA
BRANCH   8  12
ATOM      9  C   UNL     1      54.374  -0.193  16.527  0.00  0.00    +0.000 C 
ATOM     10  C   UNL     1      53.784   0.568  17.702  0.00  0.00    +0.000 C 
ATOM     11  C   UNL     1      52.337   1.068  17.484  0.00  0.00    +0.000 C 
ATOM     12  C   UNL     1      52.737   2.366  18.234  0.00  0.00    +0.000 C 
ATOM     13  C   UNL     1      54.195   2.063  17.807  0.00  0.00    +0.000 C 
BRANCH  10  14
ATOM     14  O   UNL     1      53.985  -0.194  18.914  0.00  0.00    +0.000 OA
ATOM     15  H   UNL     1      54.702  -0.820  18.711  0.00  0.00    +0.000 HD
ENDBRANCH  10  14
ENDBRANCH   8  12
ENDBRANCH   2   8
ENDBRANCH   1   6
BRANCH   1  16
ATOM     16  C   UNL     1      47.432   3.800  15.868  0.00  0.00    +0.000 C 
BRANCH  16  17
ATOM     17  N   UNL     1      47.085   5.049  15.179  0.00  0.00    +0.000 N 
ATOM     18  C   UNL     1      46.440   4.782  13.952  0.00  0.00    +0.000 A 
ATOM     19  C   UNL     1      46.059   5.847  13.141  0.00  0.00    +0.000 A 
ATOM     20  C   UNL     1      45.410   5.586  11.929  0.00  0.00    +0.000 A 
ATOM     21  C   UNL     1      45.150   4.269  11.546  0.00  0.00    +0.000 A 
ATOM     22  C   UNL     1      45.549   3.275  12.417  0.00  0.00    +0.000 A 
ATOM     23  N   UNL     1      46.174   3.507  13.594  0.00  0.00    +0.000 NA
ATOM     24  H   UNL     1      47.903   5.623  14.991  0.00  0.00    +0.000 HD
BRANCH  21  25
ATOM     25  C   UNL     1      44.470   3.998  10.256  0.00  0.00    +0.000 C 
ATOM     26  N   UNL     1      44.766   4.781   9.171  0.00  0.00    +0.000 N 
ATOM     27  O   UNL     1      43.651   3.095  10.151  0.00  0.00    +0.000 OA
ATOM     28  H   UNL     1      45.407   5.558   9.151  0.00  0.00    +0.000 HD
ATOM     29  H   UNL     1      44.271   4.567   8.314  0.00  0.00    +0.000 HD
ENDBRANCH  21  25
ENDBRANCH  16  17
ENDBRANCH   1  16
TORSDOF 7
ENDMDL
MODEL 9
REMARK VINA RESULT:    -6.549      3.818      7.283
REMARK INTER + INTRA:          -9.766
REMARK INTER:                  -8.725
REMARK INTRA:                  -1.041
REMARK UNBOUND:                -0.729
REMARK  Name = 
REMARK  8 active torsions:
REMARK  status: ('A' for Active; 'I' for Inactive)
REMARK    1  A    between atoms: C_1  and  C_2
REMARK    2  A    between atoms: C_2  and  O_3
REMARK    3  A    between atoms: C_5  and  O_6
REMARK    4  A    between atoms: O_6  and  C_7
REMARK    5  A    between atoms: C_11  and  C_12
REMARK    6  A    between atoms: C_12  and  C_13
REMARK    7  A    between atoms: C_13  and  N_14
REMARK    8  A    between atoms: C_18  and  C_19
REMARK                            x       y       z     vdW  Elec       q    Type
REMARK                         _______ _______ _______ _____ _____    ______ ____
ROOT
ATOM      1  C   UNL     1      48.817   9.108  12.869  0.00  0.00    +0.000 C 
ENDROOT
BRANCH   1   6
ATOM      2  C   UNL     1      45.185   8.452  11.763  0.00  0.00    +0.000 A 
ATOM      3  C   UNL     1      44.739   9.752  11.540  0.00  0.00    +0.000 A 
ATOM      4  C   UNL     1      45.625  10.821  11.689  0.00  0.00    +0.000 A 
ATOM      5  C   UNL     1      46.942  10.595  12.091  0.00  0.00    +0.000 A 
ATOM      6  C   UNL     1      47.395   9.297  12.367  0.00  0.00    +0.000 A 
ATOM      7  C   UNL     1      46.498   8.231  12.183  0.00  0.00    +0.000 A 
BRANCH   2   8
ATOM      8  O   UNL     1      44.413   7.327  11.607  0.00  0.00    +0.000 OA
BRANCH   8  12
ATOM      9  C   UNL     1      43.590   2.874  11.986  0.00  0.00    +0.000 C 
ATOM     10  C   UNL     1      44.567   3.980  12.344  0.00  0.00    +0.000 C 
ATOM     11  C   UNL     1      43.916   5.234  12.973  0.00  0.00    +0.000 C 
ATOM     12  C   UNL     1      44.917   6.091  12.155  0.00  0.00    +0.000 C 
ATOM     13  C   UNL     1      45.000   4.899  11.168  0.00  0.00    +0.000 C 
BRANCH  10  14
ATOM     14  O   UNL     1      45.665   3.423  13.102  0.00  0.00    +0.000 OA
ATOM     15  H   UNL     1      46.461   3.876  12.776  0.00  0.00    +0.000 HD
ENDBRANCH  10  14
ENDBRANCH   8  12
ENDBRANCH   2   8
ENDBRANCH   1   6
BRANCH   1  16
ATOM     16  C   UNL     1      49.180   7.657  13.195  0.00  0.00    +0.000 C 
BRANCH  16  17
ATOM     17  N   UNL     1      49.895   7.518  14.469  0.00  0.00    +0.000 N 
ATOM     18  C   UNL     1      49.287   6.536  15.280  0.00  0.00    +0.000 A 
ATOM     19  C   UNL     1      49.811   6.282  16.545  0.00  0.00    +0.000 A 
ATOM     20  C   UNL     1      49.217   5.302  17.348  0.00  0.00    +0.000 A 
ATOM     21  C   UNL     1      48.113   4.589  16.877  0.00  0.00    +0.000 A 
ATOM     22  C   UNL     1      47.667   4.895  15.606  0.00  0.00    +0.000 A 
ATOM     23  N   UNL     1      48.230   5.836  14.814  0.00  0.00    +0.000 NA
ATOM     24  H   UNL     1      49.922   8.391  14.990  0.00  0.00    +0.000 HD
BRANCH  21  25
ATOM     25  C   UNL     1      47.482   3.558  17.736  0.00  0.00    +0.000 C 
ATOM     26  N   UNL     1      48.052   3.260  18.945  0.00  0.00    +0.000 N 
ATOM     27  O   UNL     1      46.470   2.970  17.378  0.00  0.00    +0.000 OA
ATOM     28  H   UNL     1      48.890   3.667  19.328  0.00  0.00    +0.000 HD
ATOM     29  H   UNL     1      47.594   2.544  19.494  0.00  0.00    +0.000 HD
ENDBRANCH  21  25
ENDBRANCH  16  17
ENDBRANCH   1  16
TORSDOF 7
ENDMDL
