MODEL 1
REMARK VINA RESULT:    -7.930      0.000      0.000
REMARK INTER + INTRA:         -12.062
REMARK INTER:                 -11.175
REMARK INTRA:                  -0.887
REMARK UNBOUND:                -0.887
REMARK  Name = 
REMARK  9 active torsions:
REMARK  status: ('A' for Active; 'I' for Inactive)
REMARK    1  A    between atoms: C_1  and  C_2
REMARK    2  A    between atoms: C_2  and  N_3
REMARK    3  A    between atoms: C_2  and  C_26
REMARK    4  A    between atoms: N_3  and  C_4
REMARK    5  A    between atoms: C_6  and  C_7
REMARK    6  A    between atoms: C_12  and  C_13
REMARK    7  A    between atoms: C_13  and  C_14
REMARK    8  A    between atoms: C_14  and  N_15
REMARK    9  A    between atoms: C_19  and  C_20
REMARK                            x       y       z     vdW  Elec       q    Type
REMARK                         _______ _______ _______ _____ _____    ______ ____
ROOT
ATOM      1  C   UNL     1      45.430   7.069  11.908  0.00  0.00    +0.000 A 
ATOM      2  C   UNL     1      46.792   7.294  12.187  0.00  0.00    +0.000 A 
ATOM      3  C   UNL     1      47.522   6.479  13.064  0.00  0.00    +0.000 A 
ATOM      4  C   UNL     1      46.866   5.438  13.719  0.00  0.00    +0.000 A 
ATOM      5  C   UNL     1      45.504   5.219  13.489  0.00  0.00    +0.000 A 
ATOM      6  C   UNL     1      44.771   6.023  12.592  0.00  0.00    +0.000 A 
ENDROOT
BRANCH   3   7
ATOM      7  C   UNL     1      48.978   6.772  13.228  0.00  0.00    +0.000 C 
ATOM      8  N   UNL     1      49.725   7.056  12.117  0.00  0.00    +0.000 N 
ATOM      9  O   UNL     1      49.510   6.784  14.332  0.00  0.00    +0.000 OA
ATOM     10  H   UNL     1      49.372   7.128  11.178  0.00  0.00    +0.000 HD
ATOM     11  H   UNL     1      50.692   7.299  12.279  0.00  0.00    +0.000 HD
ENDBRANCH   3   7
BRANCH   1  12
ATOM     12  N   UNL     1      44.719   7.885  10.988  0.00  0.00    +0.000 N 
ATOM     13  H   UNL     1      44.087   7.306  10.435  0.00  0.00    +0.000 HD
BRANCH  12  15
ATOM     14  C   UNL     1      44.949  10.173  12.051  0.00  0.00    +0.000 C 
ATOM     15  C   UNL     1      44.210   9.150  11.236  0.00  0.00    +0.000 C 
ATOM     16  C   UNL     1      42.918   9.570  10.602  0.00  0.00    +0.000 C 
ENDBRANCH  12  15
ENDBRANCH   1  12
BRANCH   6  17
ATOM     17  C   UNL     1      43.309   5.672  12.359  0.00  0.00    +0.000 C 
BRANCH  17  18
ATOM     18  C   UNL     1      43.090   5.066  10.969  0.00  0.00    +0.000 C 
BRANCH  18  19
ATOM     19  N   UNL     1      43.405   3.625  10.943  0.00  0.00    +0.000 N 
ATOM     20  C   UNL     1      44.288   3.302   9.887  0.00  0.00    +0.000 A 
ATOM     21  C   UNL     1      44.690   1.985   9.658  0.00  0.00    +0.000 A 
ATOM     22  N   UNL     1      45.539   1.610   8.661  0.00  0.00    +0.000 NA
ATOM     23  C   UNL     1      46.009   2.620   7.875  0.00  0.00    +0.000 A 
ATOM     24  C   UNL     1      45.622   3.930   8.109  0.00  0.00    +0.000 A 
ATOM     25  N   UNL     1      44.778   4.284   9.103  0.00  0.00    +0.000 NA
ATOM     26  H   UNL     1      42.568   3.054  10.850  0.00  0.00    +0.000 HD
BRANCH  23  27
ATOM     27  C   UNL     1      46.954   2.372   6.720  0.00  0.00    +0.000 C 
ATOM     28  F   UNL     1      48.201   2.900   6.881  0.00  0.00    +0.000 F 
ATOM     29  F   UNL     1      47.145   1.040   6.483  0.00  0.00    +0.000 F 
ATOM     30  F   UNL     1      46.484   2.881   5.547  0.00  0.00    +0.000 F 
ENDBRANCH  23  27
ENDBRANCH  18  19
ENDBRANCH  17  18
ENDBRANCH   6  17
TORSDOF 7
ENDMDL
MODEL 2
REMARK VINA RESULT:    -7.511      1.726      3.408
REMARK INTER + INTRA:         -11.472
REMARK INTER:                 -10.462
REMARK INTRA:                  -1.010
REMARK UNBOUND:                -0.887
REMARK  Name = 
REMARK  9 active torsions:
REMARK  status: ('A' for Active; 'I' for Inactive)
REMARK    1  A    between atoms: C_1  and  C_2
REMARK    2  A    between atoms: C_2  and  N_3
REMARK    3  A    between atoms: C_2  and  C_26
REMARK    4  A    between atoms: N_3  and  C_4
REMARK    5  A    between atoms: C_6  and  C_7
REMARK    6  A    between atoms: C_12  and  C_13
REMARK    7  A    between atoms: C_13  and  C_14
REMARK    8  A    between atoms: C_14  and  N_15
REMARK    9  A    between atoms: C_19  and  C_20
REMARK                            x       y       z     vdW  Elec       q    Type
REMARK                         _______ _______ _______ _____ _____    ______ ____
ROOT
ATOM      1  C   UNL     1      46.622   5.325  13.757  0.00  0.00    +0.000 A 
ATOM      2  C   UNL     1      47.898   5.892  13.574  0.00  0.00    +0.000 A 
ATOM      3  C   UNL     1      48.159   6.843  12.576  0.00  0.00    +0.000 A 
ATOM      4  C   UNL     1      47.133   7.204  11.705  0.00  0.00    +0.000 A 
ATOM      5  C   UNL     1      45.867   6.626  11.842  0.00  0.00    +0.000 A 
ATOM      6  C   UNL     1      45.595   5.686  12.856  0.00  0.00    +0.000 A 
ENDROOT
BRANCH   3   7
ATOM      7  C   UNL     1      49.535   7.426  12.522  0.00  0.00    +0.000 C 
ATOM      8  N   UNL     1      50.283   7.462  13.667  0.00  0.00    +0.000 N 
ATOM      9  O   UNL     1      50.011   7.850  11.476  0.00  0.00    +0.000 OA
ATOM     10  H   UNL     1      50.006   7.089  14.559  0.00  0.00    +0.000 HD
ATOM     11  H   UNL     1      51.224   7.817  13.574  0.00  0.00    +0.000 HD
ENDBRANCH   3   7
BRANCH   1  12
ATOM     12  N   UNL     1      46.370   4.392  14.797  0.00  0.00    +0.000 N 
ATOM     13  H   UNL     1      45.929   3.558  14.409  0.00  0.00    +0.000 HD
BRANCH  12  15
ATOM     14  C   UNL     1      47.241   4.953  17.108  0.00  0.00    +0.000 C 
ATOM     15  C   UNL     1      47.205   4.109  15.867  0.00  0.00    +0.000 C 
ATOM     16  C   UNL     1      48.046   2.869  15.847  0.00  0.00    +0.000 C 
ENDBRANCH  12  15
ENDBRANCH   1  12
BRANCH   6  17
ATOM     17  C   UNL     1      44.173   5.155  12.967  0.00  0.00    +0.000 C 
BRANCH  17  18
ATOM     18  C   UNL     1      43.573   4.862  11.588  0.00  0.00    +0.000 C 
BRANCH  18  19
ATOM     19  N   UNL     1      43.661   3.429  11.244  0.00  0.00    +0.000 N 
ATOM     20  C   UNL     1      44.472   3.214  10.106  0.00  0.00    +0.000 A 
ATOM     21  C   UNL     1      44.663   1.933   9.587  0.00  0.00    +0.000 A 
ATOM     22  N   UNL     1      45.432   1.659   8.497  0.00  0.00    +0.000 NA
ATOM     23  C   UNL     1      46.044   2.733   7.922  0.00  0.00    +0.000 A 
ATOM     24  C   UNL     1      45.866   4.004   8.443  0.00  0.00    +0.000 A 
ATOM     25  N   UNL     1      45.099   4.258   9.526  0.00  0.00    +0.000 NA
ATOM     26  H   UNL     1      42.744   3.023  11.071  0.00  0.00    +0.000 HD
BRANCH  23  27
ATOM     27  C   UNL     1      46.925   2.602   6.700  0.00  0.00    +0.000 C 
ATOM     28  F   UNL     1      46.888   1.377   6.099  0.00  0.00    +0.000 F 
ATOM     29  F   UNL     1      46.598   3.501   5.725  0.00  0.00    +0.000 F 
ATOM     30  F   UNL     1      48.238   2.838   6.979  0.00  0.00    +0.000 F 
ENDBRANCH  23  27
ENDBRANCH  18  19
ENDBRANCH  17  18
ENDBRANCH   6  17
TORSDOF 7
ENDMDL
MODEL 3
REMARK VINA RESULT:    -7.152      1.915      3.441
REMARK INTER + INTRA:         -10.966
REMARK INTER:                 -10.129
REMARK INTRA:                  -0.837
REMARK UNBOUND:                -0.887
REMARK  Name = 
REMARK  9 active torsions:
REMARK  status: ('A' for Active; 'I' for Inactive)
REMARK    1  A    between atoms: C_1  and  C_2
REMARK    2  A    between atoms: C_2  and  N_3
REMARK    3  A    between atoms: C_2  and  C_26
REMARK    4  A    between atoms: N_3  and  C_4
REMARK    5  A    between atoms: C_6  and  C_7
REMARK    6  A    between atoms: C_12  and  C_13
REMARK    7  A    between atoms: C_13  and  C_14
REMARK    8  A    between atoms: C_14  and  N_15
REMARK    9  A    between atoms: C_19  and  C_20
REMARK                            x       y       z     vdW  Elec       q    Type
REMARK                         _______ _______ _______ _____ _____    ______ ____
ROOT
ATOM      1  C   UNL     1      44.930   6.564  12.865  0.00  0.00    +0.000 A 
ATOM      2  C   UNL     1      45.816   7.658  12.842  0.00  0.00    +0.000 A 
ATOM      3  C   UNL     1      45.574   8.802  12.067  0.00  0.00    +0.000 A 
ATOM      4  C   UNL     1      44.443   8.838  11.254  0.00  0.00    +0.000 A 
ATOM      5  C   UNL     1      43.568   7.747  11.230  0.00  0.00    +0.000 A 
ATOM      6  C   UNL     1      43.795   6.604  12.023  0.00  0.00    +0.000 A 
ENDROOT
BRANCH   3   7
ATOM      7  C   UNL     1      46.550   9.929  12.177  0.00  0.00    +0.000 C 
ATOM      8  N   UNL     1      46.081  11.214  12.147  0.00  0.00    +0.000 N 
ATOM      9  O   UNL     1      47.751   9.727  12.314  0.00  0.00    +0.000 OA
ATOM     10  H   UNL     1      45.113  11.483  12.096  0.00  0.00    +0.000 HD
ATOM     11  H   UNL     1      46.769  11.943  12.276  0.00  0.00    +0.000 HD
ENDBRANCH   3   7
BRANCH   1  12
ATOM     12  N   UNL     1      45.175   5.431  13.685  0.00  0.00    +0.000 N 
ATOM     13  H   UNL     1      44.295   4.958  13.888  0.00  0.00    +0.000 HD
BRANCH  12  15
ATOM     14  C   UNL     1      47.559   4.794  14.259  0.00  0.00    +0.000 C 
ATOM     15  C   UNL     1      46.243   4.554  13.576  0.00  0.00    +0.000 C 
ATOM     16  C   UNL     1      46.074   3.265  12.830  0.00  0.00    +0.000 C 
ENDBRANCH  12  15
ENDBRANCH   1  12
BRANCH   6  17
ATOM     17  C   UNL     1      42.758   5.492  11.977  0.00  0.00    +0.000 C 
BRANCH  17  18
ATOM     18  C   UNL     1      43.124   4.424  10.941  0.00  0.00    +0.000 C 
BRANCH  18  19
ATOM     19  N   UNL     1      43.857   4.998   9.797  0.00  0.00    +0.000 N 
ATOM     20  C   UNL     1      44.663   4.030   9.154  0.00  0.00    +0.000 A 
ATOM     21  C   UNL     1      45.469   4.368   8.066  0.00  0.00    +0.000 A 
ATOM     22  N   UNL     1      46.265   3.482   7.403  0.00  0.00    +0.000 NA
ATOM     23  C   UNL     1      46.226   2.198   7.859  0.00  0.00    +0.000 A 
ATOM     24  C   UNL     1      45.416   1.858   8.930  0.00  0.00    +0.000 A 
ATOM     25  N   UNL     1      44.633   2.749   9.577  0.00  0.00    +0.000 NA
ATOM     26  H   UNL     1      44.449   5.777  10.077  0.00  0.00    +0.000 HD
BRANCH  23  27
ATOM     27  C   UNL     1      47.054   1.096   7.238  0.00  0.00    +0.000 C 
ATOM     28  F   UNL     1      46.821  -0.148   7.747  0.00  0.00    +0.000 F 
ATOM     29  F   UNL     1      46.849   0.988   5.892  0.00  0.00    +0.000 F 
ATOM     30  F   UNL     1      48.393   1.309   7.381  0.00  0.00    +0.000 F 
ENDBRANCH  23  27
ENDBRANCH  18  19
ENDBRANCH  17  18
ENDBRANCH   6  17
TORSDOF 7
ENDMDL
MODEL 4
REMARK VINA RESULT:    -6.810      4.365      7.238
REMARK INTER + INTRA:         -10.485
REMARK INTER:                 -10.026
REMARK INTRA:                  -0.459
REMARK UNBOUND:                -0.887
REMARK  Name = 
REMARK  9 active torsions:
REMARK  status: ('A' for Active; 'I' for Inactive)
REMARK    1  A    between atoms: C_1  and  C_2
REMARK    2  A    between atoms: C_2  and  N_3
REMARK    3  A    between atoms: C_2  and  C_26
REMARK    4  A    between atoms: N_3  and  C_4
REMARK    5  A    between atoms: C_6  and  C_7
REMARK    6  A    between atoms: C_12  and  C_13
REMARK    7  A    between atoms: C_13  and  C_14
REMARK    8  A    between atoms: C_14  and  N_15
REMARK    9  A    between atoms: C_19  and  C_20
REMARK                            x       y       z     vdW  Elec       q    Type
REMARK                         _______ _______ _______ _____ _____    ______ ____
ROOT
ATOM      1  C   UNL     1      44.977   3.013   9.741  0.00  0.00    +0.000 A 
ATOM      2  C   UNL     1      45.550   1.963   8.998  0.00  0.00    +0.000 A 
ATOM      3  C   UNL     1      46.383   2.193   7.894  0.00  0.00    +0.000 A 
ATOM      4  C   UNL     1      46.615   3.506   7.488  0.00  0.00    +0.000 A 
ATOM      5  C   UNL     1      46.026   4.566   8.186  0.00  0.00    +0.000 A 
ATOM      6  C   UNL     1      45.205   4.339   9.309  0.00  0.00    +0.000 A 
ENDROOT
BRANCH   3   7
ATOM      7  C   UNL     1      46.989   1.001   7.226  0.00  0.00    +0.000 C 
ATOM      8  N   UNL     1      46.660  -0.248   7.676  0.00  0.00    +0.000 N 
ATOM      9  O   UNL     1      47.754   1.118   6.275  0.00  0.00    +0.000 OA
ATOM     10  H   UNL     1      46.001  -0.451   8.409  0.00  0.00    +0.000 HD
ATOM     11  H   UNL     1      47.052  -1.025   7.164  0.00  0.00    +0.000 HD
ENDBRANCH   3   7
BRANCH   1  12
ATOM     12  N   UNL     1      44.166   2.758  10.878  0.00  0.00    +0.000 N 
ATOM     13  H   UNL     1      43.800   1.807  10.831  0.00  0.00    +0.000 HD
BRANCH  12  15
ATOM     14  C   UNL     1      45.776   3.064  12.810  0.00  0.00    +0.000 C 
ATOM     15  C   UNL     1      44.418   3.172  12.177  0.00  0.00    +0.000 C 
ATOM     16  C   UNL     1      43.336   3.842  12.968  0.00  0.00    +0.000 C 
ENDBRANCH  12  15
ENDBRANCH   1  12
BRANCH   6  17
ATOM     17  C   UNL     1      44.656   5.555  10.042  0.00  0.00    +0.000 C 
BRANCH  17  18
ATOM     18  C   UNL     1      45.781   6.411  10.633  0.00  0.00    +0.000 C 
BRANCH  18  19
ATOM     19  N   UNL     1      46.079   6.037  12.029  0.00  0.00    +0.000 N 
ATOM     20  C   UNL     1      47.308   6.585  12.465  0.00  0.00    +0.000 A 
ATOM     21  C   UNL     1      47.799   6.327  13.745  0.00  0.00    +0.000 A 
ATOM     22  N   UNL     1      48.973   6.826  14.225  0.00  0.00    +0.000 NA
ATOM     23  C   UNL     1      49.665   7.631  13.371  0.00  0.00    +0.000 A 
ATOM     24  C   UNL     1      49.172   7.899  12.104  0.00  0.00    +0.000 A 
ATOM     25  N   UNL     1      48.006   7.396  11.644  0.00  0.00    +0.000 NA
ATOM     26  H   UNL     1      46.112   5.028  12.153  0.00  0.00    +0.000 HD
BRANCH  23  27
ATOM     27  C   UNL     1      50.989   8.259  13.747  0.00  0.00    +0.000 C 
ATOM     28  F   UNL     1      51.657   7.621  14.750  0.00  0.00    +0.000 F 
ATOM     29  F   UNL     1      51.859   8.304  12.695  0.00  0.00    +0.000 F 
ATOM     30  F   UNL     1      50.853   9.552  14.155  0.00  0.00    +0.000 F 
ENDBRANCH  23  27
ENDBRANCH  18  19
ENDBRANCH  17  18
ENDBRANCH   6  17
TORSDOF 7
ENDMDL
MODEL 5
REMARK VINA RESULT:    -6.671      5.310      7.185
REMARK INTER + INTRA:         -10.288
REMARK INTER:                  -9.521
REMARK INTRA:                  -0.767
REMARK UNBOUND:                -0.887
REMARK  Name = 
REMARK  9 active torsions:
REMARK  status: ('A' for Active; 'I' for Inactive)
REMARK    1  A    between atoms: C_1  and  C_2
REMARK    2  A    between atoms: C_2  and  N_3
REMARK    3  A    between atoms: C_2  and  C_26
REMARK    4  A    between atoms: N_3  and  C_4
REMARK    5  A    between atoms: C_6  and  C_7
REMARK    6  A    between atoms: C_12  and  C_13
REMARK    7  A    between atoms: C_13  and  C_14
REMARK    8  A    between atoms: C_14  and  N_15
REMARK    9  A    between atoms: C_19  and  C_20
REMARK                            x       y       z     vdW  Elec       q    Type
REMARK                         _______ _______ _______ _____ _____    ______ ____
ROOT
ATOM      1  C   UNL     1      50.332   4.380  17.950  0.00  0.00    +0.000 A 
ATOM      2  C   UNL     1      51.433   3.510  18.062  0.00  0.00    +0.000 A 
ATOM      3  C   UNL     1      51.408   2.201  17.558  0.00  0.00    +0.000 A 
ATOM      4  C   UNL     1      50.236   1.730  16.968  0.00  0.00    +0.000 A 
ATOM      5  C   UNL     1      49.117   2.563  16.880  0.00  0.00    +0.000 A 
ATOM      6  C   UNL     1      49.145   3.885  17.366  0.00  0.00    +0.000 A 
ENDROOT
BRANCH   3   7
ATOM      7  C   UNL     1      52.660   1.392  17.672  0.00  0.00    +0.000 C 
ATOM      8  N   UNL     1      52.570   0.089  18.078  0.00  0.00    +0.000 N 
ATOM      9  O   UNL     1      53.755   1.863  17.392  0.00  0.00    +0.000 OA
ATOM     10  H   UNL     1      51.716  -0.406  18.275  0.00  0.00    +0.000 HD
ATOM     11  H   UNL     1      53.433  -0.435  18.092  0.00  0.00    +0.000 HD
ENDBRANCH   3   7
BRANCH   1  12
ATOM     12  N   UNL     1      50.392   5.714  18.436  0.00  0.00    +0.000 N 
ATOM     13  H   UNL     1      50.041   6.354  17.723  0.00  0.00    +0.000 HD
BRANCH  12  15
ATOM     14  C   UNL     1      50.055   7.583  20.111  0.00  0.00    +0.000 C 
ATOM     15  C   UNL     1      50.100   6.133  19.724  0.00  0.00    +0.000 C 
ATOM     16  C   UNL     1      49.721   5.125  20.766  0.00  0.00    +0.000 C 
ENDBRANCH  12  15
ENDBRANCH   1  12
BRANCH   6  17
ATOM     17  C   UNL     1      47.899   4.738  17.173  0.00  0.00    +0.000 C 
BRANCH  17  18
ATOM     18  C   UNL     1      47.161   4.372  15.882  0.00  0.00    +0.000 C 
BRANCH  18  19
ATOM     19  N   UNL     1      47.249   5.446  14.875  0.00  0.00    +0.000 N 
ATOM     20  C   UNL     1      46.569   5.104  13.684  0.00  0.00    +0.000 A 
ATOM     21  C   UNL     1      46.556   5.965  12.586  0.00  0.00    +0.000 A 
ATOM     22  N   UNL     1      45.918   5.695  11.413  0.00  0.00    +0.000 NA
ATOM     23  C   UNL     1      45.254   4.506  11.363  0.00  0.00    +0.000 A 
ATOM     24  C   UNL     1      45.254   3.655  12.457  0.00  0.00    +0.000 A 
ATOM     25  N   UNL     1      45.893   3.939  13.613  0.00  0.00    +0.000 NA
ATOM     26  H   UNL     1      48.215   5.671  14.644  0.00  0.00    +0.000 HD
BRANCH  23  27
ATOM     27  C   UNL     1      44.502   4.052  10.132  0.00  0.00    +0.000 C 
ATOM     28  F   UNL     1      44.099   2.749  10.158  0.00  0.00    +0.000 F 
ATOM     29  F   UNL     1      43.369   4.784   9.917  0.00  0.00    +0.000 F 
ATOM     30  F   UNL     1      45.239   4.190   8.993  0.00  0.00    +0.000 F 
ENDBRANCH  23  27
ENDBRANCH  18  19
ENDBRANCH  17  18
ENDBRANCH   6  17
TORSDOF 7
ENDMDL
MODEL 6
REMARK VINA RESULT:    -6.628      1.773      3.423
REMARK INTER + INTRA:         -10.228
REMARK INTER:                  -9.412
REMARK INTRA:                  -0.816
REMARK UNBOUND:                -0.887
REMARK  Name = 
REMARK  9 active torsions:
REMARK  status: ('A' for Active; 'I' for Inactive)
REMARK    1  A    between atoms: C_1  and  C_2
REMARK    2  A    between atoms: C_2  and  N_3
REMARK    3  A    between atoms: C_2  and  C_26
REMARK    4  A    between atoms: N_3  and  C_4
REMARK    5  A    between atoms: C_6  and  C_7
REMARK    6  A    between atoms: C_12  and  C_13
REMARK    7  A    between atoms: C_13  and  C_14
REMARK    8  A    between atoms: C_14  and  N_15
REMARK    9  A    between atoms: C_19  and  C_20
REMARK                            x       y       z     vdW  Elec       q    Type
REMARK                         _______ _______ _______ _____ _____    ______ ____
ROOT
ATOM      1  C   UNL     1      45.730   7.353  12.791  0.00  0.00    +0.000 A 
ATOM      2  C   UNL     1      46.050   8.679  12.441  0.00  0.00    +0.000 A 
ATOM      3  C   UNL     1      45.223   9.458  11.618  0.00  0.00    +0.000 A 
ATOM      4  C   UNL     1      44.068   8.884  11.090  0.00  0.00    +0.000 A 
ATOM      5  C   UNL     1      43.749   7.556  11.391  0.00  0.00    +0.000 A 
ATOM      6  C   UNL     1      44.567   6.777  12.234  0.00  0.00    +0.000 A 
ENDROOT
BRANCH   3   7
ATOM      7  C   UNL     1      45.630  10.875  11.373  0.00  0.00    +0.000 C 
ATOM      8  N   UNL     1      45.155  11.516  10.261  0.00  0.00    +0.000 N 
ATOM      9  O   UNL     1      46.358  11.478  12.152  0.00  0.00    +0.000 OA
ATOM     10  H   UNL     1      44.509  11.130   9.594  0.00  0.00    +0.000 HD
ATOM     11  H   UNL     1      45.414  12.487  10.162  0.00  0.00    +0.000 HD
ENDBRANCH   3   7
BRANCH   1  12
ATOM     12  N   UNL     1      46.564   6.595  13.655  0.00  0.00    +0.000 N 
ATOM     13  H   UNL     1      46.220   5.637  13.709  0.00  0.00    +0.000 HD
BRANCH  12  15
ATOM     14  C   UNL     1      48.835   6.634  12.534  0.00  0.00    +0.000 C 
ATOM     15  C   UNL     1      47.945   6.675  13.743  0.00  0.00    +0.000 C 
ATOM     16  C   UNL     1      48.594   6.904  15.074  0.00  0.00    +0.000 C 
ENDBRANCH  12  15
ENDBRANCH   1  12
BRANCH   6  17
ATOM     17  C   UNL     1      44.109   5.362  12.554  0.00  0.00    +0.000 C 
BRANCH  17  18
ATOM     18  C   UNL     1      43.218   4.794  11.445  0.00  0.00    +0.000 C 
BRANCH  18  19
ATOM     19  N   UNL     1      43.540   3.385  11.149  0.00  0.00    +0.000 N 
ATOM     20  C   UNL     1      44.366   3.266  10.007  0.00  0.00    +0.000 A 
ATOM     21  C   UNL     1      44.763   2.017   9.530  0.00  0.00    +0.000 A 
ATOM     22  N   UNL     1      45.559   1.835   8.439  0.00  0.00    +0.000 NA
ATOM     23  C   UNL     1      45.980   2.974   7.820  0.00  0.00    +0.000 A 
ATOM     24  C   UNL     1      45.598   4.217   8.301  0.00  0.00    +0.000 A 
ATOM     25  N   UNL     1      44.807   4.378   9.384  0.00  0.00    +0.000 NA
ATOM     26  H   UNL     1      42.702   2.827  11.001  0.00  0.00    +0.000 HD
BRANCH  23  27
ATOM     27  C   UNL     1      46.862   2.948   6.592  0.00  0.00    +0.000 C 
ATOM     28  F   UNL     1      48.154   2.579   6.826  0.00  0.00    +0.000 F 
ATOM     29  F   UNL     1      46.399   2.084   5.640  0.00  0.00    +0.000 F 
ATOM     30  F   UNL     1      46.928   4.160   5.973  0.00  0.00    +0.000 F 
ENDBRANCH  23  27
ENDBRANCH  18  19
ENDBRANCH  17  18
ENDBRANCH   6  17
TORSDOF 7
ENDMDL
MODEL 7
REMARK VINA RESULT:    -6.516      1.564      2.886
REMARK INTER + INTRA:         -10.071
REMARK INTER:                  -9.279
REMARK INTRA:                  -0.791
REMARK UNBOUND:                -0.887
REMARK  Name = 
REMARK  9 active torsions:
REMARK  status: ('A' for Active; 'I' for Inactive)
REMARK    1  A    between atoms: C_1  and  C_2
REMARK    2  A    between atoms: C_2  and  N_3
REMARK    3  A    between atoms: C_2  and  C_26
REMARK    4  A    between atoms: N_3  and  C_4
REMARK    5  A    between atoms: C_6  and  C_7
REMARK    6  A    between atoms: C_12  and  C_13
REMARK    7  A    between atoms: C_13  and  C_14
REMARK    8  A    between atoms: C_14  and  N_15
REMARK    9  A    between atoms: C_19  and  C_20
REMARK                            x       y       z     vdW  Elec       q    Type
REMARK                         _______ _______ _______ _____ _____    ______ ____
ROOT
ATOM      1  C   UNL     1      46.334   6.376  13.283  0.00  0.00    +0.000 A 
ATOM      2  C   UNL     1      47.621   6.394  13.855  0.00  0.00    +0.000 A 
ATOM      3  C   UNL     1      48.624   7.270  13.416  0.00  0.00    +0.000 A 
ATOM      4  C   UNL     1      48.354   8.120  12.344  0.00  0.00    +0.000 A 
ATOM      5  C   UNL     1      47.096   8.093  11.734  0.00  0.00    +0.000 A 
ATOM      6  C   UNL     1      46.078   7.230  12.186  0.00  0.00    +0.000 A 
ENDROOT
BRANCH   3   7
ATOM      7  C   UNL     1      49.929   7.247  14.145  0.00  0.00    +0.000 C 
ATOM      8  N   UNL     1      50.999   7.907  13.606  0.00  0.00    +0.000 N 
ATOM      9  O   UNL     1      50.053   6.671  15.219  0.00  0.00    +0.000 OA
ATOM     10  H   UNL     1      50.985   8.456  12.763  0.00  0.00    +0.000 HD
ATOM     11  H   UNL     1      51.846   7.909  14.157  0.00  0.00    +0.000 HD
ENDBRANCH   3   7
BRANCH   1  12
ATOM     12  N   UNL     1      45.322   5.506  13.767  0.00  0.00    +0.000 N 
ATOM     13  H   UNL     1      44.496   6.049  14.022  0.00  0.00    +0.000 HD
BRANCH  12  15
ATOM     14  C   UNL     1      46.055   3.253  12.872  0.00  0.00    +0.000 C 
ATOM     15  C   UNL     1      45.006   4.253  13.265  0.00  0.00    +0.000 C 
ATOM     16  C   UNL     1      43.573   3.822  13.189  0.00  0.00    +0.000 C 
ENDBRANCH  12  15
ENDBRANCH   1  12
BRANCH   6  17
ATOM     17  C   UNL     1      44.722   7.313  11.500  0.00  0.00    +0.000 C 
BRANCH  17  18
ATOM     18  C   UNL     1      44.722   6.568  10.161  0.00  0.00    +0.000 C 
BRANCH  18  19
ATOM     19  N   UNL     1      44.402   5.138  10.328  0.00  0.00    +0.000 N 
ATOM     20  C   UNL     1      45.077   4.337   9.379  0.00  0.00    +0.000 A 
ATOM     21  C   UNL     1      44.890   2.955   9.336  0.00  0.00    +0.000 A 
ATOM     22  N   UNL     1      45.512   2.129   8.449  0.00  0.00    +0.000 NA
ATOM     23  C   UNL     1      46.372   2.734   7.581  0.00  0.00    +0.000 A 
ATOM     24  C   UNL     1      46.570   4.105   7.631  0.00  0.00    +0.000 A 
ATOM     25  N   UNL     1      45.943   4.910   8.518  0.00  0.00    +0.000 NA
ATOM     26  H   UNL     1      43.403   4.961  10.249  0.00  0.00    +0.000 HD
BRANCH  23  27
ATOM     27  C   UNL     1      47.136   1.961   6.530  0.00  0.00    +0.000 C 
ATOM     28  F   UNL     1      46.825   0.635   6.460  0.00  0.00    +0.000 F 
ATOM     29  F   UNL     1      46.931   2.455   5.272  0.00  0.00    +0.000 F 
ATOM     30  F   UNL     1      48.484   2.017   6.722  0.00  0.00    +0.000 F 
ENDBRANCH  23  27
ENDBRANCH  18  19
ENDBRANCH  17  18
ENDBRANCH   6  17
TORSDOF 7
ENDMDL
MODEL 8
REMARK VINA RESULT:    -6.403      4.992      7.250
REMARK INTER + INTRA:          -9.911
REMARK INTER:                  -9.264
REMARK INTRA:                  -0.646
REMARK UNBOUND:                -0.887
REMARK  Name = 
REMARK  9 active torsions:
REMARK  status: ('A' for Active; 'I' for Inactive)
REMARK    1  A    between atoms: C_1  and  C_2
REMARK    2  A    between atoms: C_2  and  N_3
REMARK    3  A    between atoms: C_2  and  C_26
REMARK    4  A    between atoms: N_3  and  C_4
REMARK    5  A    between atoms: C_6  and  C_7
REMARK    6  A    between atoms: C_12  and  C_13
REMARK    7  A    between atoms: C_13  and  C_14
REMARK    8  A    between atoms: C_14  and  N_15
REMARK    9  A    between atoms: C_19  and  C_20
REMARK                            x       y       z     vdW  Elec       q    Type
REMARK                         _______ _______ _______ _____ _____    ______ ____
ROOT
ATOM      1  C   UNL     1      45.095   5.263  10.296  0.00  0.00    +0.000 A 
ATOM      2  C   UNL     1      45.656   4.858   9.070  0.00  0.00    +0.000 A 
ATOM      3  C   UNL     1      45.733   3.510   8.690  0.00  0.00    +0.000 A 
ATOM      4  C   UNL     1      45.282   2.534   9.577  0.00  0.00    +0.000 A 
ATOM      5  C   UNL     1      44.757   2.910  10.818  0.00  0.00    +0.000 A 
ATOM      6  C   UNL     1      44.658   4.264  11.194  0.00  0.00    +0.000 A 
ENDROOT
BRANCH   3   7
ATOM      7  C   UNL     1      46.285   3.205   7.335  0.00  0.00    +0.000 C 
ATOM      8  N   UNL     1      46.665   1.922   7.050  0.00  0.00    +0.000 N 
ATOM      9  O   UNL     1      46.384   4.070   6.473  0.00  0.00    +0.000 OA
ATOM     10  H   UNL     1      46.571   1.132   7.666  0.00  0.00    +0.000 HD
ATOM     11  H   UNL     1      46.984   1.750   6.107  0.00  0.00    +0.000 HD
ENDBRANCH   3   7
BRANCH   1  12
ATOM     12  N   UNL     1      44.994   6.636  10.645  0.00  0.00    +0.000 N 
ATOM     13  H   UNL     1      44.021   6.869  10.843  0.00  0.00    +0.000 HD
BRANCH  12  15
ATOM     14  C   UNL     1      45.447   8.443  12.361  0.00  0.00    +0.000 C 
ATOM     15  C   UNL     1      45.887   7.353  11.426  0.00  0.00    +0.000 C 
ATOM     16  C   UNL     1      47.339   6.985  11.426  0.00  0.00    +0.000 C 
ENDBRANCH  12  15
ENDBRANCH   1  12
BRANCH   6  17
ATOM     17  C   UNL     1      44.018   4.581  12.538  0.00  0.00    +0.000 C 
BRANCH  17  18
ATOM     18  C   UNL     1      44.962   4.261  13.701  0.00  0.00    +0.000 C 
BRANCH  18  19
ATOM     19  N   UNL     1      46.063   5.238  13.799  0.00  0.00    +0.000 N 
ATOM     20  C   UNL     1      46.944   4.928  14.861  0.00  0.00    +0.000 A 
ATOM     21  C   UNL     1      48.037   5.744  15.154  0.00  0.00    +0.000 A 
ATOM     22  N   UNL     1      48.923   5.498  16.160  0.00  0.00    +0.000 NA
ATOM     23  C   UNL     1      48.693   4.368  16.885  0.00  0.00    +0.000 A 
ATOM     24  C   UNL     1      47.616   3.549  16.587  0.00  0.00    +0.000 A 
ATOM     25  N   UNL     1      46.746   3.808  15.586  0.00  0.00    +0.000 NA
ATOM     26  H   UNL     1      45.718   6.187  13.932  0.00  0.00    +0.000 HD
BRANCH  23  27
ATOM     27  C   UNL     1      49.578   3.956  18.040  0.00  0.00    +0.000 C 
ATOM     28  F   UNL     1      48.908   3.498  19.137  0.00  0.00    +0.000 F 
ATOM     29  F   UNL     1      50.448   2.959  17.698  0.00  0.00    +0.000 F 
ATOM     30  F   UNL     1      50.362   4.978  18.485  0.00  0.00    +0.000 F 
ENDBRANCH  23  27
ENDBRANCH  18  19
ENDBRANCH  17  18
ENDBRANCH   6  17
TORSDOF 7
ENDMDL
MODEL 9
REMARK VINA RESULT:    -6.342      5.797      8.095
REMARK INTER + INTRA:          -9.824
REMARK INTER:                  -8.993
REMARK INTRA:                  -0.831
REMARK UNBOUND:                -0.887
REMARK  Name = 
REMARK  9 active torsions:
REMARK  status: ('A' for Active; 'I' for Inactive)
REMARK    1  A    between atoms: C_1  and  C_2
REMARK    2  A    between atoms: C_2  and  N_3
REMARK    3  A    between atoms: C_2  and  C_26
REMARK    4  A    between atoms: N_3  and  C_4
REMARK    5  A    between atoms: C_6  and  C_7
REMARK    6  A    between atoms: C_12  and  C_13
REMARK    7  A    between atoms: C_13  and  C_14
REMARK    8  A    between atoms: C_14  and  N_15
REMARK    9  A    between atoms: C_19  and  C_20
REMARK                            x       y       z     vdW  Elec       q    Type
REMARK                         _______ _______ _______ _____ _____    ______ ____
ROOT
ATOM      1  C   UNL     1      45.613   5.830  11.276  0.00  0.00    +0.000 A 
ATOM      2  C   UNL     1      45.584   5.472   9.915  0.00  0.00    +0.000 A 
ATOM      3  C   UNL     1      45.350   4.156   9.491  0.00  0.00    +0.000 A 
ATOM      4  C   UNL     1      45.186   3.159  10.451  0.00  0.00    +0.000 A 
ATOM      5  C   UNL     1      45.249   3.483  11.810  0.00  0.00    +0.000 A 
ATOM      6  C   UNL     1      45.463   4.807  12.240  0.00  0.00    +0.000 A 
ENDROOT
BRANCH   3   7
ATOM      7  C   UNL     1      45.272   3.908   8.019  0.00  0.00    +0.000 C 
ATOM      8  N   UNL     1      44.177   3.262   7.514  0.00  0.00    +0.000 N 
ATOM      9  O   UNL     1      46.154   4.288   7.257  0.00  0.00    +0.000 OA
ATOM     10  H   UNL     1      43.377   2.963   8.045  0.00  0.00    +0.000 HD
ATOM     11  H   UNL     1      44.142   3.161   6.509  0.00  0.00    +0.000 HD
ENDBRANCH   3   7
BRANCH   1  12
ATOM     12  N   UNL     1      45.816   7.175  11.683  0.00  0.00    +0.000 N 
ATOM     13  H   UNL     1      44.981   7.520  12.156  0.00  0.00    +0.000 HD
BRANCH  12  15
ATOM     14  C   UNL     1      48.339   7.391  11.634  0.00  0.00    +0.000 C 
ATOM     15  C   UNL     1      46.986   7.709  12.201  0.00  0.00    +0.000 C 
ATOM     16  C   UNL     1      46.917   8.715  13.310  0.00  0.00    +0.000 C 
ENDBRANCH  12  15
ENDBRANCH   1  12
BRANCH   6  17
ATOM     17  C   UNL     1      45.457   5.075  13.738  0.00  0.00    +0.000 C 
BRANCH  17  18
ATOM     18  C   UNL     1      46.836   4.835  14.359  0.00  0.00    +0.000 C 
BRANCH  18  19
ATOM     19  N   UNL     1      46.793   3.800  15.409  0.00  0.00    +0.000 N 
ATOM     20  C   UNL     1      47.755   4.038  16.418  0.00  0.00    +0.000 A 
ATOM     21  C   UNL     1      47.908   3.160  17.492  0.00  0.00    +0.000 A 
ATOM     22  N   UNL     1      48.813   3.335  18.495  0.00  0.00    +0.000 NA
ATOM     23  C   UNL     1      49.580   4.458  18.409  0.00  0.00    +0.000 A 
ATOM     24  C   UNL     1      49.420   5.338  17.351  0.00  0.00    +0.000 A 
ATOM     25  N   UNL     1      48.518   5.149  16.363  0.00  0.00    +0.000 NA
ATOM     26  H   UNL     1      46.946   2.868  15.030  0.00  0.00    +0.000 HD
BRANCH  23  27
ATOM     27  C   UNL     1      50.636   4.795  19.438  0.00  0.00    +0.000 C 
ATOM     28  F   UNL     1      51.744   4.000  19.400  0.00  0.00    +0.000 F 
ATOM     29  F   UNL     1      51.097   6.075  19.308  0.00  0.00    +0.000 F 
ATOM     30  F   UNL     1      50.164   4.712  20.713  0.00  0.00    +0.000 F 
ENDBRANCH  23  27
ENDBRANCH  18  19
ENDBRANCH  17  18
ENDBRANCH   6  17
TORSDOF 7
ENDMDL
