MODEL 1
REMARK VINA RESULT:    -8.668      0.000      0.000
REMARK INTER + INTRA:         -13.866
REMARK INTER:                 -12.975
REMARK INTRA:                  -0.891
REMARK UNBOUND:                -0.891
REMARK  Name = 
REMARK  9 active torsions:
REMARK  status: ('A' for Active; 'I' for Inactive)
REMARK    1  A    between atoms: N_1  and  C_2
REMARK    2  A    between atoms: C_2  and  C_3
REMARK    3  A    between atoms: C_3  and  C_4
REMARK    4  A    between atoms: C_4  and  N_5
REMARK    5  A    between atoms: C_4  and  C_18
REMARK    6  A    between atoms: C_6  and  C_8
REMARK    7  A    between atoms: C_21  and  O_22
REMARK    8  A    between atoms: O_22  and  C_23
REMARK    9  A    between atoms: C_23  and  C_24
REMARK                            x       y       z     vdW  Elec       q    Type
REMARK                         _______ _______ _______ _____ _____    ______ ____
ROOT
ATOM      1  C   UNL     1      46.446   7.832  12.689  0.00  0.00    +0.000 C 
ENDROOT
BRANCH   1   2
ATOM      2  C   UNL     1      45.879   6.647  11.901  0.00  0.00    +0.000 A 
ATOM      3  C   UNL     1      46.350   6.399  10.600  0.00  0.00    +0.000 A 
ATOM      4  C   UNL     1      45.765   5.423   9.783  0.00  0.00    +0.000 A 
ATOM      5  C   UNL     1      44.721   4.640  10.270  0.00  0.00    +0.000 A 
ATOM      6  C   UNL     1      44.258   4.858  11.569  0.00  0.00    +0.000 A 
ATOM      7  C   UNL     1      44.824   5.854  12.377  0.00  0.00    +0.000 A 
BRANCH   5   8
ATOM      8  O   UNL     1      44.046   3.685   9.562  0.00  0.00    +0.000 OA
BRANCH   8   9
ATOM      9  C   UNL     1      44.629   2.376   9.533  0.00  0.00    +0.000 C 
BRANCH   9  10
ATOM     10  C   UNL     1      45.567   2.240   8.350  0.00  0.00    +0.000 A 
ATOM     11  C   UNL     1      45.667   3.252   7.395  0.00  0.00    +0.000 A 
ATOM     12  C   UNL     1      46.560   3.101   6.337  0.00  0.00    +0.000 A 
ATOM     13  C   UNL     1      47.343   1.958   6.265  0.00  0.00    +0.000 A 
ATOM     14  C   UNL     1      47.205   1.010   7.265  0.00  0.00    +0.000 A 
ATOM     15  N   UNL     1      46.345   1.126   8.301  0.00  0.00    +0.000 NA
ENDBRANCH   9  10
ENDBRANCH   8   9
ENDBRANCH   5   8
ENDBRANCH   1   2
BRANCH   1  16
ATOM     16  N   UNL     1      47.020   7.392  13.954  0.00  0.00    +0.000 N 
ATOM     17  C   UNL     1      48.209   6.709  14.056  0.00  0.00    +0.000 C 
ATOM     18  O   UNL     1      48.945   6.492  13.099  0.00  0.00    +0.000 OA
ATOM     19  H   UNL     1      46.352   7.259  14.704  0.00  0.00    +0.000 HD
BRANCH  17  20
ATOM     20  C   UNL     1      48.581   6.280  15.410  0.00  0.00    +0.000 A 
ATOM     21  C   UNL     1      49.528   6.986  16.140  0.00  0.00    +0.000 A 
ATOM     22  S   UNL     1      49.830   6.317  17.684  0.00  0.00    +0.000 S 
ATOM     23  C   UNL     1      48.739   5.040  17.406  0.00  0.00    +0.000 A 
ATOM     24  N   UNL     1      48.553   4.058  18.330  0.00  0.00    +0.000 NA
ATOM     25  C   UNL     1      47.719   3.137  17.966  0.00  0.00    +0.000 A 
ATOM     26  N   UNL     1      47.046   3.118  16.774  0.00  0.00    +0.000 N 
ATOM     27  C   UNL     1      47.165   4.111  15.835  0.00  0.00    +0.000 A 
ATOM     28  O   UNL     1      46.481   4.110  14.818  0.00  0.00    +0.000 OA
ATOM     29  C   UNL     1      48.120   5.146  16.176  0.00  0.00    +0.000 A 
ATOM     30  H   UNL     1      46.383   2.385  16.563  0.00  0.00    +0.000 HD
ENDBRANCH  17  20
ENDBRANCH   1  16
BRANCH   1  31
ATOM     31  C   UNL     1      45.372   8.922  12.905  0.00  0.00    +0.000 C 
BRANCH  31  32
ATOM     32  C   UNL     1      45.216   9.858  11.705  0.00  0.00    +0.000 C 
BRANCH  32  33
ATOM     33  N   UNL     1      45.086  11.244  12.136  0.00  0.00    +0.000 NA
ATOM     34  H   UNL     1      44.241  11.641  11.728  0.00  0.00    +0.000 HD
ATOM     35  H   UNL     1      45.867  11.791  11.776  0.00  0.00    +0.000 HD
ENDBRANCH  32  33
ENDBRANCH  31  32
ENDBRANCH   1  31
TORSDOF 9
ENDMDL
MODEL 2
REMARK VINA RESULT:    -8.251      2.177      2.798
REMARK INTER + INTRA:         -13.242
REMARK INTER:                 -11.822
REMARK INTRA:                  -1.420
REMARK UNBOUND:                -0.891
REMARK  Name = 
REMARK  9 active torsions:
REMARK  status: ('A' for Active; 'I' for Inactive)
REMARK    1  A    between atoms: N_1  and  C_2
REMARK    2  A    between atoms: C_2  and  C_3
REMARK    3  A    between atoms: C_3  and  C_4
REMARK    4  A    between atoms: C_4  and  N_5
REMARK    5  A    between atoms: C_4  and  C_18
REMARK    6  A    between atoms: C_6  and  C_8
REMARK    7  A    between atoms: C_21  and  O_22
REMARK    8  A    between atoms: O_22  and  C_23
REMARK    9  A    between atoms: C_23  and  C_24
REMARK                            x       y       z     vdW  Elec       q    Type
REMARK                         _______ _______ _______ _____ _____    ______ ____
ROOT
ATOM      1  C   UNL     1      48.318   6.823  13.403  0.00  0.00    +0.000 C 
ENDROOT
BRANCH   1   2
ATOM      2  C   UNL     1      47.135   6.080  12.772  0.00  0.00    +0.000 A 
ATOM      3  C   UNL     1      46.725   4.852  13.320  0.00  0.00    +0.000 A 
ATOM      4  C   UNL     1      45.748   4.064  12.698  0.00  0.00    +0.000 A 
ATOM      5  C   UNL     1      45.126   4.512  11.535  0.00  0.00    +0.000 A 
ATOM      6  C   UNL     1      45.506   5.741  10.993  0.00  0.00    +0.000 A 
ATOM      7  C   UNL     1      46.503   6.518  11.598  0.00  0.00    +0.000 A 
BRANCH   5   8
ATOM      8  O   UNL     1      44.190   3.821  10.817  0.00  0.00    +0.000 OA
BRANCH   8   9
ATOM      9  C   UNL     1      44.089   4.139   9.423  0.00  0.00    +0.000 C 
BRANCH   9  10
ATOM     10  C   UNL     1      45.157   3.406   8.634  0.00  0.00    +0.000 A 
ATOM     11  C   UNL     1      45.372   2.040   8.819  0.00  0.00    +0.000 A 
ATOM     12  C   UNL     1      46.344   1.397   8.056  0.00  0.00    +0.000 A 
ATOM     13  C   UNL     1      47.063   2.123   7.117  0.00  0.00    +0.000 A 
ATOM     14  C   UNL     1      46.773   3.469   6.974  0.00  0.00    +0.000 A 
ATOM     15  N   UNL     1      45.839   4.122   7.702  0.00  0.00    +0.000 NA
ENDBRANCH   9  10
ENDBRANCH   8   9
ENDBRANCH   5   8
ENDBRANCH   1   2
BRANCH   1  16
ATOM     16  N   UNL     1      48.148   6.949  14.845  0.00  0.00    +0.000 N 
ATOM     17  C   UNL     1      49.172   6.806  15.750  0.00  0.00    +0.000 C 
ATOM     18  O   UNL     1      50.345   6.653  15.421  0.00  0.00    +0.000 OA
ATOM     19  H   UNL     1      47.211   6.763  15.183  0.00  0.00    +0.000 HD
BRANCH  17  20
ATOM     20  C   UNL     1      48.787   6.889  17.164  0.00  0.00    +0.000 A 
ATOM     21  C   UNL     1      48.371   8.094  17.714  0.00  0.00    +0.000 A 
ATOM     22  S   UNL     1      47.981   7.983  19.374  0.00  0.00    +0.000 S 
ATOM     23  C   UNL     1      48.400   6.333  19.420  0.00  0.00    +0.000 A 
ATOM     24  N   UNL     1      48.344   5.624  20.580  0.00  0.00    +0.000 NA
ATOM     25  C   UNL     1      48.724   4.391  20.468  0.00  0.00    +0.000 A 
ATOM     26  N   UNL     1      49.137   3.803  19.302  0.00  0.00    +0.000 N 
ATOM     27  C   UNL     1      49.162   4.465  18.101  0.00  0.00    +0.000 A 
ATOM     28  O   UNL     1      49.451   3.886  17.061  0.00  0.00    +0.000 OA
ATOM     29  C   UNL     1      48.786   5.863  18.180  0.00  0.00    +0.000 A 
ATOM     30  H   UNL     1      49.391   2.825  19.274  0.00  0.00    +0.000 HD
ENDBRANCH  17  20
ENDBRANCH   1  16
BRANCH   1  31
ATOM     31  C   UNL     1      48.530   8.199  12.735  0.00  0.00    +0.000 C 
BRANCH  31  32
ATOM     32  C   UNL     1      49.809   8.272  11.899  0.00  0.00    +0.000 C 
BRANCH  32  33
ATOM     33  N   UNL     1      50.954   7.773  12.649  0.00  0.00    +0.000 NA
ATOM     34  H   UNL     1      51.694   8.473  12.632  0.00  0.00    +0.000 HD
ATOM     35  H   UNL     1      51.329   6.943  12.192  0.00  0.00    +0.000 HD
ENDBRANCH  32  33
ENDBRANCH  31  32
ENDBRANCH   1  31
TORSDOF 9
ENDMDL
MODEL 3
REMARK VINA RESULT:    -8.104      2.279      2.856
REMARK INTER + INTRA:         -13.022
REMARK INTER:                 -11.180
REMARK INTRA:                  -1.842
REMARK UNBOUND:                -0.891
REMARK  Name = 
REMARK  9 active torsions:
REMARK  status: ('A' for Active; 'I' for Inactive)
REMARK    1  A    between atoms: N_1  and  C_2
REMARK    2  A    between atoms: C_2  and  C_3
REMARK    3  A    between atoms: C_3  and  C_4
REMARK    4  A    between atoms: C_4  and  N_5
REMARK    5  A    between atoms: C_4  and  C_18
REMARK    6  A    between atoms: C_6  and  C_8
REMARK    7  A    between atoms: C_21  and  O_22
REMARK    8  A    between atoms: O_22  and  C_23
REMARK    9  A    between atoms: C_23  and  C_24
REMARK                            x       y       z     vdW  Elec       q    Type
REMARK                         _______ _______ _______ _____ _____    ______ ____
ROOT
ATOM      1  C   UNL     1      47.783   7.358  13.629  0.00  0.00    +0.000 C 
ENDROOT
BRANCH   1   2
ATOM      2  C   UNL     1      46.963   6.367  12.797  0.00  0.00    +0.000 A 
ATOM      3  C   UNL     1      46.557   6.729  11.501  0.00  0.00    +0.000 A 
ATOM      4  C   UNL     1      45.686   5.924  10.755  0.00  0.00    +0.000 A 
ATOM      5  C   UNL     1      45.239   4.712  11.275  0.00  0.00    +0.000 A 
ATOM      6  C   UNL     1      45.653   4.327  12.552  0.00  0.00    +0.000 A 
ATOM      7  C   UNL     1      46.501   5.145  13.310  0.00  0.00    +0.000 A 
BRANCH   5   8
ATOM      8  O   UNL     1      44.362   3.860  10.664  0.00  0.00    +0.000 OA
BRANCH   8   9
ATOM      9  C   UNL     1      44.189   4.024   9.251  0.00  0.00    +0.000 C 
BRANCH   9  10
ATOM     10  C   UNL     1      45.276   3.285   8.495  0.00  0.00    +0.000 A 
ATOM     11  C   UNL     1      45.496   1.923   8.706  0.00  0.00    +0.000 A 
ATOM     12  C   UNL     1      46.486   1.274   7.973  0.00  0.00    +0.000 A 
ATOM     13  C   UNL     1      47.218   1.988   7.035  0.00  0.00    +0.000 A 
ATOM     14  C   UNL     1      46.923   3.330   6.864  0.00  0.00    +0.000 A 
ATOM     15  N   UNL     1      45.972   3.989   7.563  0.00  0.00    +0.000 NA
ENDBRANCH   9  10
ENDBRANCH   8   9
ENDBRANCH   5   8
ENDBRANCH   1   2
BRANCH   1  16
ATOM     16  N   UNL     1      47.868   6.929  15.020  0.00  0.00    +0.000 N 
ATOM     17  C   UNL     1      49.049   6.625  15.654  0.00  0.00    +0.000 C 
ATOM     18  O   UNL     1      50.151   6.780  15.136  0.00  0.00    +0.000 OA
ATOM     19  H   UNL     1      47.029   6.495  15.385  0.00  0.00    +0.000 HD
BRANCH  17  20
ATOM     20  C   UNL     1      48.922   6.134  17.032  0.00  0.00    +0.000 A 
ATOM     21  C   UNL     1      49.263   4.826  17.350  0.00  0.00    +0.000 A 
ATOM     22  S   UNL     1      49.030   4.447  19.000  0.00  0.00    +0.000 S 
ATOM     23  C   UNL     1      48.423   6.004  19.330  0.00  0.00    +0.000 A 
ATOM     24  N   UNL     1      47.981   6.340  20.572  0.00  0.00    +0.000 NA
ATOM     25  C   UNL     1      47.517   7.545  20.663  0.00  0.00    +0.000 A 
ATOM     26  N   UNL     1      47.470   8.445  19.633  0.00  0.00    +0.000 N 
ATOM     27  C   UNL     1      47.949   8.167  18.377  0.00  0.00    +0.000 A 
ATOM     28  O   UNL     1      47.973   9.023  17.502  0.00  0.00    +0.000 OA
ATOM     29  C   UNL     1      48.441   6.814  18.211  0.00  0.00    +0.000 A 
ATOM     30  H   UNL     1      47.124   9.384  19.777  0.00  0.00    +0.000 HD
ENDBRANCH  17  20
ENDBRANCH   1  16
BRANCH   1  31
ATOM     31  C   UNL     1      47.212   8.788  13.513  0.00  0.00    +0.000 C 
BRANCH  31  32
ATOM     32  C   UNL     1      48.287   9.874  13.588  0.00  0.00    +0.000 C 
BRANCH  32  33
ATOM     33  N   UNL     1      48.599  10.206  14.972  0.00  0.00    +0.000 NA
ATOM     34  H   UNL     1      49.276   9.534  15.331  0.00  0.00    +0.000 HD
ATOM     35  H   UNL     1      47.762  10.108  15.546  0.00  0.00    +0.000 HD
ENDBRANCH  32  33
ENDBRANCH  31  32
ENDBRANCH   1  31
TORSDOF 9
ENDMDL
MODEL 4
REMARK VINA RESULT:    -7.937      2.508      4.785
REMARK INTER + INTRA:         -12.772
REMARK INTER:                 -11.352
REMARK INTRA:                  -1.421
REMARK UNBOUND:                -0.891
REMARK  Name = 
REMARK  9 active torsions:
REMARK  status: ('A' for Active; 'I' for Inactive)
REMARK    1  A    between atoms: N_1  and  C_2
REMARK    2  A    between atoms: C_2  and  C_3
REMARK    3  A    between atoms: C_3  and  C_4
REMARK    4  A    between atoms: C_4  and  N_5
REMARK    5  A    between atoms: C_4  and  C_18
REMARK    6  A    between atoms: C_6  and  C_8
REMARK    7  A    between atoms: C_21  and  O_22
REMARK    8  A    between atoms: O_22  and  C_23
REMARK    9  A    between atoms: C_23  and  C_24
REMARK                            x       y       z     vdW  Elec       q    Type
REMARK                         _______ _______ _______ _____ _____    ______ ____
ROOT
ATOM      1  C   UNL     1      47.129   5.444  14.563  0.00  0.00    +0.000 C 
ENDROOT
BRANCH   1   2
ATOM      2  C   UNL     1      46.276   5.041  13.356  0.00  0.00    +0.000 A 
ATOM      3  C   UNL     1      45.851   3.706  13.230  0.00  0.00    +0.000 A 
ATOM      4  C   UNL     1      45.196   3.253  12.078  0.00  0.00    +0.000 A 
ATOM      5  C   UNL     1      44.909   4.139  11.044  0.00  0.00    +0.000 A 
ATOM      6  C   UNL     1      45.303   5.473  11.165  0.00  0.00    +0.000 A 
ATOM      7  C   UNL     1      45.984   5.922  12.304  0.00  0.00    +0.000 A 
BRANCH   5   8
ATOM      8  O   UNL     1      44.311   3.812   9.859  0.00  0.00    +0.000 OA
BRANCH   8   9
ATOM      9  C   UNL     1      44.448   2.452   9.427  0.00  0.00    +0.000 C 
BRANCH   9  10
ATOM     10  C   UNL     1      45.515   2.341   8.356  0.00  0.00    +0.000 A 
ATOM     11  C   UNL     1      45.812   3.421   7.525  0.00  0.00    +0.000 A 
ATOM     12  C   UNL     1      46.817   3.289   6.571  0.00  0.00    +0.000 A 
ATOM     13  C   UNL     1      47.516   2.093   6.480  0.00  0.00    +0.000 A 
ATOM     14  C   UNL     1      47.181   1.075   7.357  0.00  0.00    +0.000 A 
ATOM     15  N   UNL     1      46.208   1.172   8.290  0.00  0.00    +0.000 NA
ENDBRANCH   9  10
ENDBRANCH   8   9
ENDBRANCH   5   8
ENDBRANCH   1   2
BRANCH   1  16
ATOM     16  N   UNL     1      48.314   6.181  14.143  0.00  0.00    +0.000 N 
ATOM     17  C   UNL     1      48.895   7.181  14.886  0.00  0.00    +0.000 C 
ATOM     18  O   UNL     1      48.524   7.481  16.017  0.00  0.00    +0.000 OA
ATOM     19  H   UNL     1      48.469   6.208  13.142  0.00  0.00    +0.000 HD
BRANCH  17  20
ATOM     20  C   UNL     1      50.034   7.860  14.257  0.00  0.00    +0.000 A 
ATOM     21  C   UNL     1      51.305   7.770  14.811  0.00  0.00    +0.000 A 
ATOM     22  S   UNL     1      52.488   8.641  13.938  0.00  0.00    +0.000 S 
ATOM     23  C   UNL     1      51.332   9.201  12.820  0.00  0.00    +0.000 A 
ATOM     24  N   UNL     1      51.677  10.052  11.816  0.00  0.00    +0.000 NA
ATOM     25  C   UNL     1      50.687  10.419  11.066  0.00  0.00    +0.000 A 
ATOM     26  N   UNL     1      49.394   9.999  11.219  0.00  0.00    +0.000 N 
ATOM     27  C   UNL     1      49.009   9.105  12.185  0.00  0.00    +0.000 A 
ATOM     28  O   UNL     1      47.860   8.682  12.240  0.00  0.00    +0.000 OA
ATOM     29  C   UNL     1      50.073   8.696  13.080  0.00  0.00    +0.000 A 
ATOM     30  H   UNL     1      48.670  10.298  10.578  0.00  0.00    +0.000 HD
ENDBRANCH  17  20
ENDBRANCH   1  16
BRANCH   1  31
ATOM     31  C   UNL     1      47.502   4.212  15.417  0.00  0.00    +0.000 C 
BRANCH  31  32
ATOM     32  C   UNL     1      47.190   4.394  16.904  0.00  0.00    +0.000 C 
BRANCH  32  33
ATOM     33  N   UNL     1      46.672   3.161  17.484  0.00  0.00    +0.000 NA
ATOM     34  H   UNL     1      47.322   2.402  17.285  0.00  0.00    +0.000 HD
ATOM     35  H   UNL     1      45.791   2.914  17.036  0.00  0.00    +0.000 HD
ENDBRANCH  32  33
ENDBRANCH  31  32
ENDBRANCH   1  31
TORSDOF 9
ENDMDL
MODEL 5
REMARK VINA RESULT:    -7.809      2.823      4.531
REMARK INTER + INTRA:         -12.580
REMARK INTER:                 -10.841
REMARK INTRA:                  -1.740
REMARK UNBOUND:                -0.891
REMARK  Name = 
REMARK  9 active torsions:
REMARK  status: ('A' for Active; 'I' for Inactive)
REMARK    1  A    between atoms: N_1  and  C_2
REMARK    2  A    between atoms: C_2  and  C_3
REMARK    3  A    between atoms: C_3  and  C_4
REMARK    4  A    between atoms: C_4  and  N_5
REMARK    5  A    between atoms: C_4  and  C_18
REMARK    6  A    between atoms: C_6  and  C_8
REMARK    7  A    between atoms: C_21  and  O_22
REMARK    8  A    between atoms: O_22  and  C_23
REMARK    9  A    between atoms: C_23  and  C_24
REMARK                            x       y       z     vdW  Elec       q    Type
REMARK                         _______ _______ _______ _____ _____    ______ ____
ROOT
ATOM      1  C   UNL     1      47.048   5.709  14.211  0.00  0.00    +0.000 C 
ENDROOT
BRANCH   1   2
ATOM      2  C   UNL     1      46.185   5.208  13.048  0.00  0.00    +0.000 A 
ATOM      3  C   UNL     1      45.690   3.892  13.078  0.00  0.00    +0.000 A 
ATOM      4  C   UNL     1      45.021   3.337  11.979  0.00  0.00    +0.000 A 
ATOM      5  C   UNL     1      44.792   4.106  10.841  0.00  0.00    +0.000 A 
ATOM      6  C   UNL     1      45.257   5.421  10.806  0.00  0.00    +0.000 A 
ATOM      7  C   UNL     1      45.951   5.969  11.893  0.00  0.00    +0.000 A 
BRANCH   5   8
ATOM      8  O   UNL     1      44.188   3.669   9.695  0.00  0.00    +0.000 OA
BRANCH   8   9
ATOM      9  C   UNL     1      44.444   2.311   9.313  0.00  0.00    +0.000 C 
BRANCH   9  10
ATOM     10  C   UNL     1      45.552   2.251   8.279  0.00  0.00    +0.000 A 
ATOM     11  C   UNL     1      45.847   3.357   7.481  0.00  0.00    +0.000 A 
ATOM     12  C   UNL     1      46.888   3.272   6.562  0.00  0.00    +0.000 A 
ATOM     13  C   UNL     1      47.623   2.098   6.471  0.00  0.00    +0.000 A 
ATOM     14  C   UNL     1      47.286   1.053   7.315  0.00  0.00    +0.000 A 
ATOM     15  N   UNL     1      46.278   1.104   8.215  0.00  0.00    +0.000 NA
ENDBRANCH   9  10
ENDBRANCH   8   9
ENDBRANCH   5   8
ENDBRANCH   1   2
BRANCH   1  16
ATOM     16  N   UNL     1      48.229   6.411  13.721  0.00  0.00    +0.000 N 
ATOM     17  C   UNL     1      48.333   7.780  13.662  0.00  0.00    +0.000 C 
ATOM     18  O   UNL     1      47.479   8.540  14.106  0.00  0.00    +0.000 OA
ATOM     19  H   UNL     1      48.805   5.881  13.077  0.00  0.00    +0.000 HD
BRANCH  17  20
ATOM     20  C   UNL     1      49.570   8.297  13.063  0.00  0.00    +0.000 A 
ATOM     21  C   UNL     1      49.545   8.934  11.829  0.00  0.00    +0.000 A 
ATOM     22  S   UNL     1      51.087   9.448  11.301  0.00  0.00    +0.000 S 
ATOM     23  C   UNL     1      51.840   8.795  12.681  0.00  0.00    +0.000 A 
ATOM     24  N   UNL     1      53.190   8.846  12.838  0.00  0.00    +0.000 NA
ATOM     25  C   UNL     1      53.622   8.279  13.919  0.00  0.00    +0.000 A 
ATOM     26  N   UNL     1      52.827   7.682  14.860  0.00  0.00    +0.000 N 
ATOM     27  C   UNL     1      51.458   7.650  14.768  0.00  0.00    +0.000 A 
ATOM     28  O   UNL     1      50.770   7.187  15.670  0.00  0.00    +0.000 OA
ATOM     29  C   UNL     1      50.927   8.234  13.553  0.00  0.00    +0.000 A 
ATOM     30  H   UNL     1      53.224   7.284  15.701  0.00  0.00    +0.000 HD
ENDBRANCH  17  20
ENDBRANCH   1  16
BRANCH   1  31
ATOM     31  C   UNL     1      47.431   4.552  15.159  0.00  0.00    +0.000 C 
BRANCH  31  32
ATOM     32  C   UNL     1      47.983   5.032  16.502  0.00  0.00    +0.000 C 
BRANCH  32  33
ATOM     33  N   UNL     1      49.432   4.887  16.554  0.00  0.00    +0.000 NA
ATOM     34  H   UNL     1      49.745   5.015  17.516  0.00  0.00    +0.000 HD
ATOM     35  H   UNL     1      49.871   5.627  16.006  0.00  0.00    +0.000 HD
ENDBRANCH  32  33
ENDBRANCH  31  32
ENDBRANCH   1  31
TORSDOF 9
ENDMDL
MODEL 6
REMARK VINA RESULT:    -7.702      2.538      4.795
REMARK INTER + INTRA:         -12.420
REMARK INTER:                 -10.994
REMARK INTRA:                  -1.426
REMARK UNBOUND:                -0.891
REMARK  Name = 
REMARK  9 active torsions:
REMARK  status: ('A' for Active; 'I' for Inactive)
REMARK    1  A    between atoms: N_1  and  C_2
REMARK    2  A    between atoms: C_2  and  C_3
REMARK    3  A    between atoms: C_3  and  C_4
REMARK    4  A    between atoms: C_4  and  N_5
REMARK    5  A    between atoms: C_4  and  C_18
REMARK    6  A    between atoms: C_6  and  C_8
REMARK    7  A    between atoms: C_21  and  O_22
REMARK    8  A    between atoms: O_22  and  C_23
REMARK    9  A    between atoms: C_23  and  C_24
REMARK                            x       y       z     vdW  Elec       q    Type
REMARK                         _______ _______ _______ _____ _____    ______ ____
ROOT
ATOM      1  C   UNL     1      47.229   5.229  14.879  0.00  0.00    +0.000 C 
ENDROOT
BRANCH   1   2
ATOM      2  C   UNL     1      46.424   4.846  13.633  0.00  0.00    +0.000 A 
ATOM      3  C   UNL     1      45.737   5.848  12.924  0.00  0.00    +0.000 A 
ATOM      4  C   UNL     1      44.872   5.535  11.868  0.00  0.00    +0.000 A 
ATOM      5  C   UNL     1      44.710   4.211  11.468  0.00  0.00    +0.000 A 
ATOM      6  C   UNL     1      45.404   3.208  12.146  0.00  0.00    +0.000 A 
ATOM      7  C   UNL     1      46.248   3.516  13.221  0.00  0.00    +0.000 A 
BRANCH   5   8
ATOM      8  O   UNL     1      43.870   3.776  10.481  0.00  0.00    +0.000 OA
BRANCH   8   9
ATOM      9  C   UNL     1      44.122   4.272   9.160  0.00  0.00    +0.000 C 
BRANCH   9  10
ATOM     10  C   UNL     1      45.213   3.462   8.488  0.00  0.00    +0.000 A 
ATOM     11  C   UNL     1      45.325   2.089   8.711  0.00  0.00    +0.000 A 
ATOM     12  C   UNL     1      46.324   1.374   8.055  0.00  0.00    +0.000 A 
ATOM     13  C   UNL     1      47.173   2.037   7.180  0.00  0.00    +0.000 A 
ATOM     14  C   UNL     1      46.983   3.396   6.992  0.00  0.00    +0.000 A 
ATOM     15  N   UNL     1      46.026   4.117   7.618  0.00  0.00    +0.000 NA
ENDBRANCH   9  10
ENDBRANCH   8   9
ENDBRANCH   5   8
ENDBRANCH   1   2
BRANCH   1  16
ATOM     16  N   UNL     1      48.453   5.932  14.515  0.00  0.00    +0.000 N 
ATOM     17  C   UNL     1      49.004   6.943  15.266  0.00  0.00    +0.000 C 
ATOM     18  O   UNL     1      48.569   7.281  16.363  0.00  0.00    +0.000 OA
ATOM     19  H   UNL     1      48.671   5.928  13.526  0.00  0.00    +0.000 HD
BRANCH  17  20
ATOM     20  C   UNL     1      50.194   7.583  14.693  0.00  0.00    +0.000 A 
ATOM     21  C   UNL     1      51.397   7.590  15.387  0.00  0.00    +0.000 A 
ATOM     22  S   UNL     1      52.654   8.397  14.557  0.00  0.00    +0.000 S 
ATOM     23  C   UNL     1      51.619   8.801  13.267  0.00  0.00    +0.000 A 
ATOM     24  N   UNL     1      52.058   9.549  12.219  0.00  0.00    +0.000 NA
ATOM     25  C   UNL     1      51.151   9.805  11.331  0.00  0.00    +0.000 A 
ATOM     26  N   UNL     1      49.855   9.367  11.389  0.00  0.00    +0.000 N 
ATOM     27  C   UNL     1      49.382   8.570  12.400  0.00  0.00    +0.000 A 
ATOM     28  O   UNL     1      48.242   8.122  12.377  0.00  0.00    +0.000 OA
ATOM     29  C   UNL     1      50.348   8.290  13.444  0.00  0.00    +0.000 A 
ATOM     30  H   UNL     1      49.202   9.574  10.646  0.00  0.00    +0.000 HD
ENDBRANCH  17  20
ENDBRANCH   1  16
BRANCH   1  31
ATOM     31  C   UNL     1      47.527   3.989  15.750  0.00  0.00    +0.000 C 
BRANCH  31  32
ATOM     32  C   UNL     1      47.121   4.171  17.214  0.00  0.00    +0.000 C 
BRANCH  32  33
ATOM     33  N   UNL     1      46.703   2.905  17.802  0.00  0.00    +0.000 NA
ATOM     34  H   UNL     1      47.388   2.620  18.502  0.00  0.00    +0.000 HD
ATOM     35  H   UNL     1      46.700   2.178  17.087  0.00  0.00    +0.000 HD
ENDBRANCH  32  33
ENDBRANCH  31  32
ENDBRANCH   1  31
TORSDOF 9
ENDMDL
MODEL 7
REMARK VINA RESULT:    -7.138      4.615      8.559
REMARK INTER + INTRA:         -11.576
REMARK INTER:                 -10.603
REMARK INTRA:                  -0.974
REMARK UNBOUND:                -0.891
REMARK  Name = 
REMARK  9 active torsions:
REMARK  status: ('A' for Active; 'I' for Inactive)
REMARK    1  A    between atoms: N_1  and  C_2
REMARK    2  A    between atoms: C_2  and  C_3
REMARK    3  A    between atoms: C_3  and  C_4
REMARK    4  A    between atoms: C_4  and  N_5
REMARK    5  A    between atoms: C_4  and  C_18
REMARK    6  A    between atoms: C_6  and  C_8
REMARK    7  A    between atoms: C_21  and  O_22
REMARK    8  A    between atoms: O_22  and  C_23
REMARK    9  A    between atoms: C_23  and  C_24
REMARK                            x       y       z     vdW  Elec       q    Type
REMARK                         _______ _______ _______ _____ _____    ______ ____
ROOT
ATOM      1  C   UNL     1      48.639   5.890  17.227  0.00  0.00    +0.000 C 
ENDROOT
BRANCH   1   2
ATOM      2  C   UNL     1      49.474   4.613  17.371  0.00  0.00    +0.000 A 
ATOM      3  C   UNL     1      50.849   4.719  17.643  0.00  0.00    +0.000 A 
ATOM      4  C   UNL     1      51.683   3.593  17.640  0.00  0.00    +0.000 A 
ATOM      5  C   UNL     1      51.149   2.329  17.409  0.00  0.00    +0.000 A 
ATOM      6  C   UNL     1      49.781   2.206  17.160  0.00  0.00    +0.000 A 
ATOM      7  C   UNL     1      48.949   3.333  17.135  0.00  0.00    +0.000 A 
BRANCH   5   8
ATOM      8  O   UNL     1      51.862   1.164  17.343  0.00  0.00    +0.000 OA
BRANCH   8   9
ATOM      9  C   UNL     1      53.258   1.250  17.653  0.00  0.00    +0.000 C 
BRANCH   9  10
ATOM     10  C   UNL     1      53.877  -0.134  17.697  0.00  0.00    +0.000 A 
ATOM     11  C   UNL     1      54.662  -0.602  16.643  0.00  0.00    +0.000 A 
ATOM     12  C   UNL     1      55.235  -1.867  16.732  0.00  0.00    +0.000 A 
ATOM     13  C   UNL     1      55.030  -2.628  17.875  0.00  0.00    +0.000 A 
ATOM     14  C   UNL     1      54.261  -2.085  18.890  0.00  0.00    +0.000 A 
ATOM     15  N   UNL     1      53.688  -0.861  18.830  0.00  0.00    +0.000 NA
ENDBRANCH   9  10
ENDBRANCH   8   9
ENDBRANCH   5   8
ENDBRANCH   1   2
BRANCH   1  16
ATOM     16  N   UNL     1      47.835   5.856  16.012  0.00  0.00    +0.000 N 
ATOM     17  C   UNL     1      48.304   6.231  14.776  0.00  0.00    +0.000 C 
ATOM     18  O   UNL     1      49.473   6.539  14.564  0.00  0.00    +0.000 OA
ATOM     19  H   UNL     1      46.834   5.919  16.159  0.00  0.00    +0.000 HD
BRANCH  17  20
ATOM     20  C   UNL     1      47.319   6.203  13.688  0.00  0.00    +0.000 A 
ATOM     21  C   UNL     1      46.937   7.376  13.049  0.00  0.00    +0.000 A 
ATOM     22  S   UNL     1      45.772   7.132  11.823  0.00  0.00    +0.000 S 
ATOM     23  C   UNL     1      45.707   5.459  12.139  0.00  0.00    +0.000 A 
ATOM     24  N   UNL     1      44.853   4.647  11.461  0.00  0.00    +0.000 NA
ATOM     25  C   UNL     1      44.891   3.407  11.832  0.00  0.00    +0.000 A 
ATOM     26  N   UNL     1      45.715   2.907  12.805  0.00  0.00    +0.000 N 
ATOM     27  C   UNL     1      46.626   3.680  13.480  0.00  0.00    +0.000 A 
ATOM     28  O   UNL     1      47.409   3.185  14.281  0.00  0.00    +0.000 OA
ATOM     29  C   UNL     1      46.593   5.086  13.131  0.00  0.00    +0.000 A 
ATOM     30  H   UNL     1      45.719   1.921  13.027  0.00  0.00    +0.000 HD
ENDBRANCH  17  20
ENDBRANCH   1  16
BRANCH   1  31
ATOM     31  C   UNL     1      49.534   7.148  17.278  0.00  0.00    +0.000 C 
BRANCH  31  32
ATOM     32  C   UNL     1      48.934   8.281  18.113  0.00  0.00    +0.000 C 
BRANCH  32  33
ATOM     33  N   UNL     1      47.479   8.285  18.020  0.00  0.00    +0.000 NA
ATOM     34  H   UNL     1      47.086   8.059  18.932  0.00  0.00    +0.000 HD
ATOM     35  H   UNL     1      47.174   7.550  17.382  0.00  0.00    +0.000 HD
ENDBRANCH  32  33
ENDBRANCH  31  32
ENDBRANCH   1  31
TORSDOF 9
ENDMDL
MODEL 8
REMARK VINA RESULT:    -6.802      3.457      8.042
REMARK INTER + INTRA:         -11.073
REMARK INTER:                  -9.697
REMARK INTRA:                  -1.375
REMARK UNBOUND:                -0.891
REMARK  Name = 
REMARK  9 active torsions:
REMARK  status: ('A' for Active; 'I' for Inactive)
REMARK    1  A    between atoms: N_1  and  C_2
REMARK    2  A    between atoms: C_2  and  C_3
REMARK    3  A    between atoms: C_3  and  C_4
REMARK    4  A    between atoms: C_4  and  N_5
REMARK    5  A    between atoms: C_4  and  C_18
REMARK    6  A    between atoms: C_6  and  C_8
REMARK    7  A    between atoms: C_21  and  O_22
REMARK    8  A    between atoms: O_22  and  C_23
REMARK    9  A    between atoms: C_23  and  C_24
REMARK                            x       y       z     vdW  Elec       q    Type
REMARK                         _______ _______ _______ _____ _____    ______ ____
ROOT
ATOM      1  C   UNL     1      47.638   7.260  13.498  0.00  0.00    +0.000 C 
ENDROOT
BRANCH   1   2
ATOM      2  C   UNL     1      48.247   6.526  14.698  0.00  0.00    +0.000 A 
ATOM      3  C   UNL     1      47.645   5.342  15.157  0.00  0.00    +0.000 A 
ATOM      4  C   UNL     1      48.072   4.713  16.334  0.00  0.00    +0.000 A 
ATOM      5  C   UNL     1      49.144   5.233  17.054  0.00  0.00    +0.000 A 
ATOM      6  C   UNL     1      49.767   6.396  16.598  0.00  0.00    +0.000 A 
ATOM      7  C   UNL     1      49.324   7.042  15.436  0.00  0.00    +0.000 A 
BRANCH   5   8
ATOM      8  O   UNL     1      49.627   4.735  18.232  0.00  0.00    +0.000 OA
BRANCH   8   9
ATOM      9  C   UNL     1      51.046   4.803  18.422  0.00  0.00    +0.000 C 
BRANCH   9  10
ATOM     10  C   UNL     1      51.676   3.441  18.208  0.00  0.00    +0.000 A 
ATOM     11  C   UNL     1      50.987   2.431  17.536  0.00  0.00    +0.000 A 
ATOM     12  C   UNL     1      51.609   1.201  17.336  0.00  0.00    +0.000 A 
ATOM     13  C   UNL     1      52.907   1.013  17.789  0.00  0.00    +0.000 A 
ATOM     14  C   UNL     1      53.535   2.072  18.423  0.00  0.00    +0.000 A 
ATOM     15  N   UNL     1      52.956   3.275  18.637  0.00  0.00    +0.000 NA
ENDBRANCH   9  10
ENDBRANCH   8   9
ENDBRANCH   5   8
ENDBRANCH   1   2
BRANCH   1  16
ATOM     16  N   UNL     1      47.072   6.316  12.542  0.00  0.00    +0.000 N 
ATOM     17  C   UNL     1      45.999   6.603  11.731  0.00  0.00    +0.000 C 
ATOM     18  O   UNL     1      45.479   7.713  11.669  0.00  0.00    +0.000 OA
ATOM     19  H   UNL     1      47.233   5.339  12.758  0.00  0.00    +0.000 HD
BRANCH  17  20
ATOM     20  C   UNL     1      45.524   5.496  10.893  0.00  0.00    +0.000 A 
ATOM     21  C   UNL     1      45.669   5.541   9.512  0.00  0.00    +0.000 A 
ATOM     22  S   UNL     1      45.039   4.165   8.719  0.00  0.00    +0.000 S 
ATOM     23  C   UNL     1      44.513   3.488  10.190  0.00  0.00    +0.000 A 
ATOM     24  N   UNL     1      43.835   2.308  10.220  0.00  0.00    +0.000 NA
ATOM     25  C   UNL     1      43.470   1.935  11.406  0.00  0.00    +0.000 A 
ATOM     26  N   UNL     1      43.735   2.625  12.558  0.00  0.00    +0.000 N 
ATOM     27  C   UNL     1      44.456   3.791  12.580  0.00  0.00    +0.000 A 
ATOM     28  O   UNL     1      44.752   4.337  13.637  0.00  0.00    +0.000 OA
ATOM     29  C   UNL     1      44.852   4.275  11.273  0.00  0.00    +0.000 A 
ATOM     30  H   UNL     1      43.449   2.263  13.458  0.00  0.00    +0.000 HD
ENDBRANCH  17  20
ENDBRANCH   1  16
BRANCH   1  31
ATOM     31  C   UNL     1      48.675   8.189  12.830  0.00  0.00    +0.000 C 
BRANCH  31  32
ATOM     32  C   UNL     1      49.600   7.456  11.856  0.00  0.00    +0.000 C 
BRANCH  32  33
ATOM     33  N   UNL     1      50.999   7.737  12.152  0.00  0.00    +0.000 NA
ATOM     34  H   UNL     1      51.077   8.063  13.115  0.00  0.00    +0.000 HD
ATOM     35  H   UNL     1      51.329   8.500  11.561  0.00  0.00    +0.000 HD
ENDBRANCH  32  33
ENDBRANCH  31  32
ENDBRANCH   1  31
TORSDOF 9
ENDMDL
MODEL 9
REMARK VINA RESULT:    -6.501      4.572      9.018
REMARK INTER + INTRA:         -10.622
REMARK INTER:                  -8.935
REMARK INTRA:                  -1.687
REMARK UNBOUND:                -0.891
REMARK  Name = 
REMARK  9 active torsions:
REMARK  status: ('A' for Active; 'I' for Inactive)
REMARK    1  A    between atoms: N_1  and  C_2
REMARK    2  A    between atoms: C_2  and  C_3
REMARK    3  A    between atoms: C_3  and  C_4
REMARK    4  A    between atoms: C_4  and  N_5
REMARK    5  A    between atoms: C_4  and  C_18
REMARK    6  A    between atoms: C_6  and  C_8
REMARK    7  A    between atoms: C_21  and  O_22
REMARK    8  A    between atoms: O_22  and  C_23
REMARK    9  A    between atoms: C_23  and  C_24
REMARK                            x       y       z     vdW  Elec       q    Type
REMARK                         _______ _______ _______ _____ _____    ______ ____
ROOT
ATOM      1  C   UNL     1      48.015   4.093  17.630  0.00  0.00    +0.000 C 
ENDROOT
BRANCH   1   2
ATOM      2  C   UNL     1      49.493   3.704  17.521  0.00  0.00    +0.000 A 
ATOM      3  C   UNL     1      49.835   2.353  17.336  0.00  0.00    +0.000 A 
ATOM      4  C   UNL     1      51.169   1.925  17.375  0.00  0.00    +0.000 A 
ATOM      5  C   UNL     1      52.194   2.850  17.555  0.00  0.00    +0.000 A 
ATOM      6  C   UNL     1      51.870   4.198  17.716  0.00  0.00    +0.000 A 
ATOM      7  C   UNL     1      50.536   4.625  17.705  0.00  0.00    +0.000 A 
BRANCH   5   8
ATOM      8  O   UNL     1      53.525   2.554  17.649  0.00  0.00    +0.000 OA
BRANCH   8   9
ATOM      9  C   UNL     1      53.917   1.703  18.734  0.00  0.00    +0.000 C 
BRANCH   9  10
ATOM     10  C   UNL     1      54.270   0.320  18.223  0.00  0.00    +0.000 A 
ATOM     11  C   UNL     1      54.628   0.120  16.889  0.00  0.00    +0.000 A 
ATOM     12  C   UNL     1      54.971  -1.161  16.464  0.00  0.00    +0.000 A 
ATOM     13  C   UNL     1      54.970  -2.205  17.378  0.00  0.00    +0.000 A 
ATOM     14  C   UNL     1      54.629  -1.922  18.690  0.00  0.00    +0.000 A 
ATOM     15  N   UNL     1      54.287  -0.691  19.131  0.00  0.00    +0.000 NA
ENDBRANCH   9  10
ENDBRANCH   8   9
ENDBRANCH   5   8
ENDBRANCH   1   2
BRANCH   1  16
ATOM     16  N   UNL     1      47.569   4.797  16.434  0.00  0.00    +0.000 N 
ATOM     17  C   UNL     1      47.413   4.196  15.208  0.00  0.00    +0.000 C 
ATOM     18  O   UNL     1      47.542   2.989  15.029  0.00  0.00    +0.000 OA
ATOM     19  H   UNL     1      47.747   5.795  16.434  0.00  0.00    +0.000 HD
BRANCH  17  20
ATOM     20  C   UNL     1      47.034   5.089  14.106  0.00  0.00    +0.000 A 
ATOM     21  C   UNL     1      45.913   4.820  13.331  0.00  0.00    +0.000 A 
ATOM     22  S   UNL     1      45.653   5.970  12.094  0.00  0.00    +0.000 S 
ATOM     23  C   UNL     1      47.054   6.836  12.526  0.00  0.00    +0.000 A 
ATOM     24  N   UNL     1      47.451   7.930  11.822  0.00  0.00    +0.000 NA
ATOM     25  C   UNL     1      48.552   8.465  12.247  0.00  0.00    +0.000 A 
ATOM     26  N   UNL     1      49.278   8.014  13.316  0.00  0.00    +0.000 N 
ATOM     27  C   UNL     1      48.890   6.946  14.084  0.00  0.00    +0.000 A 
ATOM     28  O   UNL     1      49.514   6.623  15.087  0.00  0.00    +0.000 OA
ATOM     29  C   UNL     1      47.685   6.285  13.625  0.00  0.00    +0.000 A 
ATOM     30  H   UNL     1      50.114   8.496  13.618  0.00  0.00    +0.000 HD
ENDBRANCH  17  20
ENDBRANCH   1  16
BRANCH   1  31
ATOM     31  C   UNL     1      47.751   4.923  18.906  0.00  0.00    +0.000 C 
BRANCH  31  32
ATOM     32  C   UNL     1      47.100   6.278  18.618  0.00  0.00    +0.000 C 
BRANCH  32  33
ATOM     33  N   UNL     1      48.050   7.194  18.000  0.00  0.00    +0.000 NA
ATOM     34  H   UNL     1      47.921   7.175  16.989  0.00  0.00    +0.000 HD
ATOM     35  H   UNL     1      49.001   6.873  18.176  0.00  0.00    +0.000 HD
ENDBRANCH  32  33
ENDBRANCH  31  32
ENDBRANCH   1  31
TORSDOF 9
ENDMDL
