MODEL 1
REMARK VINA RESULT:    -7.509      0.000      0.000
REMARK INTER + INTRA:         -11.453
REMARK INTER:                 -10.582
REMARK INTRA:                  -0.871
REMARK UNBOUND:                -0.871
REMARK  Name = 
REMARK  8 active torsions:
REMARK  status: ('A' for Active; 'I' for Inactive)
REMARK    1  A    between atoms: C_1  and  C_2
REMARK    2  A    between atoms: C_2  and  C_3
REMARK    3  A    between atoms: C_2  and  C_5
REMARK    4  A    between atoms: C_2  and  C_16
REMARK    5  A    between atoms: C_5  and  O_6
REMARK    6  A    between atoms: O_6  and  C_7
REMARK    7  A    between atoms: C_10  and  C_11
REMARK    8  A    between atoms: C_20  and  C_21
REMARK                            x       y       z     vdW  Elec       q    Type
REMARK                         _______ _______ _______ _____ _____    ______ ____
ROOT
ATOM      1  C   UNL     1      43.023   4.393  13.520  0.00  0.00    +0.000 C 
ATOM      2  C   UNL     1      44.006   4.758  12.382  0.00  0.00    +0.000 C 
ENDROOT
BRANCH   2   3
ATOM      3  C   UNL     1      45.414   5.136  12.876  0.00  0.00    +0.000 A 
ATOM      4  C   UNL     1      46.243   6.043  12.193  0.00  0.00    +0.000 A 
ATOM      5  C   UNL     1      47.520   6.351  12.667  0.00  0.00    +0.000 A 
ATOM      6  C   UNL     1      47.991   5.779  13.846  0.00  0.00    +0.000 A 
ATOM      7  C   UNL     1      47.189   4.889  14.566  0.00  0.00    +0.000 A 
ATOM      8  C   UNL     1      45.919   4.559  14.060  0.00  0.00    +0.000 A 
BRANCH   7   9
ATOM      9  C   UNL     1      47.649   4.309  15.881  0.00  0.00    +0.000 C 
ATOM     10  F   UNL     1      48.730   4.947  16.409  0.00  0.00    +0.000 F 
ATOM     11  F   UNL     1      46.678   4.372  16.834  0.00  0.00    +0.000 F 
ATOM     12  F   UNL     1      47.995   2.996  15.786  0.00  0.00    +0.000 F 
ENDBRANCH   7   9
ENDBRANCH   2   3
BRANCH   2  13
ATOM     13  C   UNL     1      43.396   5.939  11.645  0.00  0.00    +0.000 C 
ATOM     14  N   UNL     1      42.889   6.919  11.034  0.00  0.00    +0.000 NA
ENDBRANCH   2  13
BRANCH   2  15
ATOM     15  C   UNL     1      44.085   3.557  11.400  0.00  0.00    +0.000 C 
BRANCH  15  16
ATOM     16  O   UNL     1      43.816   3.964  10.041  0.00  0.00    +0.000 OA
BRANCH  16  17
ATOM     17  C   UNL     1      44.794   3.554   9.164  0.00  0.00    +0.000 A 
ATOM     18  C   UNL     1      45.137   2.204   9.107  0.00  0.00    +0.000 A 
ATOM     19  N   UNL     1      46.079   1.708   8.257  0.00  0.00    +0.000 NA
ATOM     20  C   UNL     1      46.660   2.640   7.450  0.00  0.00    +0.000 A 
ATOM     21  C   UNL     1      46.322   3.988   7.511  0.00  0.00    +0.000 A 
ATOM     22  N   UNL     1      45.390   4.471   8.371  0.00  0.00    +0.000 NA
BRANCH  20  23
ATOM     23  C   UNL     1      47.686   2.195   6.463  0.00  0.00    +0.000 C 
ATOM     24  N   UNL     1      47.896   3.003   5.378  0.00  0.00    +0.000 N 
ATOM     25  O   UNL     1      48.317   1.157   6.612  0.00  0.00    +0.000 OA
ATOM     26  H   UNL     1      47.383   3.869   5.256  0.00  0.00    +0.000 HD
ATOM     27  H   UNL     1      48.592   2.731   4.701  0.00  0.00    +0.000 HD
ENDBRANCH  20  23
ENDBRANCH  16  17
ENDBRANCH  15  16
ENDBRANCH   2  15
TORSDOF 7
ENDMDL
MODEL 2
REMARK VINA RESULT:    -7.369      2.144      2.809
REMARK INTER + INTRA:         -11.255
REMARK INTER:                 -10.370
REMARK INTRA:                  -0.885
REMARK UNBOUND:                -0.871
REMARK  Name = 
REMARK  8 active torsions:
REMARK  status: ('A' for Active; 'I' for Inactive)
REMARK    1  A    between atoms: C_1  and  C_2
REMARK    2  A    between atoms: C_2  and  C_3
REMARK    3  A    between atoms: C_2  and  C_5
REMARK    4  A    between atoms: C_2  and  C_16
REMARK    5  A    between atoms: C_5  and  O_6
REMARK    6  A    between atoms: O_6  and  C_7
REMARK    7  A    between atoms: C_10  and  C_11
REMARK    8  A    between atoms: C_20  and  C_21
REMARK                            x       y       z     vdW  Elec       q    Type
REMARK                         _______ _______ _______ _____ _____    ______ ____
ROOT
ATOM      1  C   UNL     1      43.071   4.394  13.613  0.00  0.00    +0.000 C 
ATOM      2  C   UNL     1      44.075   4.745  12.489  0.00  0.00    +0.000 C 
ENDROOT
BRANCH   2   3
ATOM      3  C   UNL     1      45.443   5.223  13.005  0.00  0.00    +0.000 A 
ATOM      4  C   UNL     1      46.148   4.557  14.024  0.00  0.00    +0.000 A 
ATOM      5  C   UNL     1      47.383   5.029  14.474  0.00  0.00    +0.000 A 
ATOM      6  C   UNL     1      47.954   6.163  13.903  0.00  0.00    +0.000 A 
ATOM      7  C   UNL     1      47.295   6.841  12.874  0.00  0.00    +0.000 A 
ATOM      8  C   UNL     1      46.037   6.377  12.452  0.00  0.00    +0.000 A 
BRANCH   7   9
ATOM      9  C   UNL     1      47.925   8.031  12.191  0.00  0.00    +0.000 C 
ATOM     10  F   UNL     1      47.019   8.947  11.747  0.00  0.00    +0.000 F 
ATOM     11  F   UNL     1      48.764   8.711  13.022  0.00  0.00    +0.000 F 
ATOM     12  F   UNL     1      48.672   7.684  11.108  0.00  0.00    +0.000 F 
ENDBRANCH   7   9
ENDBRANCH   2   3
BRANCH   2  13
ATOM     13  C   UNL     1      43.431   5.848  11.665  0.00  0.00    +0.000 C 
ATOM     14  N   UNL     1      42.898   6.763  10.981  0.00  0.00    +0.000 NA
ENDBRANCH   2  13
BRANCH   2  15
ATOM     15  C   UNL     1      44.249   3.496  11.582  0.00  0.00    +0.000 C 
BRANCH  15  16
ATOM     16  O   UNL     1      43.808   3.754  10.232  0.00  0.00    +0.000 OA
BRANCH  16  17
ATOM     17  C   UNL     1      44.742   3.384   9.292  0.00  0.00    +0.000 A 
ATOM     18  C   UNL     1      45.364   4.368   8.524  0.00  0.00    +0.000 A 
ATOM     19  N   UNL     1      46.311   4.094   7.584  0.00  0.00    +0.000 NA
ATOM     20  C   UNL     1      46.617   2.772   7.458  0.00  0.00    +0.000 A 
ATOM     21  C   UNL     1      45.994   1.790   8.221  0.00  0.00    +0.000 A 
ATOM     22  N   UNL     1      45.042   2.075   9.145  0.00  0.00    +0.000 NA
BRANCH  20  23
ATOM     23  C   UNL     1      47.664   2.368   6.475  0.00  0.00    +0.000 C 
ATOM     24  N   UNL     1      47.720   3.072   5.302  0.00  0.00    +0.000 N 
ATOM     25  O   UNL     1      48.444   1.453   6.702  0.00  0.00    +0.000 OA
ATOM     26  H   UNL     1      47.082   3.838   5.114  0.00  0.00    +0.000 HD
ATOM     27  H   UNL     1      48.426   2.827   4.625  0.00  0.00    +0.000 HD
ENDBRANCH  20  23
ENDBRANCH  16  17
ENDBRANCH  15  16
ENDBRANCH   2  15
TORSDOF 7
ENDMDL
MODEL 3
REMARK VINA RESULT:    -7.302      2.215      2.949
REMARK INTER + INTRA:         -11.162
REMARK INTER:                 -10.584
REMARK INTRA:                  -0.578
REMARK UNBOUND:                -0.871
REMARK  Name = 
REMARK  8 active torsions:
REMARK  status: ('A' for Active; 'I' for Inactive)
REMARK    1  A    between atoms: C_1  and  C_2
REMARK    2  A    between atoms: C_2  and  C_3
REMARK    3  A    between atoms: C_2  and  C_5
REMARK    4  A    between atoms: C_2  and  C_16
REMARK    5  A    between atoms: C_5  and  O_6
REMARK    6  A    between atoms: O_6  and  C_7
REMARK    7  A    between atoms: C_10  and  C_11
REMARK    8  A    between atoms: C_20  and  C_21
REMARK                            x       y       z     vdW  Elec       q    Type
REMARK                         _______ _______ _______ _____ _____    ______ ____
ROOT
ATOM      1  C   UNL     1      45.497   3.668  12.071  0.00  0.00    +0.000 C 
ATOM      2  C   UNL     1      44.559   4.879  11.848  0.00  0.00    +0.000 C 
ENDROOT
BRANCH   2   3
ATOM      3  C   UNL     1      45.279   6.238  11.892  0.00  0.00    +0.000 A 
ATOM      4  C   UNL     1      44.603   7.462  11.738  0.00  0.00    +0.000 A 
ATOM      5  C   UNL     1      45.294   8.676  11.772  0.00  0.00    +0.000 A 
ATOM      6  C   UNL     1      46.670   8.698  11.984  0.00  0.00    +0.000 A 
ATOM      7  C   UNL     1      47.374   7.504  12.162  0.00  0.00    +0.000 A 
ATOM      8  C   UNL     1      46.674   6.286  12.091  0.00  0.00    +0.000 A 
BRANCH   7   9
ATOM      9  C   UNL     1      48.854   7.504  12.462  0.00  0.00    +0.000 C 
ATOM     10  F   UNL     1      49.277   8.623  13.115  0.00  0.00    +0.000 F 
ATOM     11  F   UNL     1      49.216   6.454  13.250  0.00  0.00    +0.000 F 
ATOM     12  F   UNL     1      49.619   7.411  11.340  0.00  0.00    +0.000 F 
ENDBRANCH   7   9
ENDBRANCH   2   3
BRANCH   2  13
ATOM     13  C   UNL     1      43.514   4.824  12.950  0.00  0.00    +0.000 C 
ATOM     14  N   UNL     1      42.646   4.779  13.864  0.00  0.00    +0.000 NA
ENDBRANCH   2  13
BRANCH   2  15
ATOM     15  C   UNL     1      43.841   4.695  10.483  0.00  0.00    +0.000 C 
BRANCH  15  16
ATOM     16  O   UNL     1      43.817   3.309  10.078  0.00  0.00    +0.000 OA
BRANCH  16  17
ATOM     17  C   UNL     1      44.747   3.028   9.104  0.00  0.00    +0.000 A 
ATOM     18  C   UNL     1      45.138   4.035   8.222  0.00  0.00    +0.000 A 
ATOM     19  N   UNL     1      46.064   3.851   7.241  0.00  0.00    +0.000 NA
ATOM     20  C   UNL     1      46.594   2.596   7.191  0.00  0.00    +0.000 A 
ATOM     21  C   UNL     1      46.201   1.590   8.068  0.00  0.00    +0.000 A 
ATOM     22  N   UNL     1      45.268   1.784   9.033  0.00  0.00    +0.000 NA
BRANCH  20  23
ATOM     23  C   UNL     1      47.639   2.298   6.169  0.00  0.00    +0.000 C 
ATOM     24  N   UNL     1      47.716   3.143   5.095  0.00  0.00    +0.000 N 
ATOM     25  O   UNL     1      48.398   1.345   6.282  0.00  0.00    +0.000 OA
ATOM     26  H   UNL     1      47.097   3.941   5.003  0.00  0.00    +0.000 HD
ATOM     27  H   UNL     1      48.422   2.971   4.395  0.00  0.00    +0.000 HD
ENDBRANCH  20  23
ENDBRANCH  16  17
ENDBRANCH  15  16
ENDBRANCH   2  15
TORSDOF 7
ENDMDL
MODEL 4
REMARK VINA RESULT:    -6.974      4.856      7.579
REMARK INTER + INTRA:         -10.699
REMARK INTER:                  -9.896
REMARK INTRA:                  -0.803
REMARK UNBOUND:                -0.871
REMARK  Name = 
REMARK  8 active torsions:
REMARK  status: ('A' for Active; 'I' for Inactive)
REMARK    1  A    between atoms: C_1  and  C_2
REMARK    2  A    between atoms: C_2  and  C_3
REMARK    3  A    between atoms: C_2  and  C_5
REMARK    4  A    between atoms: C_2  and  C_16
REMARK    5  A    between atoms: C_5  and  O_6
REMARK    6  A    between atoms: O_6  and  C_7
REMARK    7  A    between atoms: C_10  and  C_11
REMARK    8  A    between atoms: C_20  and  C_21
REMARK                            x       y       z     vdW  Elec       q    Type
REMARK                         _______ _______ _______ _____ _____    ______ ____
ROOT
ATOM      1  C   UNL     1      45.286   6.629  10.959  0.00  0.00    +0.000 C 
ATOM      2  C   UNL     1      44.614   5.326  11.455  0.00  0.00    +0.000 C 
ENDROOT
BRANCH   2   3
ATOM      3  C   UNL     1      44.764   4.142  10.482  0.00  0.00    +0.000 A 
ATOM      4  C   UNL     1      44.044   2.942  10.627  0.00  0.00    +0.000 A 
ATOM      5  C   UNL     1      44.216   1.886   9.730  0.00  0.00    +0.000 A 
ATOM      6  C   UNL     1      45.091   2.010   8.654  0.00  0.00    +0.000 A 
ATOM      7  C   UNL     1      45.809   3.194   8.463  0.00  0.00    +0.000 A 
ATOM      8  C   UNL     1      45.654   4.238   9.393  0.00  0.00    +0.000 A 
BRANCH   7   9
ATOM      9  C   UNL     1      46.712   3.379   7.268  0.00  0.00    +0.000 C 
ATOM     10  F   UNL     1      47.298   4.608   7.213  0.00  0.00    +0.000 F 
ATOM     11  F   UNL     1      47.734   2.478   7.255  0.00  0.00    +0.000 F 
ATOM     12  F   UNL     1      46.058   3.220   6.084  0.00  0.00    +0.000 F 
ENDBRANCH   7   9
ENDBRANCH   2   3
BRANCH   2  13
ATOM     13  C   UNL     1      43.140   5.644  11.641  0.00  0.00    +0.000 C 
ATOM     14  N   UNL     1      41.917   5.908  11.796  0.00  0.00    +0.000 NA
ENDBRANCH   2  13
BRANCH   2  15
ATOM     15  C   UNL     1      45.215   4.962  12.840  0.00  0.00    +0.000 C 
BRANCH  15  16
ATOM     16  O   UNL     1      46.600   5.358  12.938  0.00  0.00    +0.000 OA
BRANCH  16  17
ATOM     17  C   UNL     1      47.131   5.118  14.185  0.00  0.00    +0.000 A 
ATOM     18  C   UNL     1      48.096   5.985  14.694  0.00  0.00    +0.000 A 
ATOM     19  N   UNL     1      48.661   5.834  15.925  0.00  0.00    +0.000 NA
ATOM     20  C   UNL     1      48.198   4.765  16.633  0.00  0.00    +0.000 A 
ATOM     21  C   UNL     1      47.237   3.898  16.123  0.00  0.00    +0.000 A 
ATOM     22  N   UNL     1      46.691   4.052  14.891  0.00  0.00    +0.000 NA
BRANCH  20  23
ATOM     23  C   UNL     1      48.732   4.528  18.005  0.00  0.00    +0.000 C 
ATOM     24  N   UNL     1      48.128   3.548  18.747  0.00  0.00    +0.000 N 
ATOM     25  O   UNL     1      49.671   5.173  18.452  0.00  0.00    +0.000 OA
ATOM     26  H   UNL     1      47.357   3.003  18.376  0.00  0.00    +0.000 HD
ATOM     27  H   UNL     1      48.478   3.359  19.673  0.00  0.00    +0.000 HD
ENDBRANCH  20  23
ENDBRANCH  16  17
ENDBRANCH  15  16
ENDBRANCH   2  15
TORSDOF 7
ENDMDL
MODEL 5
REMARK VINA RESULT:    -6.736      5.025      7.620
REMARK INTER + INTRA:         -10.363
REMARK INTER:                  -9.525
REMARK INTRA:                  -0.838
REMARK UNBOUND:                -0.871
REMARK  Name = 
REMARK  8 active torsions:
REMARK  status: ('A' for Active; 'I' for Inactive)
REMARK    1  A    between atoms: C_1  and  C_2
REMARK    2  A    between atoms: C_2  and  C_3
REMARK    3  A    between atoms: C_2  and  C_5
REMARK    4  A    between atoms: C_2  and  C_16
REMARK    5  A    between atoms: C_5  and  O_6
REMARK    6  A    between atoms: O_6  and  C_7
REMARK    7  A    between atoms: C_10  and  C_11
REMARK    8  A    between atoms: C_20  and  C_21
REMARK                            x       y       z     vdW  Elec       q    Type
REMARK                         _______ _______ _______ _____ _____    ______ ____
ROOT
ATOM      1  C   UNL     1      47.643   7.202  11.404  0.00  0.00    +0.000 C 
ATOM      2  C   UNL     1      46.234   6.991  12.007  0.00  0.00    +0.000 C 
ENDROOT
BRANCH   2   3
ATOM      3  C   UNL     1      45.359   6.007  11.211  0.00  0.00    +0.000 A 
ATOM      4  C   UNL     1      44.013   5.752  11.534  0.00  0.00    +0.000 A 
ATOM      5  C   UNL     1      43.255   4.842  10.794  0.00  0.00    +0.000 A 
ATOM      6  C   UNL     1      43.813   4.183   9.702  0.00  0.00    +0.000 A 
ATOM      7  C   UNL     1      45.141   4.425   9.336  0.00  0.00    +0.000 A 
ATOM      8  C   UNL     1      45.905   5.317  10.109  0.00  0.00    +0.000 A 
BRANCH   7   9
ATOM      9  C   UNL     1      45.748   3.776   8.117  0.00  0.00    +0.000 C 
ATOM     10  F   UNL     1      46.825   4.447   7.622  0.00  0.00    +0.000 F 
ATOM     11  F   UNL     1      46.183   2.511   8.374  0.00  0.00    +0.000 F 
ATOM     12  F   UNL     1      44.867   3.665   7.085  0.00  0.00    +0.000 F 
ENDBRANCH   7   9
ENDBRANCH   2   3
BRANCH   2  13
ATOM     13  C   UNL     1      45.565   8.356  12.031  0.00  0.00    +0.000 C 
ATOM     14  N   UNL     1      45.011   9.489  12.051  0.00  0.00    +0.000 NA
ENDBRANCH   2  13
BRANCH   2  15
ATOM     15  C   UNL     1      46.397   6.501  13.472  0.00  0.00    +0.000 C 
BRANCH  15  16
ATOM     16  O   UNL     1      46.779   5.110  13.527  0.00  0.00    +0.000 OA
BRANCH  16  17
ATOM     17  C   UNL     1      47.400   4.779  14.710  0.00  0.00    +0.000 A 
ATOM     18  C   UNL     1      48.168   5.738  15.369  0.00  0.00    +0.000 A 
ATOM     19  N   UNL     1      48.802   5.503  16.551  0.00  0.00    +0.000 NA
ATOM     20  C   UNL     1      48.617   4.249  17.053  0.00  0.00    +0.000 A 
ATOM     21  C   UNL     1      47.854   3.291  16.393  0.00  0.00    +0.000 A 
ATOM     22  N   UNL     1      47.239   3.534  15.209  0.00  0.00    +0.000 NA
BRANCH  20  23
ATOM     23  C   UNL     1      49.247   3.899  18.359  0.00  0.00    +0.000 C 
ATOM     24  N   UNL     1      48.439   3.327  19.305  0.00  0.00    +0.000 N 
ATOM     25  O   UNL     1      50.432   4.107  18.581  0.00  0.00    +0.000 OA
ATOM     26  H   UNL     1      47.458   3.142  19.122  0.00  0.00    +0.000 HD
ATOM     27  H   UNL     1      48.842   3.070  20.193  0.00  0.00    +0.000 HD
ENDBRANCH  20  23
ENDBRANCH  16  17
ENDBRANCH  15  16
ENDBRANCH   2  15
TORSDOF 7
ENDMDL
MODEL 6
REMARK VINA RESULT:    -6.607      4.011      6.425
REMARK INTER + INTRA:         -10.181
REMARK INTER:                  -9.377
REMARK INTRA:                  -0.805
REMARK UNBOUND:                -0.871
REMARK  Name = 
REMARK  8 active torsions:
REMARK  status: ('A' for Active; 'I' for Inactive)
REMARK    1  A    between atoms: C_1  and  C_2
REMARK    2  A    between atoms: C_2  and  C_3
REMARK    3  A    between atoms: C_2  and  C_5
REMARK    4  A    between atoms: C_2  and  C_16
REMARK    5  A    between atoms: C_5  and  O_6
REMARK    6  A    between atoms: O_6  and  C_7
REMARK    7  A    between atoms: C_10  and  C_11
REMARK    8  A    between atoms: C_20  and  C_21
REMARK                            x       y       z     vdW  Elec       q    Type
REMARK                         _______ _______ _______ _____ _____    ______ ____
ROOT
ATOM      1  C   UNL     1      47.352   2.874  17.353  0.00  0.00    +0.000 C 
ATOM      2  C   UNL     1      48.133   4.205  17.231  0.00  0.00    +0.000 C 
ENDROOT
BRANCH   2   3
ATOM      3  C   UNL     1      49.656   4.047  17.383  0.00  0.00    +0.000 A 
ATOM      4  C   UNL     1      50.531   5.145  17.466  0.00  0.00    +0.000 A 
ATOM      5  C   UNL     1      51.910   4.960  17.591  0.00  0.00    +0.000 A 
ATOM      6  C   UNL     1      52.445   3.677  17.661  0.00  0.00    +0.000 A 
ATOM      7  C   UNL     1      51.607   2.560  17.604  0.00  0.00    +0.000 A 
ATOM      8  C   UNL     1      50.224   2.757  17.443  0.00  0.00    +0.000 A 
BRANCH   7   9
ATOM      9  C   UNL     1      52.155   1.161  17.747  0.00  0.00    +0.000 C 
ATOM     10  F   UNL     1      51.240   0.261  18.205  0.00  0.00    +0.000 F 
ATOM     11  F   UNL     1      52.604   0.664  16.561  0.00  0.00    +0.000 F 
ATOM     12  F   UNL     1      53.211   1.093  18.604  0.00  0.00    +0.000 F 
ENDBRANCH   7   9
ENDBRANCH   2   3
BRANCH   2  13
ATOM     13  C   UNL     1      47.607   5.116  18.328  0.00  0.00    +0.000 C 
ATOM     14  N   UNL     1      47.171   5.873  19.239  0.00  0.00    +0.000 NA
ENDBRANCH   2  13
BRANCH   2  15
ATOM     15  C   UNL     1      47.794   4.847  15.858  0.00  0.00    +0.000 C 
BRANCH  15  16
ATOM     16  O   UNL     1      47.625   3.845  14.832  0.00  0.00    +0.000 OA
BRANCH  16  17
ATOM     17  C   UNL     1      46.662   4.191  13.911  0.00  0.00    +0.000 A 
ATOM     18  C   UNL     1      46.330   5.534  13.742  0.00  0.00    +0.000 A 
ATOM     19  N   UNL     1      45.404   5.967  12.842  0.00  0.00    +0.000 NA
ATOM     20  C   UNL     1      44.827   4.978  12.103  0.00  0.00    +0.000 A 
ATOM     21  C   UNL     1      45.155   3.637  12.275  0.00  0.00    +0.000 A 
ATOM     22  N   UNL     1      46.071   3.218  13.184  0.00  0.00    +0.000 NA
BRANCH  20  23
ATOM     23  C   UNL     1      43.819   5.350  11.069  0.00  0.00    +0.000 C 
ATOM     24  N   UNL     1      43.177   6.548  11.229  0.00  0.00    +0.000 N 
ATOM     25  O   UNL     1      43.574   4.622  10.116  0.00  0.00    +0.000 OA
ATOM     26  H   UNL     1      43.385   7.160  12.011  0.00  0.00    +0.000 HD
ATOM     27  H   UNL     1      42.499   6.829  10.537  0.00  0.00    +0.000 HD
ENDBRANCH  20  23
ENDBRANCH  16  17
ENDBRANCH  15  16
ENDBRANCH   2  15
TORSDOF 7
ENDMDL
MODEL 7
REMARK VINA RESULT:    -6.266      3.912      6.309
REMARK INTER + INTRA:          -9.701
REMARK INTER:                  -8.873
REMARK INTRA:                  -0.828
REMARK UNBOUND:                -0.871
REMARK  Name = 
REMARK  8 active torsions:
REMARK  status: ('A' for Active; 'I' for Inactive)
REMARK    1  A    between atoms: C_1  and  C_2
REMARK    2  A    between atoms: C_2  and  C_3
REMARK    3  A    between atoms: C_2  and  C_5
REMARK    4  A    between atoms: C_2  and  C_16
REMARK    5  A    between atoms: C_5  and  O_6
REMARK    6  A    between atoms: O_6  and  C_7
REMARK    7  A    between atoms: C_10  and  C_11
REMARK    8  A    between atoms: C_20  and  C_21
REMARK                            x       y       z     vdW  Elec       q    Type
REMARK                         _______ _______ _______ _____ _____    ______ ____
ROOT
ATOM      1  C   UNL     1      47.388   5.139  18.250  0.00  0.00    +0.000 C 
ATOM      2  C   UNL     1      48.198   4.841  16.965  0.00  0.00    +0.000 C 
ENDROOT
BRANCH   2   3
ATOM      3  C   UNL     1      49.419   3.933  17.198  0.00  0.00    +0.000 A 
ATOM      4  C   UNL     1      49.376   2.539  17.019  0.00  0.00    +0.000 A 
ATOM      5  C   UNL     1      50.503   1.747  17.252  0.00  0.00    +0.000 A 
ATOM      6  C   UNL     1      51.704   2.330  17.646  0.00  0.00    +0.000 A 
ATOM      7  C   UNL     1      51.793   3.715  17.814  0.00  0.00    +0.000 A 
ATOM      8  C   UNL     1      50.643   4.498  17.611  0.00  0.00    +0.000 A 
BRANCH   7   9
ATOM      9  C   UNL     1      53.101   4.377  18.173  0.00  0.00    +0.000 C 
ATOM     10  F   UNL     1      53.464   4.197  19.473  0.00  0.00    +0.000 F 
ATOM     11  F   UNL     1      54.137   3.900  17.428  0.00  0.00    +0.000 F 
ATOM     12  F   UNL     1      53.083   5.723  17.970  0.00  0.00    +0.000 F 
ENDBRANCH   7   9
ENDBRANCH   2   3
BRANCH   2  13
ATOM     13  C   UNL     1      48.662   6.184  16.426  0.00  0.00    +0.000 C 
ATOM     14  N   UNL     1      49.046   7.298  15.978  0.00  0.00    +0.000 NA
ENDBRANCH   2  13
BRANCH   2  15
ATOM     15  C   UNL     1      47.242   4.198  15.923  0.00  0.00    +0.000 C 
BRANCH  15  16
ATOM     16  O   UNL     1      47.679   4.458  14.572  0.00  0.00    +0.000 OA
BRANCH  16  17
ATOM     17  C   UNL     1      46.628   4.582  13.692  0.00  0.00    +0.000 A 
ATOM     18  C   UNL     1      46.245   5.851  13.262  0.00  0.00    +0.000 A 
ATOM     19  N   UNL     1      45.229   6.066  12.379  0.00  0.00    +0.000 NA
ATOM     20  C   UNL     1      44.616   4.932  11.936  0.00  0.00    +0.000 A 
ATOM     21  C   UNL     1      44.996   3.665  12.369  0.00  0.00    +0.000 A 
ATOM     22  N   UNL     1      46.001   3.466  13.258  0.00  0.00    +0.000 NA
BRANCH  20  23
ATOM     23  C   UNL     1      43.509   5.056  10.944  0.00  0.00    +0.000 C 
ATOM     24  N   UNL     1      43.820   4.823   9.632  0.00  0.00    +0.000 N 
ATOM     25  O   UNL     1      42.370   5.349  11.283  0.00  0.00    +0.000 OA
ATOM     26  H   UNL     1      44.761   4.568   9.348  0.00  0.00    +0.000 HD
ATOM     27  H   UNL     1      43.088   4.889   8.942  0.00  0.00    +0.000 HD
ENDBRANCH  20  23
ENDBRANCH  16  17
ENDBRANCH  15  16
ENDBRANCH   2  15
TORSDOF 7
ENDMDL
MODEL 8
REMARK VINA RESULT:    -6.162      3.196      5.360
REMARK INTER + INTRA:          -9.554
REMARK INTER:                  -8.578
REMARK INTRA:                  -0.976
REMARK UNBOUND:                -0.871
REMARK  Name = 
REMARK  8 active torsions:
REMARK  status: ('A' for Active; 'I' for Inactive)
REMARK    1  A    between atoms: C_1  and  C_2
REMARK    2  A    between atoms: C_2  and  C_3
REMARK    3  A    between atoms: C_2  and  C_5
REMARK    4  A    between atoms: C_2  and  C_16
REMARK    5  A    between atoms: C_5  and  O_6
REMARK    6  A    between atoms: O_6  and  C_7
REMARK    7  A    between atoms: C_10  and  C_11
REMARK    8  A    between atoms: C_20  and  C_21
REMARK                            x       y       z     vdW  Elec       q    Type
REMARK                         _______ _______ _______ _____ _____    ______ ____
ROOT
ATOM      1  C   UNL     1      48.310   8.930  15.093  0.00  0.00    +0.000 C 
ATOM      2  C   UNL     1      48.934   7.514  15.054  0.00  0.00    +0.000 C 
ENDROOT
BRANCH   2   3
ATOM      3  C   UNL     1      48.648   6.675  16.312  0.00  0.00    +0.000 A 
ATOM      4  C   UNL     1      48.478   7.247  17.586  0.00  0.00    +0.000 A 
ATOM      5  C   UNL     1      48.232   6.450  18.706  0.00  0.00    +0.000 A 
ATOM      6  C   UNL     1      48.126   5.067  18.579  0.00  0.00    +0.000 A 
ATOM      7  C   UNL     1      48.268   4.463  17.326  0.00  0.00    +0.000 A 
ATOM      8  C   UNL     1      48.550   5.271  16.211  0.00  0.00    +0.000 A 
BRANCH   7   9
ATOM      9  C   UNL     1      48.089   2.975  17.150  0.00  0.00    +0.000 C 
ATOM     10  F   UNL     1      49.132   2.241  17.630  0.00  0.00    +0.000 F 
ATOM     11  F   UNL     1      46.982   2.513  17.796  0.00  0.00    +0.000 F 
ATOM     12  F   UNL     1      47.941   2.612  15.847  0.00  0.00    +0.000 F 
ENDBRANCH   7   9
ENDBRANCH   2   3
BRANCH   2  13
ATOM     13  C   UNL     1      50.434   7.707  14.905  0.00  0.00    +0.000 C 
ATOM     14  N   UNL     1      51.679   7.867  14.781  0.00  0.00    +0.000 NA
ENDBRANCH   2  13
BRANCH   2  15
ATOM     15  C   UNL     1      48.407   6.782  13.789  0.00  0.00    +0.000 C 
BRANCH  15  16
ATOM     16  O   UNL     1      47.034   7.131  13.508  0.00  0.00    +0.000 OA
BRANCH  16  17
ATOM     17  C   UNL     1      46.355   6.122  12.863  0.00  0.00    +0.000 A 
ATOM     18  C   UNL     1      46.321   4.850  13.432  0.00  0.00    +0.000 A 
ATOM     19  N   UNL     1      45.659   3.799  12.873  0.00  0.00    +0.000 NA
ATOM     20  C   UNL     1      45.016   4.091  11.707  0.00  0.00    +0.000 A 
ATOM     21  C   UNL     1      45.053   5.360  11.137  0.00  0.00    +0.000 A 
ATOM     22  N   UNL     1      45.727   6.395  11.698  0.00  0.00    +0.000 NA
BRANCH  20  23
ATOM     23  C   UNL     1      44.237   3.015  11.029  0.00  0.00    +0.000 C 
ATOM     24  N   UNL     1      44.881   2.303  10.053  0.00  0.00    +0.000 N 
ATOM     25  O   UNL     1      43.076   2.772  11.329  0.00  0.00    +0.000 OA
ATOM     26  H   UNL     1      45.847   2.493   9.809  0.00  0.00    +0.000 HD
ATOM     27  H   UNL     1      44.381   1.562   9.586  0.00  0.00    +0.000 HD
ENDBRANCH  20  23
ENDBRANCH  16  17
ENDBRANCH  15  16
ENDBRANCH   2  15
TORSDOF 7
ENDMDL
MODEL 9
REMARK VINA RESULT:    -5.945      4.813      7.222
REMARK INTER + INTRA:          -9.248
REMARK INTER:                  -8.247
REMARK INTRA:                  -1.002
REMARK UNBOUND:                -0.871
REMARK  Name = 
REMARK  8 active torsions:
REMARK  status: ('A' for Active; 'I' for Inactive)
REMARK    1  A    between atoms: C_1  and  C_2
REMARK    2  A    between atoms: C_2  and  C_3
REMARK    3  A    between atoms: C_2  and  C_5
REMARK    4  A    between atoms: C_2  and  C_16
REMARK    5  A    between atoms: C_5  and  O_6
REMARK    6  A    between atoms: O_6  and  C_7
REMARK    7  A    between atoms: C_10  and  C_11
REMARK    8  A    between atoms: C_20  and  C_21
REMARK                            x       y       z     vdW  Elec       q    Type
REMARK                         _______ _______ _______ _____ _____    ______ ____
ROOT
ATOM      1  C   UNL     1      44.130   5.416  13.035  0.00  0.00    +0.000 C 
ATOM      2  C   UNL     1      45.514   5.508  12.350  0.00  0.00    +0.000 C 
ENDROOT
BRANCH   2   3
ATOM      3  C   UNL     1      46.093   6.933  12.311  0.00  0.00    +0.000 A 
ATOM      4  C   UNL     1      45.316   8.078  12.565  0.00  0.00    +0.000 A 
ATOM      5  C   UNL     1      45.876   9.356  12.508  0.00  0.00    +0.000 A 
ATOM      6  C   UNL     1      47.227   9.522  12.219  0.00  0.00    +0.000 A 
ATOM      7  C   UNL     1      48.038   8.408  11.981  0.00  0.00    +0.000 A 
ATOM      8  C   UNL     1      47.457   7.128  12.007  0.00  0.00    +0.000 A 
BRANCH   7   9
ATOM      9  C   UNL     1      49.520   8.556  11.734  0.00  0.00    +0.000 C 
ATOM     10  F   UNL     1      50.266   8.533  12.873  0.00  0.00    +0.000 F 
ATOM     11  F   UNL     1      50.009   7.557  10.948  0.00  0.00    +0.000 F 
ATOM     12  F   UNL     1      49.835   9.719  11.100  0.00  0.00    +0.000 F 
ENDBRANCH   7   9
ENDBRANCH   2   3
BRANCH   2  13
ATOM     13  C   UNL     1      45.330   4.998  10.930  0.00  0.00    +0.000 C 
ATOM     14  N   UNL     1      45.176   4.574   9.752  0.00  0.00    +0.000 NA
ENDBRANCH   2  13
BRANCH   2  15
ATOM     15  C   UNL     1      46.490   4.552  13.090  0.00  0.00    +0.000 C 
BRANCH  15  16
ATOM     16  O   UNL     1      45.961   4.139  14.368  0.00  0.00    +0.000 OA
BRANCH  16  17
ATOM     17  C   UNL     1      46.866   4.303  15.392  0.00  0.00    +0.000 A 
ATOM     18  C   UNL     1      47.905   5.220  15.244  0.00  0.00    +0.000 A 
ATOM     19  N   UNL     1      48.833   5.459  16.212  0.00  0.00    +0.000 NA
ATOM     20  C   UNL     1      48.661   4.733  17.353  0.00  0.00    +0.000 A 
ATOM     21  C   UNL     1      47.627   3.814  17.498  0.00  0.00    +0.000 A 
ATOM     22  N   UNL     1      46.716   3.576  16.522  0.00  0.00    +0.000 NA
BRANCH  20  23
ATOM     23  C   UNL     1      49.609   4.941  18.486  0.00  0.00    +0.000 C 
ATOM     24  N   UNL     1      50.474   3.918  18.769  0.00  0.00    +0.000 N 
ATOM     25  O   UNL     1      49.622   5.979  19.134  0.00  0.00    +0.000 OA
ATOM     26  H   UNL     1      50.475   3.060  18.227  0.00  0.00    +0.000 HD
ATOM     27  H   UNL     1      51.133   4.037  19.522  0.00  0.00    +0.000 HD
ENDBRANCH  20  23
ENDBRANCH  16  17
ENDBRANCH  15  16
ENDBRANCH   2  15
TORSDOF 7
ENDMDL
