MODEL 1
REMARK VINA RESULT:    -7.395      0.000      0.000
REMARK INTER + INTRA:          -9.548
REMARK INTER:                  -8.908
REMARK INTRA:                  -0.640
REMARK UNBOUND:                -0.640
REMARK  Name = 
REMARK  6 active torsions:
REMARK  status: ('A' for Active; 'I' for Inactive)
REMARK    1  A    between atoms: C_1  and  C_2
REMARK    2  A    between atoms: C_2  and  C_3
REMARK    3  A    between atoms: C_2  and  N_4
REMARK    4  A    between atoms: C_2  and  C_5
REMARK    5  A    between atoms: C_8  and  C_9
REMARK    6  A    between atoms: C_9  and  N_10
REMARK                            x       y       z     vdW  Elec       q    Type
REMARK                         _______ _______ _______ _____ _____    ______ ____
ROOT
ATOM      1  C   UNL     1      46.072   2.952   7.845  0.00  0.00    +0.000 A 
ATOM      2  C   UNL     1      45.288   2.218   8.748  0.00  0.00    +0.000 A 
ATOM      3  C   UNL     1      44.511   2.866   9.711  0.00  0.00    +0.000 A 
ATOM      4  C   UNL     1      44.537   4.255   9.765  0.00  0.00    +0.000 A 
ATOM      5  N   UNL     1      45.288   4.994   8.911  0.00  0.00    +0.000 NA
ATOM      6  C   UNL     1      46.024   4.335   7.986  0.00  0.00    +0.000 A 
ENDROOT
BRANCH   1   8
ATOM      7  C   UNL     1      46.423   2.495   5.438  0.00  0.00    +0.000 C 
ATOM      8  C   UNL     1      47.008   2.281   6.844  0.00  0.00    +0.000 C 
ATOM      9  C   UNL     1      47.198   0.771   7.094  0.00  0.00    +0.000 C 
BRANCH   8  10
ATOM     10  N   UNL     1      48.352   2.886   6.873  0.00  0.00    +0.000 NA
ATOM     11  H   UNL     1      48.511   3.329   7.777  0.00  0.00    +0.000 HD
ATOM     12  H   UNL     1      48.396   3.636   6.181  0.00  0.00    +0.000 HD
ENDBRANCH   8  10
ENDBRANCH   1   8
BRANCH   4  13
ATOM     13  C   UNL     1      43.647   5.024  10.694  0.00  0.00    +0.000 C 
BRANCH  13  14
ATOM     14  N   UNL     1      44.353   5.847  11.660  0.00  0.00    +0.000 N 
ATOM     15  N   UNL     1      44.495   7.165  11.373  0.00  0.00    +0.000 NA
ATOM     16  N   UNL     1      45.695   7.542  11.793  0.00  0.00    +0.000 NA
ATOM     17  C   UNL     1      46.267   6.487  12.457  0.00  0.00    +0.000 A 
ATOM     18  C   UNL     1      47.527   6.328  13.021  0.00  0.00    +0.000 A 
ATOM     19  N   UNL     1      47.839   5.178  13.678  0.00  0.00    +0.000 NA
ATOM     20  C   UNL     1      46.901   4.203  13.770  0.00  0.00    +0.000 A 
ATOM     21  C   UNL     1      45.638   4.245  13.188  0.00  0.00    +0.000 A 
ATOM     22  C   UNL     1      45.367   5.427  12.501  0.00  0.00    +0.000 A 
ENDBRANCH  13  14
ENDBRANCH   4  13
TORSDOF 4
ENDMDL
MODEL 2
REMARK VINA RESULT:    -6.286      1.738      6.224
REMARK INTER + INTRA:          -8.213
REMARK INTER:                  -7.634
REMARK INTRA:                  -0.579
REMARK UNBOUND:                -0.640
REMARK  Name = 
REMARK  6 active torsions:
REMARK  status: ('A' for Active; 'I' for Inactive)
REMARK    1  A    between atoms: C_1  and  C_2
REMARK    2  A    between atoms: C_2  and  C_3
REMARK    3  A    between atoms: C_2  and  N_4
REMARK    4  A    between atoms: C_2  and  C_5
REMARK    5  A    between atoms: C_8  and  C_9
REMARK    6  A    between atoms: C_9  and  N_10
REMARK                            x       y       z     vdW  Elec       q    Type
REMARK                         _______ _______ _______ _____ _____    ______ ____
ROOT
ATOM      1  C   UNL     1      46.492   5.799  12.193  0.00  0.00    +0.000 A 
ATOM      2  C   UNL     1      46.641   6.348  10.911  0.00  0.00    +0.000 A 
ATOM      3  C   UNL     1      45.923   5.837   9.827  0.00  0.00    +0.000 A 
ATOM      4  C   UNL     1      45.063   4.766  10.041  0.00  0.00    +0.000 A 
ATOM      5  N   UNL     1      44.901   4.209  11.266  0.00  0.00    +0.000 NA
ATOM      6  C   UNL     1      45.606   4.731  12.296  0.00  0.00    +0.000 A 
ENDROOT
BRANCH   1   8
ATOM      7  C   UNL     1      48.758   6.524  12.877  0.00  0.00    +0.000 C 
ATOM      8  C   UNL     1      47.329   6.263  13.383  0.00  0.00    +0.000 C 
ATOM      9  C   UNL     1      47.373   5.243  14.538  0.00  0.00    +0.000 C 
BRANCH   8  10
ATOM     10  N   UNL     1      46.811   7.521  13.949  0.00  0.00    +0.000 NA
ATOM     11  H   UNL     1      45.812   7.431  14.134  0.00  0.00    +0.000 HD
ATOM     12  H   UNL     1      46.902   8.263  13.253  0.00  0.00    +0.000 HD
ENDBRANCH   8  10
ENDBRANCH   1   8
BRANCH   4  13
ATOM     13  C   UNL     1      44.178   4.237   8.953  0.00  0.00    +0.000 C 
BRANCH  13  14
ATOM     14  N   UNL     1      44.636   2.996   8.356  0.00  0.00    +0.000 N 
ATOM     15  N   UNL     1      44.389   1.847   9.034  0.00  0.00    +0.000 NA
ATOM     16  N   UNL     1      45.438   1.051   8.875  0.00  0.00    +0.000 NA
ATOM     17  C   UNL     1      46.299   1.651   7.991  0.00  0.00    +0.000 A 
ATOM     18  C   UNL     1      47.561   1.282   7.542  0.00  0.00    +0.000 A 
ATOM     19  N   UNL     1      48.201   2.040   6.611  0.00  0.00    +0.000 NA
ATOM     20  C   UNL     1      47.583   3.150   6.135  0.00  0.00    +0.000 A 
ATOM     21  C   UNL     1      46.352   3.631   6.565  0.00  0.00    +0.000 A 
ATOM     22  C   UNL     1      45.741   2.843   7.540  0.00  0.00    +0.000 A 
ENDBRANCH  13  14
ENDBRANCH   4  13
TORSDOF 4
ENDMDL
MODEL 3
REMARK VINA RESULT:    -6.262      2.408      6.902
REMARK INTER + INTRA:          -8.184
REMARK INTER:                  -7.763
REMARK INTRA:                  -0.420
REMARK UNBOUND:                -0.640
REMARK  Name = 
REMARK  6 active torsions:
REMARK  status: ('A' for Active; 'I' for Inactive)
REMARK    1  A    between atoms: C_1  and  C_2
REMARK    2  A    between atoms: C_2  and  C_3
REMARK    3  A    between atoms: C_2  and  N_4
REMARK    4  A    between atoms: C_2  and  C_5
REMARK    5  A    between atoms: C_8  and  C_9
REMARK    6  A    between atoms: C_9  and  N_10
REMARK                            x       y       z     vdW  Elec       q    Type
REMARK                         _______ _______ _______ _____ _____    ______ ____
ROOT
ATOM      1  C   UNL     1      47.817   4.481  16.019  0.00  0.00    +0.000 A 
ATOM      2  C   UNL     1      48.352   5.772  15.904  0.00  0.00    +0.000 A 
ATOM      3  C   UNL     1      48.259   6.480  14.704  0.00  0.00    +0.000 A 
ATOM      4  C   UNL     1      47.633   5.876  13.619  0.00  0.00    +0.000 A 
ATOM      5  N   UNL     1      47.111   4.627  13.695  0.00  0.00    +0.000 NA
ATOM      6  C   UNL     1      47.212   3.971  14.874  0.00  0.00    +0.000 A 
ENDROOT
BRANCH   1   8
ATOM      7  C   UNL     1      48.311   4.589  18.442  0.00  0.00    +0.000 C 
ATOM      8  C   UNL     1      47.984   3.636  17.279  0.00  0.00    +0.000 C 
ATOM      9  C   UNL     1      49.092   2.570  17.164  0.00  0.00    +0.000 C 
BRANCH   8  10
ATOM     10  N   UNL     1      46.741   2.919  17.617  0.00  0.00    +0.000 NA
ATOM     11  H   UNL     1      46.608   2.917  18.628  0.00  0.00    +0.000 HD
ATOM     12  H   UNL     1      46.835   1.940  17.344  0.00  0.00    +0.000 HD
ENDBRANCH   8  10
ENDBRANCH   1   8
BRANCH   4  13
ATOM     13  C   UNL     1      47.395   6.613  12.336  0.00  0.00    +0.000 C 
BRANCH  13  14
ATOM     14  N   UNL     1      46.017   6.598  11.880  0.00  0.00    +0.000 N 
ATOM     15  N   UNL     1      45.052   6.859  12.797  0.00  0.00    +0.000 NA
ATOM     16  N   UNL     1      44.016   6.076  12.527  0.00  0.00    +0.000 NA
ATOM     17  C   UNL     1      44.281   5.404  11.360  0.00  0.00    +0.000 A 
ATOM     18  C   UNL     1      43.570   4.421  10.683  0.00  0.00    +0.000 A 
ATOM     19  N   UNL     1      44.034   3.940   9.498  0.00  0.00    +0.000 NA
ATOM     20  C   UNL     1      45.192   4.439   8.998  0.00  0.00    +0.000 A 
ATOM     21  C   UNL     1      46.002   5.377   9.630  0.00  0.00    +0.000 A 
ATOM     22  C   UNL     1      45.507   5.824  10.854  0.00  0.00    +0.000 A 
ENDBRANCH  13  14
ENDBRANCH   4  13
TORSDOF 4
ENDMDL
MODEL 4
REMARK VINA RESULT:    -6.261      1.841      6.118
REMARK INTER + INTRA:          -8.183
REMARK INTER:                  -7.565
REMARK INTRA:                  -0.618
REMARK UNBOUND:                -0.640
REMARK  Name = 
REMARK  6 active torsions:
REMARK  status: ('A' for Active; 'I' for Inactive)
REMARK    1  A    between atoms: C_1  and  C_2
REMARK    2  A    between atoms: C_2  and  C_3
REMARK    3  A    between atoms: C_2  and  N_4
REMARK    4  A    between atoms: C_2  and  C_5
REMARK    5  A    between atoms: C_8  and  C_9
REMARK    6  A    between atoms: C_9  and  N_10
REMARK                            x       y       z     vdW  Elec       q    Type
REMARK                         _______ _______ _______ _____ _____    ______ ____
ROOT
ATOM      1  C   UNL     1      46.963   6.579  13.241  0.00  0.00    +0.000 A 
ATOM      2  C   UNL     1      46.587   7.287  12.091  0.00  0.00    +0.000 A 
ATOM      3  C   UNL     1      45.429   6.945  11.388  0.00  0.00    +0.000 A 
ATOM      4  C   UNL     1      44.660   5.881  11.845  0.00  0.00    +0.000 A 
ATOM      5  N   UNL     1      45.000   5.172  12.950  0.00  0.00    +0.000 NA
ATOM      6  C   UNL     1      46.124   5.533  13.611  0.00  0.00    +0.000 A 
ENDROOT
BRANCH   1   8
ATOM      7  C   UNL     1      48.339   5.902  15.185  0.00  0.00    +0.000 C 
ATOM      8  C   UNL     1      48.270   6.856  13.981  0.00  0.00    +0.000 C 
ATOM      9  C   UNL     1      48.401   8.312  14.473  0.00  0.00    +0.000 C 
BRANCH   8  10
ATOM     10  N   UNL     1      49.441   6.593  13.125  0.00  0.00    +0.000 NA
ATOM     11  H   UNL     1      49.452   7.249  12.344  0.00  0.00    +0.000 HD
ATOM     12  H   UNL     1      49.349   5.664  12.710  0.00  0.00    +0.000 HD
ENDBRANCH   8  10
ENDBRANCH   1   8
BRANCH   4  13
ATOM     13  C   UNL     1      43.349   5.527  11.212  0.00  0.00    +0.000 C 
BRANCH  13  14
ATOM     14  N   UNL     1      43.326   4.227  10.565  0.00  0.00    +0.000 N 
ATOM     15  N   UNL     1      42.951   3.162  11.316  0.00  0.00    +0.000 NA
ATOM     16  N   UNL     1      43.696   2.128  10.950  0.00  0.00    +0.000 NA
ATOM     17  C   UNL     1      44.462   2.511   9.878  0.00  0.00    +0.000 A 
ATOM     18  C   UNL     1      45.452   1.842   9.168  0.00  0.00    +0.000 A 
ATOM     19  N   UNL     1      46.039   2.437   8.094  0.00  0.00    +0.000 NA
ATOM     20  C   UNL     1      45.636   3.681   7.735  0.00  0.00    +0.000 A 
ATOM     21  C   UNL     1      44.699   4.451   8.416  0.00  0.00    +0.000 A 
ATOM     22  C   UNL     1      44.142   3.819   9.527  0.00  0.00    +0.000 A 
ENDBRANCH  13  14
ENDBRANCH   4  13
TORSDOF 4
ENDMDL
MODEL 5
REMARK VINA RESULT:    -5.677      4.224      7.981
REMARK INTER + INTRA:          -7.479
REMARK INTER:                  -6.948
REMARK INTRA:                  -0.531
REMARK UNBOUND:                -0.640
REMARK  Name = 
REMARK  6 active torsions:
REMARK  status: ('A' for Active; 'I' for Inactive)
REMARK    1  A    between atoms: C_1  and  C_2
REMARK    2  A    between atoms: C_2  and  C_3
REMARK    3  A    between atoms: C_2  and  N_4
REMARK    4  A    between atoms: C_2  and  C_5
REMARK    5  A    between atoms: C_8  and  C_9
REMARK    6  A    between atoms: C_9  and  N_10
REMARK                            x       y       z     vdW  Elec       q    Type
REMARK                         _______ _______ _______ _____ _____    ______ ____
ROOT
ATOM      1  C   UNL     1      48.168   4.567  17.659  0.00  0.00    +0.000 A 
ATOM      2  C   UNL     1      48.320   5.626  16.752  0.00  0.00    +0.000 A 
ATOM      3  C   UNL     1      47.883   5.503  15.430  0.00  0.00    +0.000 A 
ATOM      4  C   UNL     1      47.302   4.306  15.028  0.00  0.00    +0.000 A 
ATOM      5  N   UNL     1      47.146   3.262  15.878  0.00  0.00    +0.000 NA
ATOM      6  C   UNL     1      47.573   3.415  17.153  0.00  0.00    +0.000 A 
ENDROOT
BRANCH   1   8
ATOM      7  C   UNL     1      48.067   5.826  19.788  0.00  0.00    +0.000 C 
ATOM      8  C   UNL     1      48.718   4.625  19.081  0.00  0.00    +0.000 C 
ATOM      9  C   UNL     1      50.253   4.766  19.141  0.00  0.00    +0.000 C 
BRANCH   8  10
ATOM     10  N   UNL     1      48.375   3.410  19.842  0.00  0.00    +0.000 NA
ATOM     11  H   UNL     1      48.783   2.592  19.389  0.00  0.00    +0.000 HD
ATOM     12  H   UNL     1      47.364   3.272  19.813  0.00  0.00    +0.000 HD
ENDBRANCH   8  10
ENDBRANCH   1   8
BRANCH   4  13
ATOM     13  C   UNL     1      46.709   4.138  13.662  0.00  0.00    +0.000 C 
BRANCH  13  14
ATOM     14  N   UNL     1      45.375   4.691  13.513  0.00  0.00    +0.000 N 
ATOM     15  N   UNL     1      44.345   3.815  13.397  0.00  0.00    +0.000 NA
ATOM     16  N   UNL     1      43.480   4.323  12.529  0.00  0.00    +0.000 NA
ATOM     17  C   UNL     1      43.906   5.582  12.188  0.00  0.00    +0.000 A 
ATOM     18  C   UNL     1      43.412   6.504  11.274  0.00  0.00    +0.000 A 
ATOM     19  N   UNL     1      43.999   7.725  11.153  0.00  0.00    +0.000 NA
ATOM     20  C   UNL     1      45.064   8.019  11.940  0.00  0.00    +0.000 A 
ATOM     21  C   UNL     1      45.665   7.143  12.838  0.00  0.00    +0.000 A 
ATOM     22  C   UNL     1      45.053   5.893  12.912  0.00  0.00    +0.000 A 
ENDBRANCH  13  14
ENDBRANCH   4  13
TORSDOF 4
ENDMDL
MODEL 6
REMARK VINA RESULT:    -5.592      3.454      5.994
REMARK INTER + INTRA:          -7.376
REMARK INTER:                  -7.262
REMARK INTRA:                  -0.114
REMARK UNBOUND:                -0.640
REMARK  Name = 
REMARK  6 active torsions:
REMARK  status: ('A' for Active; 'I' for Inactive)
REMARK    1  A    between atoms: C_1  and  C_2
REMARK    2  A    between atoms: C_2  and  C_3
REMARK    3  A    between atoms: C_2  and  N_4
REMARK    4  A    between atoms: C_2  and  C_5
REMARK    5  A    between atoms: C_8  and  C_9
REMARK    6  A    between atoms: C_9  and  N_10
REMARK                            x       y       z     vdW  Elec       q    Type
REMARK                         _______ _______ _______ _____ _____    ______ ____
ROOT
ATOM      1  C   UNL     1      44.703   4.432  12.307  0.00  0.00    +0.000 A 
ATOM      2  C   UNL     1      45.646   3.434  12.590  0.00  0.00    +0.000 A 
ATOM      3  C   UNL     1      46.738   3.697  13.422  0.00  0.00    +0.000 A 
ATOM      4  C   UNL     1      46.877   4.972  13.957  0.00  0.00    +0.000 A 
ATOM      5  N   UNL     1      45.987   5.961  13.697  0.00  0.00    +0.000 NA
ATOM      6  C   UNL     1      44.938   5.672  12.894  0.00  0.00    +0.000 A 
ENDROOT
BRANCH   1   8
ATOM      7  C   UNL     1      44.129   4.291   9.903  0.00  0.00    +0.000 C 
ATOM      8  C   UNL     1      43.553   4.215  11.327  0.00  0.00    +0.000 C 
ATOM      9  C   UNL     1      42.416   5.247  11.475  0.00  0.00    +0.000 C 
BRANCH   8  10
ATOM     10  N   UNL     1      42.942   2.885  11.499  0.00  0.00    +0.000 NA
ATOM     11  H   UNL     1      43.422   2.378  12.241  0.00  0.00    +0.000 HD
ATOM     12  H   UNL     1      43.085   2.339  10.648  0.00  0.00    +0.000 HD
ENDBRANCH   8  10
ENDBRANCH   1   8
BRANCH   4  13
ATOM     13  C   UNL     1      47.957   5.298  14.944  0.00  0.00    +0.000 C 
BRANCH  13  14
ATOM     14  N   UNL     1      48.006   4.414  16.095  0.00  0.00    +0.000 N 
ATOM     15  N   UNL     1      46.837   3.871  16.517  0.00  0.00    +0.000 NA
ATOM     16  N   UNL     1      46.867   3.829  17.842  0.00  0.00    +0.000 NA
ATOM     17  C   UNL     1      48.112   4.234  18.254  0.00  0.00    +0.000 A 
ATOM     18  C   UNL     1      48.639   4.440  19.523  0.00  0.00    +0.000 A 
ATOM     19  N   UNL     1      49.942   4.805  19.668  0.00  0.00    +0.000 NA
ATOM     20  C   UNL     1      50.705   4.959  18.557  0.00  0.00    +0.000 A 
ATOM     21  C   UNL     1      50.253   4.834  17.248  0.00  0.00    +0.000 A 
ATOM     22  C   UNL     1      48.907   4.488  17.141  0.00  0.00    +0.000 A 
ENDBRANCH  13  14
ENDBRANCH   4  13
TORSDOF 4
ENDMDL
MODEL 7
REMARK VINA RESULT:    -5.547      2.789      5.176
REMARK INTER + INTRA:          -7.322
REMARK INTER:                  -6.800
REMARK INTRA:                  -0.521
REMARK UNBOUND:                -0.640
REMARK  Name = 
REMARK  6 active torsions:
REMARK  status: ('A' for Active; 'I' for Inactive)
REMARK    1  A    between atoms: C_1  and  C_2
REMARK    2  A    between atoms: C_2  and  C_3
REMARK    3  A    between atoms: C_2  and  N_4
REMARK    4  A    between atoms: C_2  and  C_5
REMARK    5  A    between atoms: C_8  and  C_9
REMARK    6  A    between atoms: C_9  and  N_10
REMARK                            x       y       z     vdW  Elec       q    Type
REMARK                         _______ _______ _______ _____ _____    ______ ____
ROOT
ATOM      1  C   UNL     1      45.145   4.666  11.216  0.00  0.00    +0.000 A 
ATOM      2  C   UNL     1      45.692   5.822  10.641  0.00  0.00    +0.000 A 
ATOM      3  C   UNL     1      46.378   6.754  11.424  0.00  0.00    +0.000 A 
ATOM      4  C   UNL     1      46.500   6.518  12.788  0.00  0.00    +0.000 A 
ATOM      5  N   UNL     1      45.977   5.414  13.376  0.00  0.00    +0.000 NA
ATOM      6  C   UNL     1      45.325   4.528  12.589  0.00  0.00    +0.000 A 
ENDROOT
BRANCH   1   8
ATOM      7  C   UNL     1      43.322   3.000  11.387  0.00  0.00    +0.000 C 
ATOM      8  C   UNL     1      44.306   3.673  10.415  0.00  0.00    +0.000 C 
ATOM      9  C   UNL     1      45.144   2.592   9.704  0.00  0.00    +0.000 C 
BRANCH   8  10
ATOM     10  N   UNL     1      43.519   4.352   9.370  0.00  0.00    +0.000 NA
ATOM     11  H   UNL     1      42.582   4.553   9.720  0.00  0.00    +0.000 HD
ATOM     12  H   UNL     1      43.394   3.717   8.580  0.00  0.00    +0.000 HD
ENDBRANCH   8  10
ENDBRANCH   1   8
BRANCH   4  13
ATOM     13  C   UNL     1      47.315   7.413  13.673  0.00  0.00    +0.000 C 
BRANCH  13  14
ATOM     14  N   UNL     1      48.729   7.084  13.721  0.00  0.00    +0.000 N 
ATOM     15  N   UNL     1      49.220   6.608  14.892  0.00  0.00    +0.000 NA
ATOM     16  N   UNL     1      50.437   7.110  15.052  0.00  0.00    +0.000 NA
ATOM     17  C   UNL     1      50.764   7.809  13.917  0.00  0.00    +0.000 A 
ATOM     18  C   UNL     1      51.877   8.578  13.598  0.00  0.00    +0.000 A 
ATOM     19  N   UNL     1      51.984   9.140  12.364  0.00  0.00    +0.000 NA
ATOM     20  C   UNL     1      50.993   8.932  11.462  0.00  0.00    +0.000 A 
ATOM     21  C   UNL     1      49.818   8.230  11.707  0.00  0.00    +0.000 A 
ATOM     22  C   UNL     1      49.732   7.694  12.991  0.00  0.00    +0.000 A 
ENDBRANCH  13  14
ENDBRANCH   4  13
TORSDOF 4
ENDMDL
MODEL 8
REMARK VINA RESULT:    -5.529      2.056      3.813
REMARK INTER + INTRA:          -7.301
REMARK INTER:                  -6.780
REMARK INTRA:                  -0.521
REMARK UNBOUND:                -0.640
REMARK  Name = 
REMARK  6 active torsions:
REMARK  status: ('A' for Active; 'I' for Inactive)
REMARK    1  A    between atoms: C_1  and  C_2
REMARK    2  A    between atoms: C_2  and  C_3
REMARK    3  A    between atoms: C_2  and  N_4
REMARK    4  A    between atoms: C_2  and  C_5
REMARK    5  A    between atoms: C_8  and  C_9
REMARK    6  A    between atoms: C_9  and  N_10
REMARK                            x       y       z     vdW  Elec       q    Type
REMARK                         _______ _______ _______ _____ _____    ______ ____
ROOT
ATOM      1  C   UNL     1      45.394   3.793   9.760  0.00  0.00    +0.000 A 
ATOM      2  C   UNL     1      45.689   5.164   9.795  0.00  0.00    +0.000 A 
ATOM      3  C   UNL     1      45.827   5.834  11.013  0.00  0.00    +0.000 A 
ATOM      4  C   UNL     1      45.657   5.118  12.192  0.00  0.00    +0.000 A 
ATOM      5  N   UNL     1      45.365   3.794  12.193  0.00  0.00    +0.000 NA
ATOM      6  C   UNL     1      45.244   3.173  10.997  0.00  0.00    +0.000 A 
ENDROOT
BRANCH   1   8
ATOM      7  C   UNL     1      44.614   1.645   8.810  0.00  0.00    +0.000 C 
ATOM      8  C   UNL     1      45.138   3.046   8.454  0.00  0.00    +0.000 C 
ATOM      9  C   UNL     1      46.392   2.913   7.566  0.00  0.00    +0.000 C 
BRANCH   8  10
ATOM     10  N   UNL     1      44.112   3.720   7.638  0.00  0.00    +0.000 NA
ATOM     11  H   UNL     1      43.918   4.644   8.023  0.00  0.00    +0.000 HD
ATOM     12  H   UNL     1      43.237   3.199   7.705  0.00  0.00    +0.000 HD
ENDBRANCH   8  10
ENDBRANCH   1   8
BRANCH   4  13
ATOM     13  C   UNL     1      45.899   5.740  13.534  0.00  0.00    +0.000 C 
BRANCH  13  14
ATOM     14  N   UNL     1      47.282   5.700  13.975  0.00  0.00    +0.000 N 
ATOM     15  N   UNL     1      47.580   4.896  15.026  0.00  0.00    +0.000 NA
ATOM     16  N   UNL     1      48.494   5.514  15.761  0.00  0.00    +0.000 NA
ATOM     17  C   UNL     1      48.865   6.661  15.105  0.00  0.00    +0.000 A 
ATOM     18  C   UNL     1      49.722   7.693  15.469  0.00  0.00    +0.000 A 
ATOM     19  N   UNL     1      49.961   8.716  14.604  0.00  0.00    +0.000 NA
ATOM     20  C   UNL     1      49.352   8.704  13.392  0.00  0.00    +0.000 A 
ATOM     21  C   UNL     1      48.435   7.750  12.964  0.00  0.00    +0.000 A 
ATOM     22  C   UNL     1      48.195   6.734  13.888  0.00  0.00    +0.000 A 
ENDBRANCH  13  14
ENDBRANCH   4  13
TORSDOF 4
ENDMDL
MODEL 9
REMARK VINA RESULT:    -5.435      2.263      6.706
REMARK INTER + INTRA:          -7.187
REMARK INTER:                  -6.989
REMARK INTRA:                  -0.198
REMARK UNBOUND:                -0.640
REMARK  Name = 
REMARK  6 active torsions:
REMARK  status: ('A' for Active; 'I' for Inactive)
REMARK    1  A    between atoms: C_1  and  C_2
REMARK    2  A    between atoms: C_2  and  C_3
REMARK    3  A    between atoms: C_2  and  N_4
REMARK    4  A    between atoms: C_2  and  C_5
REMARK    5  A    between atoms: C_8  and  C_9
REMARK    6  A    between atoms: C_9  and  N_10
REMARK                            x       y       z     vdW  Elec       q    Type
REMARK                         _______ _______ _______ _____ _____    ______ ____
ROOT
ATOM      1  C   UNL     1      47.744   8.150  13.571  0.00  0.00    +0.000 A 
ATOM      2  C   UNL     1      46.388   8.066  13.222  0.00  0.00    +0.000 A 
ATOM      3  C   UNL     1      45.761   6.824  13.084  0.00  0.00    +0.000 A 
ATOM      4  C   UNL     1      46.510   5.672  13.291  0.00  0.00    +0.000 A 
ATOM      5  N   UNL     1      47.824   5.719  13.623  0.00  0.00    +0.000 NA
ATOM      6  C   UNL     1      48.399   6.936  13.755  0.00  0.00    +0.000 A 
ENDROOT
BRANCH   1   8
ATOM      7  C   UNL     1      49.703   9.383  12.695  0.00  0.00    +0.000 C 
ATOM      8  C   UNL     1      48.489   9.480  13.635  0.00  0.00    +0.000 C 
ATOM      9  C   UNL     1      48.969   9.848  15.053  0.00  0.00    +0.000 C 
BRANCH   8  10
ATOM     10  N   UNL     1      47.645  10.595  13.172  0.00  0.00    +0.000 NA
ATOM     11  H   UNL     1      46.775  10.231  12.784  0.00  0.00    +0.000 HD
ATOM     12  H   UNL     1      48.115  11.074  12.402  0.00  0.00    +0.000 HD
ENDBRANCH   8  10
ENDBRANCH   1   8
BRANCH   4  13
ATOM     13  C   UNL     1      45.883   4.311  13.272  0.00  0.00    +0.000 C 
BRANCH  13  14
ATOM     14  N   UNL     1      44.819   4.153  12.296  0.00  0.00    +0.000 N 
ATOM     15  N   UNL     1      43.807   3.306  12.607  0.00  0.00    +0.000 NA
ATOM     16  N   UNL     1      43.451   2.677  11.495  0.00  0.00    +0.000 NA
ATOM     17  C   UNL     1      44.160   3.218  10.452  0.00  0.00    +0.000 A 
ATOM     18  C   UNL     1      44.219   2.880   9.106  0.00  0.00    +0.000 A 
ATOM     19  N   UNL     1      44.979   3.617   8.252  0.00  0.00    +0.000 NA
ATOM     20  C   UNL     1      45.667   4.679   8.740  0.00  0.00    +0.000 A 
ATOM     21  C   UNL     1      45.718   5.058  10.077  0.00  0.00    +0.000 A 
ATOM     22  C   UNL     1      44.950   4.262  10.924  0.00  0.00    +0.000 A 
ENDBRANCH  13  14
ENDBRANCH   4  13
TORSDOF 4
ENDMDL
