MODEL 1
REMARK VINA RESULT:    -8.876      0.000      0.000
REMARK INTER + INTRA:         -13.409
REMARK INTER:                 -12.508
REMARK INTRA:                  -0.901
REMARK UNBOUND:                -0.901
REMARK  Name = 
REMARK  7 active torsions:
REMARK  status: ('A' for Active; 'I' for Inactive)
REMARK    1  A    between atoms: C_2  and  C_4
REMARK    2  A    between atoms: C_7  and  N_8
REMARK    3  A    between atoms: N_8  and  C_9
REMARK    4  A    between atoms: C_9  and  C_10
REMARK    5  A    between atoms: C_10  and  C_13
REMARK    6  A    between atoms: C_18  and  O_19
REMARK    7  A    between atoms: O_19  and  C_20
REMARK                            x       y       z     vdW  Elec       q    Type
REMARK                         _______ _______ _______ _____ _____    ______ ____
ROOT
ATOM      1  C   UNL     1      43.246   5.077  12.508  0.00  0.00    +0.000 C 
ATOM      2  F   UNL     1      42.466   6.154  12.198  0.00  0.00    +0.000 F 
ATOM      3  F   UNL     1      42.635   4.486  13.582  0.00  0.00    +0.000 F 
ENDROOT
BRANCH   1   4
ATOM      4  C   UNL     1      44.675   5.486  12.822  0.00  0.00    +0.000 A 
ATOM      5  C   UNL     1      45.188   6.719  12.390  0.00  0.00    +0.000 A 
ATOM      6  C   UNL     1      46.511   7.070  12.678  0.00  0.00    +0.000 A 
ATOM      7  C   UNL     1      47.330   6.193  13.387  0.00  0.00    +0.000 A 
ATOM      8  F   UNL     1      48.585   6.578  13.654  0.00  0.00    +0.000 F 
ATOM      9  C   UNL     1      46.844   4.960  13.816  0.00  0.00    +0.000 A 
ATOM     10  C   UNL     1      45.516   4.619  13.538  0.00  0.00    +0.000 A 
BRANCH   9  11
ATOM     11  O   UNL     1      47.531   4.015  14.534  0.00  0.00    +0.000 OA
BRANCH  11  12
ATOM     12  C   UNL     1      47.417   3.993  15.973  0.00  0.00    +0.000 C 
ATOM     13  C   UNL     1      48.307   4.944  16.787  0.00  0.00    +0.000 C 
ATOM     14  O   UNL     1      48.826   3.851  17.584  0.00  0.00    +0.000 OA
ATOM     15  C   UNL     1      48.242   2.897  16.665  0.00  0.00    +0.000 C 
ENDBRANCH  11  12
ENDBRANCH   9  11
ENDBRANCH   1   4
BRANCH   1  16
ATOM     16  C   UNL     1      43.212   4.072  11.325  0.00  0.00    +0.000 C 
BRANCH  16  17
ATOM     17  N   UNL     1      43.743   4.631  10.060  0.00  0.00    +0.000 N 
ATOM     18  H   UNL     1      43.002   5.006   9.466  0.00  0.00    +0.000 HD
BRANCH  17  22
ATOM     19  C   UNL     1      46.409   2.298   7.866  0.00  0.00    +0.000 A 
ATOM     20  C   UNL     1      46.428   3.667   7.662  0.00  0.00    +0.000 A 
ATOM     21  C   UNL     1      45.554   4.461   8.406  0.00  0.00    +0.000 A 
ATOM     22  C   UNL     1      44.699   3.893   9.352  0.00  0.00    +0.000 A 
ATOM     23  C   UNL     1      44.742   2.495   9.443  0.00  0.00    +0.000 A 
ATOM     24  N   UNL     1      45.576   1.679   8.744  0.00  0.00    +0.000 NA
BRANCH  19  26
ATOM     25  N   UNL     1      48.400   2.061   6.500  0.00  0.00    +0.000 N 
ATOM     26  C   UNL     1      47.328   1.428   7.065  0.00  0.00    +0.000 C 
ATOM     27  O   UNL     1      47.144   0.225   6.924  0.00  0.00    +0.000 OA
ATOM     28  H   UNL     1      49.073   1.524   5.972  0.00  0.00    +0.000 HD
ATOM     29  H   UNL     1      48.538   3.052   6.659  0.00  0.00    +0.000 HD
ENDBRANCH  19  26
ENDBRANCH  17  22
ENDBRANCH  16  17
ENDBRANCH   1  16
TORSDOF 7
ENDMDL
MODEL 2
REMARK VINA RESULT:    -7.965      1.450      1.673
REMARK INTER + INTRA:         -12.125
REMARK INTER:                 -11.045
REMARK INTRA:                  -1.080
REMARK UNBOUND:                -0.901
REMARK  Name = 
REMARK  7 active torsions:
REMARK  status: ('A' for Active; 'I' for Inactive)
REMARK    1  A    between atoms: C_2  and  C_4
REMARK    2  A    between atoms: C_7  and  N_8
REMARK    3  A    between atoms: N_8  and  C_9
REMARK    4  A    between atoms: C_9  and  C_10
REMARK    5  A    between atoms: C_10  and  C_13
REMARK    6  A    between atoms: C_18  and  O_19
REMARK    7  A    between atoms: O_19  and  C_20
REMARK                            x       y       z     vdW  Elec       q    Type
REMARK                         _______ _______ _______ _____ _____    ______ ____
ROOT
ATOM      1  C   UNL     1      44.230   4.607  12.536  0.00  0.00    +0.000 C 
ATOM      2  F   UNL     1      43.324   4.947  13.500  0.00  0.00    +0.000 F 
ATOM      3  F   UNL     1      44.570   3.307  12.802  0.00  0.00    +0.000 F 
ENDROOT
BRANCH   1   4
ATOM      4  C   UNL     1      45.440   5.525  12.549  0.00  0.00    +0.000 A 
ATOM      5  C   UNL     1      45.553   6.590  11.642  0.00  0.00    +0.000 A 
ATOM      6  C   UNL     1      46.683   7.415  11.664  0.00  0.00    +0.000 A 
ATOM      7  C   UNL     1      47.706   7.178  12.579  0.00  0.00    +0.000 A 
ATOM      8  F   UNL     1      48.762   8.004  12.574  0.00  0.00    +0.000 F 
ATOM      9  C   UNL     1      47.620   6.119  13.481  0.00  0.00    +0.000 A 
ATOM     10  C   UNL     1      46.482   5.306  13.466  0.00  0.00    +0.000 A 
BRANCH   9  11
ATOM     11  O   UNL     1      48.539   5.785  14.441  0.00  0.00    +0.000 OA
BRANCH  11  12
ATOM     12  C   UNL     1      48.699   6.633  15.598  0.00  0.00    +0.000 C 
ATOM     13  C   UNL     1      50.125   6.963  16.067  0.00  0.00    +0.000 C 
ATOM     14  O   UNL     1      49.842   6.495  17.409  0.00  0.00    +0.000 OA
ATOM     15  C   UNL     1      48.604   5.902  16.947  0.00  0.00    +0.000 C 
ENDBRANCH  11  12
ENDBRANCH   9  11
ENDBRANCH   1   4
BRANCH   1  16
ATOM     16  C   UNL     1      43.530   4.645  11.150  0.00  0.00    +0.000 C 
BRANCH  16  17
ATOM     17  N   UNL     1      43.609   3.362  10.413  0.00  0.00    +0.000 N 
ATOM     18  H   UNL     1      43.482   2.558  11.029  0.00  0.00    +0.000 HD
BRANCH  17  22
ATOM     19  C   UNL     1      46.543   2.675   7.535  0.00  0.00    +0.000 A 
ATOM     20  C   UNL     1      46.070   3.967   7.680  0.00  0.00    +0.000 A 
ATOM     21  C   UNL     1      45.102   4.215   8.655  0.00  0.00    +0.000 A 
ATOM     22  C   UNL     1      44.640   3.189   9.482  0.00  0.00    +0.000 A 
ATOM     23  C   UNL     1      45.163   1.916   9.215  0.00  0.00    +0.000 A 
ATOM     24  N   UNL     1      46.108   1.625   8.281  0.00  0.00    +0.000 NA
BRANCH  19  26
ATOM     25  N   UNL     1      47.476   3.137   5.343  0.00  0.00    +0.000 N 
ATOM     26  C   UNL     1      47.570   2.387   6.482  0.00  0.00    +0.000 C 
ATOM     27  O   UNL     1      48.445   1.542   6.627  0.00  0.00    +0.000 OA
ATOM     28  H   UNL     1      48.157   3.011   4.608  0.00  0.00    +0.000 HD
ATOM     29  H   UNL     1      46.757   3.847   5.268  0.00  0.00    +0.000 HD
ENDBRANCH  19  26
ENDBRANCH  17  22
ENDBRANCH  16  17
ENDBRANCH   1  16
TORSDOF 7
ENDMDL
MODEL 3
REMARK VINA RESULT:    -7.757      2.708      4.199
REMARK INTER + INTRA:         -11.832
REMARK INTER:                 -10.976
REMARK INTRA:                  -0.855
REMARK UNBOUND:                -0.901
REMARK  Name = 
REMARK  7 active torsions:
REMARK  status: ('A' for Active; 'I' for Inactive)
REMARK    1  A    between atoms: C_2  and  C_4
REMARK    2  A    between atoms: C_7  and  N_8
REMARK    3  A    between atoms: N_8  and  C_9
REMARK    4  A    between atoms: C_9  and  C_10
REMARK    5  A    between atoms: C_10  and  C_13
REMARK    6  A    between atoms: C_18  and  O_19
REMARK    7  A    between atoms: O_19  and  C_20
REMARK                            x       y       z     vdW  Elec       q    Type
REMARK                         _______ _______ _______ _____ _____    ______ ____
ROOT
ATOM      1  C   UNL     1      44.472   4.330  12.553  0.00  0.00    +0.000 C 
ATOM      2  F   UNL     1      43.574   4.223  13.577  0.00  0.00    +0.000 F 
ATOM      3  F   UNL     1      45.115   3.123  12.508  0.00  0.00    +0.000 F 
ENDROOT
BRANCH   1   4
ATOM      4  C   UNL     1      45.439   5.482  12.770  0.00  0.00    +0.000 A 
ATOM      5  C   UNL     1      46.797   5.248  13.038  0.00  0.00    +0.000 A 
ATOM      6  C   UNL     1      47.668   6.323  13.247  0.00  0.00    +0.000 A 
ATOM      7  C   UNL     1      47.189   7.631  13.200  0.00  0.00    +0.000 A 
ATOM      8  F   UNL     1      48.063   8.629  13.391  0.00  0.00    +0.000 F 
ATOM      9  C   UNL     1      45.844   7.885  12.946  0.00  0.00    +0.000 A 
ATOM     10  C   UNL     1      44.979   6.808  12.722  0.00  0.00    +0.000 A 
BRANCH   9  11
ATOM     11  O   UNL     1      45.247   9.116  12.853  0.00  0.00    +0.000 OA
BRANCH  11  12
ATOM     12  C   UNL     1      45.142   9.761  11.566  0.00  0.00    +0.000 C 
ATOM     13  C   UNL     1      44.895  11.277  11.530  0.00  0.00    +0.000 C 
ATOM     14  O   UNL     1      43.732  11.115  10.680  0.00  0.00    +0.000 OA
ATOM     15  C   UNL     1      43.748   9.687  10.924  0.00  0.00    +0.000 C 
ENDBRANCH  11  12
ENDBRANCH   9  11
ENDBRANCH   1   4
BRANCH   1  16
ATOM     16  C   UNL     1      43.697   4.511  11.220  0.00  0.00    +0.000 C 
BRANCH  16  17
ATOM     17  N   UNL     1      43.679   3.292  10.378  0.00  0.00    +0.000 N 
ATOM     18  H   UNL     1      43.484   2.452  10.924  0.00  0.00    +0.000 HD
BRANCH  17  22
ATOM     19  C   UNL     1      46.575   2.600   7.463  0.00  0.00    +0.000 A 
ATOM     20  C   UNL     1      46.138   3.901   7.645  0.00  0.00    +0.000 A 
ATOM     21  C   UNL     1      45.183   4.149   8.631  0.00  0.00    +0.000 A 
ATOM     22  C   UNL     1      44.699   3.115   9.435  0.00  0.00    +0.000 A 
ATOM     23  C   UNL     1      45.186   1.836   9.133  0.00  0.00    +0.000 A 
ATOM     24  N   UNL     1      46.117   1.544   8.186  0.00  0.00    +0.000 NA
BRANCH  19  26
ATOM     25  N   UNL     1      47.571   3.156   5.321  0.00  0.00    +0.000 N 
ATOM     26  C   UNL     1      47.588   2.313   6.397  0.00  0.00    +0.000 C 
ATOM     27  O   UNL     1      48.388   1.388   6.477  0.00  0.00    +0.000 OA
ATOM     28  H   UNL     1      48.248   3.033   4.582  0.00  0.00    +0.000 HD
ATOM     29  H   UNL     1      46.915   3.928   5.299  0.00  0.00    +0.000 HD
ENDBRANCH  19  26
ENDBRANCH  17  22
ENDBRANCH  16  17
ENDBRANCH   1  16
TORSDOF 7
ENDMDL
MODEL 4
REMARK VINA RESULT:    -7.748      3.213      7.662
REMARK INTER + INTRA:         -11.820
REMARK INTER:                 -11.091
REMARK INTRA:                  -0.728
REMARK UNBOUND:                -0.901
REMARK  Name = 
REMARK  7 active torsions:
REMARK  status: ('A' for Active; 'I' for Inactive)
REMARK    1  A    between atoms: C_2  and  C_4
REMARK    2  A    between atoms: C_7  and  N_8
REMARK    3  A    between atoms: N_8  and  C_9
REMARK    4  A    between atoms: C_9  and  C_10
REMARK    5  A    between atoms: C_10  and  C_13
REMARK    6  A    between atoms: C_18  and  O_19
REMARK    7  A    between atoms: O_19  and  C_20
REMARK                            x       y       z     vdW  Elec       q    Type
REMARK                         _______ _______ _______ _____ _____    ______ ____
ROOT
ATOM      1  C   UNL     1      45.645   6.243  11.388  0.00  0.00    +0.000 C 
ATOM      2  F   UNL     1      44.822   7.279  11.050  0.00  0.00    +0.000 F 
ATOM      3  F   UNL     1      46.901   6.645  11.020  0.00  0.00    +0.000 F 
ENDROOT
BRANCH   1   4
ATOM      4  C   UNL     1      45.238   4.952  10.699  0.00  0.00    +0.000 A 
ATOM      5  C   UNL     1      44.509   3.964  11.381  0.00  0.00    +0.000 A 
ATOM      6  C   UNL     1      44.156   2.777  10.731  0.00  0.00    +0.000 A 
ATOM      7  C   UNL     1      44.534   2.564   9.407  0.00  0.00    +0.000 A 
ATOM      8  F   UNL     1      44.160   1.418   8.820  0.00  0.00    +0.000 F 
ATOM      9  C   UNL     1      45.266   3.526   8.715  0.00  0.00    +0.000 A 
ATOM     10  C   UNL     1      45.605   4.718   9.363  0.00  0.00    +0.000 A 
BRANCH   9  11
ATOM     11  O   UNL     1      45.685   3.454   7.411  0.00  0.00    +0.000 OA
BRANCH  11  12
ATOM     12  C   UNL     1      47.046   3.069   7.121  0.00  0.00    +0.000 C 
ATOM     13  C   UNL     1      47.409   2.718   5.670  0.00  0.00    +0.000 C 
ATOM     14  O   UNL     1      47.947   1.432   6.067  0.00  0.00    +0.000 OA
ATOM     15  C   UNL     1      47.363   1.589   7.383  0.00  0.00    +0.000 C 
ENDBRANCH  11  12
ENDBRANCH   9  11
ENDBRANCH   1   4
BRANCH   1  16
ATOM     16  C   UNL     1      45.629   6.069  12.930  0.00  0.00    +0.000 C 
BRANCH  16  17
ATOM     17  N   UNL     1      46.913   6.426  13.578  0.00  0.00    +0.000 N 
ATOM     18  H   UNL     1      47.643   6.633  12.894  0.00  0.00    +0.000 HD
BRANCH  17  22
ATOM     19  C   UNL     1      48.344   3.942  16.602  0.00  0.00    +0.000 A 
ATOM     20  C   UNL     1      48.735   5.270  16.616  0.00  0.00    +0.000 A 
ATOM     21  C   UNL     1      48.246   6.117  15.621  0.00  0.00    +0.000 A 
ATOM     22  C   UNL     1      47.363   5.644  14.648  0.00  0.00    +0.000 A 
ATOM     23  C   UNL     1      47.071   4.274  14.712  0.00  0.00    +0.000 A 
ATOM     24  N   UNL     1      47.518   3.411  15.662  0.00  0.00    +0.000 NA
BRANCH  19  26
ATOM     25  N   UNL     1      48.221   3.049  18.855  0.00  0.00    +0.000 N 
ATOM     26  C   UNL     1      48.872   3.014  17.653  0.00  0.00    +0.000 C 
ATOM     27  O   UNL     1      49.821   2.265  17.457  0.00  0.00    +0.000 OA
ATOM     28  H   UNL     1      48.511   2.427  19.595  0.00  0.00    +0.000 HD
ATOM     29  H   UNL     1      47.422   3.661  18.974  0.00  0.00    +0.000 HD
ENDBRANCH  19  26
ENDBRANCH  17  22
ENDBRANCH  16  17
ENDBRANCH   1  16
TORSDOF 7
ENDMDL
MODEL 5
REMARK VINA RESULT:    -7.264      2.633      3.365
REMARK INTER + INTRA:         -11.138
REMARK INTER:                 -10.417
REMARK INTRA:                  -0.721
REMARK UNBOUND:                -0.901
REMARK  Name = 
REMARK  7 active torsions:
REMARK  status: ('A' for Active; 'I' for Inactive)
REMARK    1  A    between atoms: C_2  and  C_4
REMARK    2  A    between atoms: C_7  and  N_8
REMARK    3  A    between atoms: N_8  and  C_9
REMARK    4  A    between atoms: C_9  and  C_10
REMARK    5  A    between atoms: C_10  and  C_13
REMARK    6  A    between atoms: C_18  and  O_19
REMARK    7  A    between atoms: O_19  and  C_20
REMARK                            x       y       z     vdW  Elec       q    Type
REMARK                         _______ _______ _______ _____ _____    ______ ____
ROOT
ATOM      1  C   UNL     1      44.706   5.569  12.098  0.00  0.00    +0.000 C 
ATOM      2  F   UNL     1      44.069   5.199  13.248  0.00  0.00    +0.000 F 
ATOM      3  F   UNL     1      45.791   4.740  12.003  0.00  0.00    +0.000 F 
ENDROOT
BRANCH   1   4
ATOM      4  C   UNL     1      45.110   7.033  12.123  0.00  0.00    +0.000 A 
ATOM      5  C   UNL     1      44.388   7.998  11.403  0.00  0.00    +0.000 A 
ATOM      6  C   UNL     1      44.787   9.339  11.430  0.00  0.00    +0.000 A 
ATOM      7  C   UNL     1      45.908   9.722  12.164  0.00  0.00    +0.000 A 
ATOM      8  F   UNL     1      46.242  11.020  12.174  0.00  0.00    +0.000 F 
ATOM      9  C   UNL     1      46.644   8.779  12.877  0.00  0.00    +0.000 A 
ATOM     10  C   UNL     1      46.235   7.442  12.860  0.00  0.00    +0.000 A 
BRANCH   9  11
ATOM     11  O   UNL     1      47.751   9.020  13.651  0.00  0.00    +0.000 OA
BRANCH  11  12
ATOM     12  C   UNL     1      49.024   8.459  13.267  0.00  0.00    +0.000 C 
ATOM     13  C   UNL     1      49.643   7.378  14.166  0.00  0.00    +0.000 C 
ATOM     14  O   UNL     1      50.881   8.122  14.288  0.00  0.00    +0.000 OA
ATOM     15  C   UNL     1      50.245   9.284  13.702  0.00  0.00    +0.000 C 
ENDBRANCH  11  12
ENDBRANCH   9  11
ENDBRANCH   1   4
BRANCH   1  16
ATOM     16  C   UNL     1      43.774   5.280  10.890  0.00  0.00    +0.000 C 
BRANCH  16  17
ATOM     17  N   UNL     1      43.749   3.853  10.492  0.00  0.00    +0.000 N 
ATOM     18  H   UNL     1      43.758   3.230  11.300  0.00  0.00    +0.000 HD
BRANCH  17  22
ATOM     19  C   UNL     1      46.430   2.758   7.497  0.00  0.00    +0.000 A 
ATOM     20  C   UNL     1      45.939   1.761   8.321  0.00  0.00    +0.000 A 
ATOM     21  C   UNL     1      45.025   2.112   9.315  0.00  0.00    +0.000 A 
ATOM     22  C   UNL     1      44.594   3.432   9.459  0.00  0.00    +0.000 A 
ATOM     23  C   UNL     1      45.190   4.359   8.592  0.00  0.00    +0.000 A 
ATOM     24  N   UNL     1      46.081   4.067   7.608  0.00  0.00    +0.000 NA
BRANCH  19  26
ATOM     25  N   UNL     1      47.420   3.202   5.325  0.00  0.00    +0.000 N 
ATOM     26  C   UNL     1      47.426   2.403   6.434  0.00  0.00    +0.000 C 
ATOM     27  O   UNL     1      48.203   1.462   6.545  0.00  0.00    +0.000 OA
ATOM     28  H   UNL     1      48.086   3.033   4.587  0.00  0.00    +0.000 HD
ATOM     29  H   UNL     1      46.782   3.989   5.279  0.00  0.00    +0.000 HD
ENDBRANCH  19  26
ENDBRANCH  17  22
ENDBRANCH  16  17
ENDBRANCH   1  16
TORSDOF 7
ENDMDL
MODEL 6
REMARK VINA RESULT:    -6.612      3.200      4.579
REMARK INTER + INTRA:         -10.219
REMARK INTER:                  -9.104
REMARK INTRA:                  -1.115
REMARK UNBOUND:                -0.901
REMARK  Name = 
REMARK  7 active torsions:
REMARK  status: ('A' for Active; 'I' for Inactive)
REMARK    1  A    between atoms: C_2  and  C_4
REMARK    2  A    between atoms: C_7  and  N_8
REMARK    3  A    between atoms: N_8  and  C_9
REMARK    4  A    between atoms: C_9  and  C_10
REMARK    5  A    between atoms: C_10  and  C_13
REMARK    6  A    between atoms: C_18  and  O_19
REMARK    7  A    between atoms: O_19  and  C_20
REMARK                            x       y       z     vdW  Elec       q    Type
REMARK                         _______ _______ _______ _____ _____    ______ ____
ROOT
ATOM      1  C   UNL     1      47.717   8.461  12.441  0.00  0.00    +0.000 C 
ATOM      2  F   UNL     1      47.930   7.347  11.679  0.00  0.00    +0.000 F 
ATOM      3  F   UNL     1      48.415   9.462  11.821  0.00  0.00    +0.000 F 
ENDROOT
BRANCH   1   4
ATOM      4  C   UNL     1      48.169   8.257  13.877  0.00  0.00    +0.000 A 
ATOM      5  C   UNL     1      48.272   9.339  14.766  0.00  0.00    +0.000 A 
ATOM      6  C   UNL     1      48.704   9.130  16.080  0.00  0.00    +0.000 A 
ATOM      7  C   UNL     1      49.044   7.849  16.510  0.00  0.00    +0.000 A 
ATOM      8  F   UNL     1      49.437   7.695  17.783  0.00  0.00    +0.000 F 
ATOM      9  C   UNL     1      48.960   6.764  15.642  0.00  0.00    +0.000 A 
ATOM     10  C   UNL     1      48.513   6.974  14.333  0.00  0.00    +0.000 A 
BRANCH   9  11
ATOM     11  O   UNL     1      49.244   5.455  15.938  0.00  0.00    +0.000 OA
BRANCH  11  12
ATOM     12  C   UNL     1      48.388   4.729  16.845  0.00  0.00    +0.000 C 
ATOM     13  C   UNL     1      48.728   3.262  17.150  0.00  0.00    +0.000 C 
ATOM     14  O   UNL     1      47.399   2.827  16.772  0.00  0.00    +0.000 OA
ATOM     15  C   UNL     1      47.130   4.129  16.199  0.00  0.00    +0.000 C 
ENDBRANCH  11  12
ENDBRANCH   9  11
ENDBRANCH   1   4
BRANCH   1  16
ATOM     16  C   UNL     1      46.208   8.826  12.390  0.00  0.00    +0.000 C 
BRANCH  16  17
ATOM     17  N   UNL     1      45.348   7.887  13.147  0.00  0.00    +0.000 N 
ATOM     18  H   UNL     1      45.637   7.805  14.123  0.00  0.00    +0.000 HD
BRANCH  17  22
ATOM     19  C   UNL     1      44.255   4.173  11.609  0.00  0.00    +0.000 A 
ATOM     20  C   UNL     1      43.908   5.300  10.885  0.00  0.00    +0.000 A 
ATOM     21  C   UNL     1      44.286   6.549  11.379  0.00  0.00    +0.000 A 
ATOM     22  C   UNL     1      45.020   6.659  12.562  0.00  0.00    +0.000 A 
ATOM     23  C   UNL     1      45.279   5.452  13.226  0.00  0.00    +0.000 A 
ATOM     24  N   UNL     1      44.936   4.213  12.785  0.00  0.00    +0.000 NA
BRANCH  19  26
ATOM     25  N   UNL     1      44.617   2.306  10.100  0.00  0.00    +0.000 N 
ATOM     26  C   UNL     1      43.843   2.824  11.101  0.00  0.00    +0.000 C 
ATOM     27  O   UNL     1      42.882   2.214  11.552  0.00  0.00    +0.000 OA
ATOM     28  H   UNL     1      44.409   1.388   9.736  0.00  0.00    +0.000 HD
ATOM     29  H   UNL     1      45.423   2.826   9.770  0.00  0.00    +0.000 HD
ENDBRANCH  19  26
ENDBRANCH  17  22
ENDBRANCH  16  17
ENDBRANCH   1  16
TORSDOF 7
ENDMDL
MODEL 7
REMARK VINA RESULT:    -6.519      3.334      5.385
REMARK INTER + INTRA:         -10.087
REMARK INTER:                  -9.592
REMARK INTRA:                  -0.495
REMARK UNBOUND:                -0.901
REMARK  Name = 
REMARK  7 active torsions:
REMARK  status: ('A' for Active; 'I' for Inactive)
REMARK    1  A    between atoms: C_2  and  C_4
REMARK    2  A    between atoms: C_7  and  N_8
REMARK    3  A    between atoms: N_8  and  C_9
REMARK    4  A    between atoms: C_9  and  C_10
REMARK    5  A    between atoms: C_10  and  C_13
REMARK    6  A    between atoms: C_18  and  O_19
REMARK    7  A    between atoms: O_19  and  C_20
REMARK                            x       y       z     vdW  Elec       q    Type
REMARK                         _______ _______ _______ _____ _____    ______ ____
ROOT
ATOM      1  C   UNL     1      49.048   7.736  14.984  0.00  0.00    +0.000 C 
ATOM      2  F   UNL     1      49.771   8.772  14.464  0.00  0.00    +0.000 F 
ATOM      3  F   UNL     1      48.007   8.322  15.653  0.00  0.00    +0.000 F 
ENDROOT
BRANCH   1   4
ATOM      4  C   UNL     1      49.890   6.862  15.898  0.00  0.00    +0.000 A 
ATOM      5  C   UNL     1      51.290   6.966  15.913  0.00  0.00    +0.000 A 
ATOM      6  C   UNL     1      52.046   6.142  16.753  0.00  0.00    +0.000 A 
ATOM      7  C   UNL     1      51.415   5.208  17.572  0.00  0.00    +0.000 A 
ATOM      8  F   UNL     1      52.179   4.451  18.372  0.00  0.00    +0.000 F 
ATOM      9  C   UNL     1      50.028   5.081  17.565  0.00  0.00    +0.000 A 
ATOM     10  C   UNL     1      49.274   5.917  16.735  0.00  0.00    +0.000 A 
BRANCH   9  11
ATOM     11  O   UNL     1      49.280   4.222  18.330  0.00  0.00    +0.000 OA
BRANCH  11  12
ATOM     12  C   UNL     1      49.044   2.877  17.863  0.00  0.00    +0.000 C 
ATOM     13  C   UNL     1      50.183   2.151  17.131  0.00  0.00    +0.000 C 
ATOM     14  O   UNL     1      49.334   1.869  15.991  0.00  0.00    +0.000 OA
ATOM     15  C   UNL     1      48.336   2.786  16.502  0.00  0.00    +0.000 C 
ENDBRANCH  11  12
ENDBRANCH   9  11
ENDBRANCH   1   4
BRANCH   1  16
ATOM     16  C   UNL     1      48.457   6.898  13.818  0.00  0.00    +0.000 C 
BRANCH  16  17
ATOM     17  N   UNL     1      46.977   6.920  13.766  0.00  0.00    +0.000 N 
ATOM     18  H   UNL     1      46.564   7.100  14.682  0.00  0.00    +0.000 HD
BRANCH  17  22
ATOM     19  C   UNL     1      44.838   3.933  11.800  0.00  0.00    +0.000 A 
ATOM     20  C   UNL     1      45.201   5.053  11.074  0.00  0.00    +0.000 A 
ATOM     21  C   UNL     1      45.935   6.051  11.715  0.00  0.00    +0.000 A 
ATOM     22  C   UNL     1      46.318   5.913  13.051  0.00  0.00    +0.000 A 
ATOM     23  C   UNL     1      45.860   4.754  13.693  0.00  0.00    +0.000 A 
ATOM     24  N   UNL     1      45.146   3.754  13.112  0.00  0.00    +0.000 NA
BRANCH  19  26
ATOM     25  N   UNL     1      44.590   2.317  10.007  0.00  0.00    +0.000 N 
ATOM     26  C   UNL     1      44.035   2.858  11.133  0.00  0.00    +0.000 C 
ATOM     27  O   UNL     1      42.953   2.477  11.563  0.00  0.00    +0.000 OA
ATOM     28  H   UNL     1      44.112   1.568   9.528  0.00  0.00    +0.000 HD
ATOM     29  H   UNL     1      45.500   2.636   9.694  0.00  0.00    +0.000 HD
ENDBRANCH  19  26
ENDBRANCH  17  22
ENDBRANCH  16  17
ENDBRANCH   1  16
TORSDOF 7
ENDMDL
MODEL 8
REMARK VINA RESULT:    -6.243      4.209      7.359
REMARK INTER + INTRA:          -9.699
REMARK INTER:                  -8.643
REMARK INTRA:                  -1.056
REMARK UNBOUND:                -0.901
REMARK  Name = 
REMARK  7 active torsions:
REMARK  status: ('A' for Active; 'I' for Inactive)
REMARK    1  A    between atoms: C_2  and  C_4
REMARK    2  A    between atoms: C_7  and  N_8
REMARK    3  A    between atoms: N_8  and  C_9
REMARK    4  A    between atoms: C_9  and  C_10
REMARK    5  A    between atoms: C_10  and  C_13
REMARK    6  A    between atoms: C_18  and  O_19
REMARK    7  A    between atoms: O_19  and  C_20
REMARK                            x       y       z     vdW  Elec       q    Type
REMARK                         _______ _______ _______ _____ _____    ______ ____
ROOT
ATOM      1  C   UNL     1      48.925   8.268  12.474  0.00  0.00    +0.000 C 
ATOM      2  F   UNL     1      49.442   9.301  11.745  0.00  0.00    +0.000 F 
ATOM      3  F   UNL     1      49.714   7.188  12.182  0.00  0.00    +0.000 F 
ENDROOT
BRANCH   1   4
ATOM      4  C   UNL     1      47.466   8.013  12.135  0.00  0.00    +0.000 A 
ATOM      5  C   UNL     1      46.497   9.016  12.295  0.00  0.00    +0.000 A 
ATOM      6  C   UNL     1      45.158   8.755  11.990  0.00  0.00    +0.000 A 
ATOM      7  C   UNL     1      44.776   7.495  11.532  0.00  0.00    +0.000 A 
ATOM      8  F   UNL     1      43.484   7.296  11.236  0.00  0.00    +0.000 F 
ATOM      9  C   UNL     1      45.719   6.483  11.376  0.00  0.00    +0.000 A 
ATOM     10  C   UNL     1      47.060   6.751  11.669  0.00  0.00    +0.000 A 
BRANCH   9  11
ATOM     11  O   UNL     1      45.486   5.210  10.920  0.00  0.00    +0.000 OA
BRANCH  11  12
ATOM     12  C   UNL     1      45.317   4.135  11.868  0.00  0.00    +0.000 C 
ATOM     13  C   UNL     1      44.084   3.228  11.727  0.00  0.00    +0.000 C 
ATOM     14  O   UNL     1      43.693   3.468  13.102  0.00  0.00    +0.000 OA
ATOM     15  C   UNL     1      44.656   4.546  13.193  0.00  0.00    +0.000 C 
ENDBRANCH  11  12
ENDBRANCH   9  11
ENDBRANCH   1   4
BRANCH   1  16
ATOM     16  C   UNL     1      49.087   8.586  13.985  0.00  0.00    +0.000 C 
BRANCH  16  17
ATOM     17  N   UNL     1      49.976   7.638  14.696  0.00  0.00    +0.000 N 
ATOM     18  H   UNL     1      50.780   7.367  14.128  0.00  0.00    +0.000 HD
BRANCH  17  22
ATOM     19  C   UNL     1      48.252   4.576  16.936  0.00  0.00    +0.000 A 
ATOM     20  C   UNL     1      47.591   4.994  15.796  0.00  0.00    +0.000 A 
ATOM     21  C   UNL     1      48.167   6.005  15.025  0.00  0.00    +0.000 A 
ATOM     22  C   UNL     1      49.396   6.564  15.382  0.00  0.00    +0.000 A 
ATOM     23  C   UNL     1      49.952   6.088  16.577  0.00  0.00    +0.000 A 
ATOM     24  N   UNL     1      49.432   5.105  17.359  0.00  0.00    +0.000 NA
BRANCH  19  26
ATOM     25  N   UNL     1      48.324   3.188  18.926  0.00  0.00    +0.000 N 
ATOM     26  C   UNL     1      47.640   3.504  17.785  0.00  0.00    +0.000 C 
ATOM     27  O   UNL     1      46.592   2.944  17.487  0.00  0.00    +0.000 OA
ATOM     28  H   UNL     1      47.947   2.494  19.554  0.00  0.00    +0.000 HD
ATOM     29  H   UNL     1      49.173   3.691  19.156  0.00  0.00    +0.000 HD
ENDBRANCH  19  26
ENDBRANCH  17  22
ENDBRANCH  16  17
ENDBRANCH   1  16
TORSDOF 7
ENDMDL
MODEL 9
REMARK VINA RESULT:    -5.945      3.909      7.328
REMARK INTER + INTRA:          -9.279
REMARK INTER:                  -8.834
REMARK INTRA:                  -0.445
REMARK UNBOUND:                -0.901
REMARK  Name = 
REMARK  7 active torsions:
REMARK  status: ('A' for Active; 'I' for Inactive)
REMARK    1  A    between atoms: C_2  and  C_4
REMARK    2  A    between atoms: C_7  and  N_8
REMARK    3  A    between atoms: N_8  and  C_9
REMARK    4  A    between atoms: C_9  and  C_10
REMARK    5  A    between atoms: C_10  and  C_13
REMARK    6  A    between atoms: C_18  and  O_19
REMARK    7  A    between atoms: O_19  and  C_20
REMARK                            x       y       z     vdW  Elec       q    Type
REMARK                         _______ _______ _______ _____ _____    ______ ____
ROOT
ATOM      1  C   UNL     1      44.616   5.744  12.406  0.00  0.00    +0.000 C 
ATOM      2  F   UNL     1      45.538   5.510  13.386  0.00  0.00    +0.000 F 
ATOM      3  F   UNL     1      43.424   5.902  13.061  0.00  0.00    +0.000 F 
ENDROOT
BRANCH   1   4
ATOM      4  C   UNL     1      44.564   4.610  11.397  0.00  0.00    +0.000 A 
ATOM      5  C   UNL     1      43.847   3.433  11.664  0.00  0.00    +0.000 A 
ATOM      6  C   UNL     1      43.824   2.395  10.726  0.00  0.00    +0.000 A 
ATOM      7  C   UNL     1      44.521   2.521   9.525  0.00  0.00    +0.000 A 
ATOM      8  F   UNL     1      44.456   1.508   8.650  0.00  0.00    +0.000 F 
ATOM      9  C   UNL     1      45.247   3.675   9.245  0.00  0.00    +0.000 A 
ATOM     10  C   UNL     1      45.256   4.717  10.178  0.00  0.00    +0.000 A 
BRANCH   9  11
ATOM     11  O   UNL     1      45.958   3.937   8.101  0.00  0.00    +0.000 OA
BRANCH  11  12
ATOM     12  C   UNL     1      46.158   2.887   7.132  0.00  0.00    +0.000 C 
ATOM     13  C   UNL     1      47.446   2.053   7.218  0.00  0.00    +0.000 C 
ATOM     14  O   UNL     1      47.776   2.334   5.835  0.00  0.00    +0.000 OA
ATOM     15  C   UNL     1      46.749   3.355   5.793  0.00  0.00    +0.000 C 
ENDBRANCH  11  12
ENDBRANCH   9  11
ENDBRANCH   1   4
BRANCH   1  16
ATOM     16  C   UNL     1      44.958   7.086  11.703  0.00  0.00    +0.000 C 
BRANCH  16  17
ATOM     17  N   UNL     1      45.545   8.097  12.613  0.00  0.00    +0.000 N 
ATOM     18  H   UNL     1      45.086   9.005  12.523  0.00  0.00    +0.000 HD
BRANCH  17  22
ATOM     19  C   UNL     1      49.679   8.264  13.097  0.00  0.00    +0.000 A 
ATOM     20  C   UNL     1      49.185   7.626  11.973  0.00  0.00    +0.000 A 
ATOM     21  C   UNL     1      47.803   7.581  11.789  0.00  0.00    +0.000 A 
ATOM     22  C   UNL     1      46.938   8.188  12.702  0.00  0.00    +0.000 A 
ATOM     23  C   UNL     1      47.553   8.770  13.820  0.00  0.00    +0.000 A 
ATOM     24  N   UNL     1      48.892   8.842  14.042  0.00  0.00    +0.000 NA
BRANCH  19  26
ATOM     25  N   UNL     1      51.606   7.706  14.464  0.00  0.00    +0.000 N 
ATOM     26  C   UNL     1      51.161   8.308  13.320  0.00  0.00    +0.000 C 
ATOM     27  O   UNL     1      51.932   8.841  12.531  0.00  0.00    +0.000 OA
ATOM     28  H   UNL     1      52.596   7.677  14.656  0.00  0.00    +0.000 HD
ATOM     29  H   UNL     1      50.943   7.250  15.080  0.00  0.00    +0.000 HD
ENDBRANCH  19  26
ENDBRANCH  17  22
ENDBRANCH  16  17
ENDBRANCH   1  16
TORSDOF 7
ENDMDL
