MODEL 1
REMARK VINA RESULT:    -8.580      0.000      0.000
REMARK INTER + INTRA:         -12.331
REMARK INTER:                 -11.589
REMARK INTRA:                  -0.742
REMARK UNBOUND:                -0.742
REMARK  Name = 
REMARK  6 active torsions:
REMARK  status: ('A' for Active; 'I' for Inactive)
REMARK    1  A    between atoms: C_2  and  C_3
REMARK    2  A    between atoms: C_6  and  N_7
REMARK    3  A    between atoms: N_7  and  C_8
REMARK    4  A    between atoms: C_8  and  C_9
REMARK    5  A    between atoms: C_11  and  C_12
REMARK    6  A    between atoms: C_16  and  C_17
REMARK                            x       y       z     vdW  Elec       q    Type
REMARK                         _______ _______ _______ _____ _____    ______ ____
ROOT
ATOM      1  C   UNL     1      44.672   4.530  11.996  0.00  0.00    +0.000 A 
ATOM      2  C   UNL     1      45.591   4.391  13.039  0.00  0.00    +0.000 A 
ATOM      3  C   UNL     1      46.304   5.507  13.513  0.00  0.00    +0.000 A 
ATOM      4  C   UNL     1      46.054   6.734  12.891  0.00  0.00    +0.000 A 
ATOM      5  C   UNL     1      45.134   6.791  11.857  0.00  0.00    +0.000 A 
ATOM      6  N   UNL     1      44.443   5.727  11.405  0.00  0.00    +0.000 NA
ENDROOT
BRANCH   3   7
ATOM      7  C   UNL     1      47.266   5.383  14.627  0.00  0.00    +0.000 A 
ATOM      8  C   UNL     1      48.289   6.308  14.851  0.00  0.00    +0.000 A 
ATOM      9  N   UNL     1      49.188   6.244  15.864  0.00  0.00    +0.000 NA
ATOM     10  C   UNL     1      49.077   5.202  16.713  0.00  0.00    +0.000 A 
ATOM     11  C   UNL     1      48.112   4.216  16.603  0.00  0.00    +0.000 A 
ATOM     12  C   UNL     1      47.201   4.321  15.543  0.00  0.00    +0.000 A 
BRANCH  11  13
ATOM     13  C   UNL     1      48.044   3.094  17.589  0.00  0.00    +0.000 C 
ATOM     14  F   UNL     1      46.818   2.510  17.666  0.00  0.00    +0.000 F 
ATOM     15  F   UNL     1      48.918   2.092  17.296  0.00  0.00    +0.000 F 
ATOM     16  F   UNL     1      48.348   3.495  18.854  0.00  0.00    +0.000 F 
ENDBRANCH  11  13
ENDBRANCH   3   7
BRANCH   1  17
ATOM     17  C   UNL     1      43.913   3.323  11.467  0.00  0.00    +0.000 C 
BRANCH  17  18
ATOM     18  N   UNL     1      43.738   3.358  10.019  0.00  0.00    +0.000 N 
ATOM     19  H   UNL     1      42.812   3.126   9.676  0.00  0.00    +0.000 HD
BRANCH  18  23
ATOM     20  C   UNL     1      46.773   2.402   7.242  0.00  0.00    +0.000 A 
ATOM     21  C   UNL     1      46.339   3.724   7.361  0.00  0.00    +0.000 A 
ATOM     22  C   UNL     1      45.342   4.060   8.288  0.00  0.00    +0.000 A 
ATOM     23  C   UNL     1      44.780   3.098   9.137  0.00  0.00    +0.000 A 
ATOM     24  C   UNL     1      45.217   1.772   8.987  0.00  0.00    +0.000 A 
ATOM     25  C   UNL     1      46.204   1.423   8.056  0.00  0.00    +0.000 A 
BRANCH  20  27
ATOM     26  N   UNL     1      48.606   1.769   5.521  0.00  0.00    +0.000 NA
ATOM     27  C   UNL     1      47.787   2.054   6.288  0.00  0.00    +0.000 C 
ENDBRANCH  20  27
ENDBRANCH  18  23
ENDBRANCH  17  18
ENDBRANCH   1  17
TORSDOF 6
ENDMDL
MODEL 2
REMARK VINA RESULT:    -8.414      3.974      5.037
REMARK INTER + INTRA:         -12.107
REMARK INTER:                 -11.213
REMARK INTRA:                  -0.894
REMARK UNBOUND:                -0.742
REMARK  Name = 
REMARK  6 active torsions:
REMARK  status: ('A' for Active; 'I' for Inactive)
REMARK    1  A    between atoms: C_2  and  C_3
REMARK    2  A    between atoms: C_6  and  N_7
REMARK    3  A    between atoms: N_7  and  C_8
REMARK    4  A    between atoms: C_8  and  C_9
REMARK    5  A    between atoms: C_11  and  C_12
REMARK    6  A    between atoms: C_16  and  C_17
REMARK                            x       y       z     vdW  Elec       q    Type
REMARK                         _______ _______ _______ _____ _____    ______ ____
ROOT
ATOM      1  C   UNL     1      45.024   4.283  12.375  0.00  0.00    +0.000 A 
ATOM      2  C   UNL     1      45.269   5.629  12.096  0.00  0.00    +0.000 A 
ATOM      3  C   UNL     1      46.350   6.296  12.702  0.00  0.00    +0.000 A 
ATOM      4  C   UNL     1      47.142   5.555  13.585  0.00  0.00    +0.000 A 
ATOM      5  C   UNL     1      46.831   4.225  13.817  0.00  0.00    +0.000 A 
ATOM      6  N   UNL     1      45.802   3.581  13.233  0.00  0.00    +0.000 NA
ENDROOT
BRANCH   3   7
ATOM      7  C   UNL     1      46.636   7.715  12.406  0.00  0.00    +0.000 A 
ATOM      8  C   UNL     1      45.654   8.708  12.444  0.00  0.00    +0.000 A 
ATOM      9  N   UNL     1      45.868  10.023  12.191  0.00  0.00    +0.000 NA
ATOM     10  C   UNL     1      47.128  10.388  11.879  0.00  0.00    +0.000 A 
ATOM     11  C   UNL     1      48.190   9.504  11.805  0.00  0.00    +0.000 A 
ATOM     12  C   UNL     1      47.927   8.154  12.075  0.00  0.00    +0.000 A 
BRANCH  11  13
ATOM     13  C   UNL     1      49.565   9.983  11.461  0.00  0.00    +0.000 C 
ATOM     14  F   UNL     1      50.403   8.989  11.059  0.00  0.00    +0.000 F 
ATOM     15  F   UNL     1      49.559  10.897  10.453  0.00  0.00    +0.000 F 
ATOM     16  F   UNL     1      50.182  10.590  12.512  0.00  0.00    +0.000 F 
ENDBRANCH  11  13
ENDBRANCH   3   7
BRANCH   1  17
ATOM     17  C   UNL     1      43.846   3.563  11.738  0.00  0.00    +0.000 C 
BRANCH  17  18
ATOM     18  N   UNL     1      43.715   3.847  10.313  0.00  0.00    +0.000 N 
ATOM     19  H   UNL     1      42.772   4.011   9.976  0.00  0.00    +0.000 HD
BRANCH  18  23
ATOM     20  C   UNL     1      46.575   2.472   7.526  0.00  0.00    +0.000 A 
ATOM     21  C   UNL     1      45.920   1.555   8.350  0.00  0.00    +0.000 A 
ATOM     22  C   UNL     1      44.957   1.994   9.271  0.00  0.00    +0.000 A 
ATOM     23  C   UNL     1      44.604   3.346   9.369  0.00  0.00    +0.000 A 
ATOM     24  C   UNL     1      45.289   4.253   8.545  0.00  0.00    +0.000 A 
ATOM     25  C   UNL     1      46.261   3.827   7.630  0.00  0.00    +0.000 A 
BRANCH  20  27
ATOM     26  N   UNL     1      48.366   1.672   5.830  0.00  0.00    +0.000 NA
ATOM     27  C   UNL     1      47.567   2.027   6.588  0.00  0.00    +0.000 C 
ENDBRANCH  20  27
ENDBRANCH  18  23
ENDBRANCH  17  18
ENDBRANCH   1  17
TORSDOF 6
ENDMDL
MODEL 3
REMARK VINA RESULT:    -7.830      3.632      4.229
REMARK INTER + INTRA:         -11.319
REMARK INTER:                 -10.485
REMARK INTRA:                  -0.834
REMARK UNBOUND:                -0.742
REMARK  Name = 
REMARK  6 active torsions:
REMARK  status: ('A' for Active; 'I' for Inactive)
REMARK    1  A    between atoms: C_2  and  C_3
REMARK    2  A    between atoms: C_6  and  N_7
REMARK    3  A    between atoms: N_7  and  C_8
REMARK    4  A    between atoms: C_8  and  C_9
REMARK    5  A    between atoms: C_11  and  C_12
REMARK    6  A    between atoms: C_16  and  C_17
REMARK                            x       y       z     vdW  Elec       q    Type
REMARK                         _______ _______ _______ _____ _____    ______ ____
ROOT
ATOM      1  C   UNL     1      44.607   5.189  11.699  0.00  0.00    +0.000 A 
ATOM      2  C   UNL     1      45.901   5.488  12.130  0.00  0.00    +0.000 A 
ATOM      3  C   UNL     1      46.330   6.826  12.219  0.00  0.00    +0.000 A 
ATOM      4  C   UNL     1      45.413   7.815  11.852  0.00  0.00    +0.000 A 
ATOM      5  C   UNL     1      44.149   7.439  11.426  0.00  0.00    +0.000 A 
ATOM      6  N   UNL     1      43.731   6.161  11.347  0.00  0.00    +0.000 NA
ENDROOT
BRANCH   3   7
ATOM      7  C   UNL     1      47.689   7.162  12.690  0.00  0.00    +0.000 A 
ATOM      8  C   UNL     1      48.051   7.133  14.040  0.00  0.00    +0.000 A 
ATOM      9  N   UNL     1      49.286   7.422  14.520  0.00  0.00    +0.000 NA
ATOM     10  C   UNL     1      50.228   7.762  13.617  0.00  0.00    +0.000 A 
ATOM     11  C   UNL     1      50.001   7.829  12.254  0.00  0.00    +0.000 A 
ATOM     12  C   UNL     1      48.711   7.522  11.798  0.00  0.00    +0.000 A 
BRANCH  11  13
ATOM     13  C   UNL     1      51.099   8.205  11.310  0.00  0.00    +0.000 C 
ATOM     14  F   UNL     1      50.945   9.441  10.761  0.00  0.00    +0.000 F 
ATOM     15  F   UNL     1      52.320   8.211  11.911  0.00  0.00    +0.000 F 
ATOM     16  F   UNL     1      51.203   7.341  10.263  0.00  0.00    +0.000 F 
ENDBRANCH  11  13
ENDBRANCH   3   7
BRANCH   1  17
ATOM     17  C   UNL     1      44.144   3.745  11.582  0.00  0.00    +0.000 C 
BRANCH  17  18
ATOM     18  N   UNL     1      43.849   3.357  10.207  0.00  0.00    +0.000 N 
ATOM     19  H   UNL     1      42.986   2.845  10.064  0.00  0.00    +0.000 HD
BRANCH  18  23
ATOM     20  C   UNL     1      46.748   2.444   7.274  0.00  0.00    +0.000 A 
ATOM     21  C   UNL     1      46.340   3.767   7.451  0.00  0.00    +0.000 A 
ATOM     22  C   UNL     1      45.389   4.089   8.430  0.00  0.00    +0.000 A 
ATOM     23  C   UNL     1      44.848   3.109   9.273  0.00  0.00    +0.000 A 
ATOM     24  C   UNL     1      45.257   1.782   9.065  0.00  0.00    +0.000 A 
ATOM     25  C   UNL     1      46.199   1.448   8.082  0.00  0.00    +0.000 A 
BRANCH  20  27
ATOM     26  N   UNL     1      48.491   1.837   5.454  0.00  0.00    +0.000 NA
ATOM     27  C   UNL     1      47.715   2.110   6.267  0.00  0.00    +0.000 C 
ENDBRANCH  20  27
ENDBRANCH  18  23
ENDBRANCH  17  18
ENDBRANCH   1  17
TORSDOF 6
ENDMDL
MODEL 4
REMARK VINA RESULT:    -7.731      1.529      1.948
REMARK INTER + INTRA:         -11.185
REMARK INTER:                 -10.401
REMARK INTRA:                  -0.784
REMARK UNBOUND:                -0.742
REMARK  Name = 
REMARK  6 active torsions:
REMARK  status: ('A' for Active; 'I' for Inactive)
REMARK    1  A    between atoms: C_2  and  C_3
REMARK    2  A    between atoms: C_6  and  N_7
REMARK    3  A    between atoms: N_7  and  C_8
REMARK    4  A    between atoms: C_8  and  C_9
REMARK    5  A    between atoms: C_11  and  C_12
REMARK    6  A    between atoms: C_16  and  C_17
REMARK                            x       y       z     vdW  Elec       q    Type
REMARK                         _______ _______ _______ _____ _____    ______ ____
ROOT
ATOM      1  C   UNL     1      44.751   5.138  12.112  0.00  0.00    +0.000 A 
ATOM      2  C   UNL     1      45.466   4.535  13.148  0.00  0.00    +0.000 A 
ATOM      3  C   UNL     1      46.559   5.197  13.738  0.00  0.00    +0.000 A 
ATOM      4  C   UNL     1      46.886   6.460  13.235  0.00  0.00    +0.000 A 
ATOM      5  C   UNL     1      46.134   6.989  12.199  0.00  0.00    +0.000 A 
ATOM      6  N   UNL     1      45.083   6.362  11.637  0.00  0.00    +0.000 NA
ENDROOT
BRANCH   3   7
ATOM      7  C   UNL     1      47.316   4.582  14.848  0.00  0.00    +0.000 A 
ATOM      8  C   UNL     1      47.551   3.207  14.933  0.00  0.00    +0.000 A 
ATOM      9  N   UNL     1      48.248   2.597  15.924  0.00  0.00    +0.000 NA
ATOM     10  C   UNL     1      48.746   3.388  16.896  0.00  0.00    +0.000 A 
ATOM     11  C   UNL     1      48.584   4.762  16.931  0.00  0.00    +0.000 A 
ATOM     12  C   UNL     1      47.859   5.353  15.887  0.00  0.00    +0.000 A 
BRANCH  11  13
ATOM     13  C   UNL     1      49.175   5.577  18.037  0.00  0.00    +0.000 C 
ATOM     14  F   UNL     1      49.964   6.596  17.601  0.00  0.00    +0.000 F 
ATOM     15  F   UNL     1      48.224   6.150  18.824  0.00  0.00    +0.000 F 
ATOM     16  F   UNL     1      49.951   4.833  18.873  0.00  0.00    +0.000 F 
ENDBRANCH  11  13
ENDBRANCH   3   7
BRANCH   1  17
ATOM     17  C   UNL     1      43.581   4.419  11.457  0.00  0.00    +0.000 C 
BRANCH  17  18
ATOM     18  N   UNL     1      43.614   4.500  10.001  0.00  0.00    +0.000 N 
ATOM     19  H   UNL     1      42.713   4.557   9.537  0.00  0.00    +0.000 HD
BRANCH  18  23
ATOM     20  C   UNL     1      46.559   2.646   7.608  0.00  0.00    +0.000 A 
ATOM     21  C   UNL     1      46.456   4.038   7.618  0.00  0.00    +0.000 A 
ATOM     22  C   UNL     1      45.493   4.670   8.418  0.00  0.00    +0.000 A 
ATOM     23  C   UNL     1      44.635   3.934   9.247  0.00  0.00    +0.000 A 
ATOM     24  C   UNL     1      44.742   2.535   9.205  0.00  0.00    +0.000 A 
ATOM     25  C   UNL     1      45.693   1.893   8.400  0.00  0.00    +0.000 A 
BRANCH  20  27
ATOM     26  N   UNL     1      48.330   1.477   6.118  0.00  0.00    +0.000 NA
ATOM     27  C   UNL     1      47.538   1.997   6.783  0.00  0.00    +0.000 C 
ENDBRANCH  20  27
ENDBRANCH  18  23
ENDBRANCH  17  18
ENDBRANCH   1  17
TORSDOF 6
ENDMDL
MODEL 5
REMARK VINA RESULT:    -7.247      3.191      4.053
REMARK INTER + INTRA:         -10.531
REMARK INTER:                  -9.674
REMARK INTRA:                  -0.857
REMARK UNBOUND:                -0.742
REMARK  Name = 
REMARK  6 active torsions:
REMARK  status: ('A' for Active; 'I' for Inactive)
REMARK    1  A    between atoms: C_2  and  C_3
REMARK    2  A    between atoms: C_6  and  N_7
REMARK    3  A    between atoms: N_7  and  C_8
REMARK    4  A    between atoms: C_8  and  C_9
REMARK    5  A    between atoms: C_11  and  C_12
REMARK    6  A    between atoms: C_16  and  C_17
REMARK                            x       y       z     vdW  Elec       q    Type
REMARK                         _______ _______ _______ _____ _____    ______ ____
ROOT
ATOM      1  C   UNL     1      44.952   5.240  12.422  0.00  0.00    +0.000 A 
ATOM      2  C   UNL     1      45.956   6.199  12.271  0.00  0.00    +0.000 A 
ATOM      3  C   UNL     1      47.190   6.049  12.932  0.00  0.00    +0.000 A 
ATOM      4  C   UNL     1      47.348   4.915  13.736  0.00  0.00    +0.000 A 
ATOM      5  C   UNL     1      46.303   4.012  13.842  0.00  0.00    +0.000 A 
ATOM      6  N   UNL     1      45.124   4.148  13.206  0.00  0.00    +0.000 NA
ENDROOT
BRANCH   3   7
ATOM      7  C   UNL     1      48.269   7.043  12.770  0.00  0.00    +0.000 A 
ATOM      8  C   UNL     1      48.345   7.906  11.673  0.00  0.00    +0.000 A 
ATOM      9  N   UNL     1      49.308   8.842  11.484  0.00  0.00    +0.000 NA
ATOM     10  C   UNL     1      50.261   8.938  12.434  0.00  0.00    +0.000 A 
ATOM     11  C   UNL     1      50.302   8.144  13.567  0.00  0.00    +0.000 A 
ATOM     12  C   UNL     1      49.287   7.190  13.725  0.00  0.00    +0.000 A 
BRANCH  11  13
ATOM     13  C   UNL     1      51.386   8.314  14.584  0.00  0.00    +0.000 C 
ATOM     14  F   UNL     1      51.127   9.288  15.497  0.00  0.00    +0.000 F 
ATOM     15  F   UNL     1      51.607   7.178  15.301  0.00  0.00    +0.000 F 
ATOM     16  F   UNL     1      52.582   8.637  14.020  0.00  0.00    +0.000 F 
ENDBRANCH  11  13
ENDBRANCH   3   7
BRANCH   1  17
ATOM     17  C   UNL     1      43.610   5.408  11.726  0.00  0.00    +0.000 C 
BRANCH  17  18
ATOM     18  N   UNL     1      43.720   5.360  10.272  0.00  0.00    +0.000 N 
ATOM     19  H   UNL     1      42.974   5.810   9.754  0.00  0.00    +0.000 HD
BRANCH  18  23
ATOM     20  C   UNL     1      45.867   2.292   8.318  0.00  0.00    +0.000 A 
ATOM     21  C   UNL     1      44.867   1.958   9.234  0.00  0.00    +0.000 A 
ATOM     22  C   UNL     1      44.136   2.964   9.881  0.00  0.00    +0.000 A 
ATOM     23  C   UNL     1      44.360   4.320   9.608  0.00  0.00    +0.000 A 
ATOM     24  C   UNL     1      45.383   4.634   8.699  0.00  0.00    +0.000 A 
ATOM     25  C   UNL     1      46.128   3.636   8.056  0.00  0.00    +0.000 A 
BRANCH  20  27
ATOM     26  N   UNL     1      47.230   0.435   7.128  0.00  0.00    +0.000 NA
ATOM     27  C   UNL     1      46.623   1.264   7.662  0.00  0.00    +0.000 C 
ENDBRANCH  20  27
ENDBRANCH  18  23
ENDBRANCH  17  18
ENDBRANCH   1  17
TORSDOF 6
ENDMDL
MODEL 6
REMARK VINA RESULT:    -7.237      4.446      8.453
REMARK INTER + INTRA:         -10.517
REMARK INTER:                  -9.808
REMARK INTRA:                  -0.709
REMARK UNBOUND:                -0.742
REMARK  Name = 
REMARK  6 active torsions:
REMARK  status: ('A' for Active; 'I' for Inactive)
REMARK    1  A    between atoms: C_2  and  C_3
REMARK    2  A    between atoms: C_6  and  N_7
REMARK    3  A    between atoms: N_7  and  C_8
REMARK    4  A    between atoms: C_8  and  C_9
REMARK    5  A    between atoms: C_11  and  C_12
REMARK    6  A    between atoms: C_16  and  C_17
REMARK                            x       y       z     vdW  Elec       q    Type
REMARK                         _______ _______ _______ _____ _____    ______ ____
ROOT
ATOM      1  C   UNL     1      45.245   6.564  11.551  0.00  0.00    +0.000 A 
ATOM      2  C   UNL     1      45.703   5.533  10.727  0.00  0.00    +0.000 A 
ATOM      3  C   UNL     1      44.792   4.639  10.133  0.00  0.00    +0.000 A 
ATOM      4  C   UNL     1      43.436   4.830  10.415  0.00  0.00    +0.000 A 
ATOM      5  C   UNL     1      43.060   5.870  11.249  0.00  0.00    +0.000 A 
ATOM      6  N   UNL     1      43.927   6.733  11.813  0.00  0.00    +0.000 NA
ENDROOT
BRANCH   3   7
ATOM      7  C   UNL     1      45.257   3.555   9.245  0.00  0.00    +0.000 A 
ATOM      8  C   UNL     1      45.109   2.201   9.561  0.00  0.00    +0.000 A 
ATOM      9  N   UNL     1      45.508   1.171   8.775  0.00  0.00    +0.000 NA
ATOM     10  C   UNL     1      46.091   1.488   7.601  0.00  0.00    +0.000 A 
ATOM     11  C   UNL     1      46.298   2.787   7.169  0.00  0.00    +0.000 A 
ATOM     12  C   UNL     1      45.869   3.823   8.011  0.00  0.00    +0.000 A 
BRANCH  11  13
ATOM     13  C   UNL     1      46.943   3.064   5.849  0.00  0.00    +0.000 C 
ATOM     14  F   UNL     1      46.988   4.386   5.532  0.00  0.00    +0.000 F 
ATOM     15  F   UNL     1      48.229   2.622   5.797  0.00  0.00    +0.000 F 
ATOM     16  F   UNL     1      46.298   2.453   4.817  0.00  0.00    +0.000 F 
ENDBRANCH  11  13
ENDBRANCH   3   7
BRANCH   1  17
ATOM     17  C   UNL     1      46.226   7.521  12.211  0.00  0.00    +0.000 C 
BRANCH  17  18
ATOM     18  N   UNL     1      47.466   6.867  12.615  0.00  0.00    +0.000 N 
ATOM     19  H   UNL     1      48.012   6.447  11.870  0.00  0.00    +0.000 HD
BRANCH  18  23
ATOM     20  C   UNL     1      48.018   4.910  16.317  0.00  0.00    +0.000 A 
ATOM     21  C   UNL     1      48.674   6.117  16.071  0.00  0.00    +0.000 A 
ATOM     22  C   UNL     1      48.490   6.787  14.853  0.00  0.00    +0.000 A 
ATOM     23  C   UNL     1      47.628   6.287  13.868  0.00  0.00    +0.000 A 
ATOM     24  C   UNL     1      46.995   5.062  14.127  0.00  0.00    +0.000 A 
ATOM     25  C   UNL     1      47.180   4.378  15.337  0.00  0.00    +0.000 A 
BRANCH  20  27
ATOM     26  N   UNL     1      48.365   3.655  18.559  0.00  0.00    +0.000 NA
ATOM     27  C   UNL     1      48.211   4.217  17.559  0.00  0.00    +0.000 C 
ENDBRANCH  20  27
ENDBRANCH  18  23
ENDBRANCH  17  18
ENDBRANCH   1  17
TORSDOF 6
ENDMDL
MODEL 7
REMARK VINA RESULT:    -7.124      4.012      8.053
REMARK INTER + INTRA:         -10.365
REMARK INTER:                  -9.574
REMARK INTRA:                  -0.791
REMARK UNBOUND:                -0.742
REMARK  Name = 
REMARK  6 active torsions:
REMARK  status: ('A' for Active; 'I' for Inactive)
REMARK    1  A    between atoms: C_2  and  C_3
REMARK    2  A    between atoms: C_6  and  N_7
REMARK    3  A    between atoms: N_7  and  C_8
REMARK    4  A    between atoms: C_8  and  C_9
REMARK    5  A    between atoms: C_11  and  C_12
REMARK    6  A    between atoms: C_16  and  C_17
REMARK                            x       y       z     vdW  Elec       q    Type
REMARK                         _______ _______ _______ _____ _____    ______ ____
ROOT
ATOM      1  C   UNL     1      48.067   6.758  14.295  0.00  0.00    +0.000 A 
ATOM      2  C   UNL     1      47.114   5.798  13.949  0.00  0.00    +0.000 A 
ATOM      3  C   UNL     1      46.572   5.768  12.650  0.00  0.00    +0.000 A 
ATOM      4  C   UNL     1      47.025   6.736  11.748  0.00  0.00    +0.000 A 
ATOM      5  C   UNL     1      47.966   7.662  12.168  0.00  0.00    +0.000 A 
ATOM      6  N   UNL     1      48.493   7.689  13.408  0.00  0.00    +0.000 NA
ENDROOT
BRANCH   3   7
ATOM      7  C   UNL     1      45.577   4.748  12.261  0.00  0.00    +0.000 A 
ATOM      8  C   UNL     1      44.508   4.382  13.083  0.00  0.00    +0.000 A 
ATOM      9  N   UNL     1      43.564   3.461  12.767  0.00  0.00    +0.000 NA
ATOM     10  C   UNL     1      43.676   2.859  11.565  0.00  0.00    +0.000 A 
ATOM     11  C   UNL     1      44.686   3.130  10.659  0.00  0.00    +0.000 A 
ATOM     12  C   UNL     1      45.641   4.089  11.024  0.00  0.00    +0.000 A 
BRANCH  11  13
ATOM     13  C   UNL     1      44.741   2.429   9.339  0.00  0.00    +0.000 C 
ATOM     14  F   UNL     1      45.996   2.047   8.978  0.00  0.00    +0.000 F 
ATOM     15  F   UNL     1      43.985   1.297   9.320  0.00  0.00    +0.000 F 
ATOM     16  F   UNL     1      44.278   3.203   8.320  0.00  0.00    +0.000 F 
ENDBRANCH  11  13
ENDBRANCH   3   7
BRANCH   1  17
ATOM     17  C   UNL     1      48.641   6.807  15.702  0.00  0.00    +0.000 C 
BRANCH  17  18
ATOM     18  N   UNL     1      48.193   5.694  16.532  0.00  0.00    +0.000 N 
ATOM     19  H   UNL     1      47.443   5.898  17.184  0.00  0.00    +0.000 HD
BRANCH  18  23
ATOM     20  C   UNL     1      50.733   2.450  17.462  0.00  0.00    +0.000 A 
ATOM     21  C   UNL     1      51.193   3.757  17.636  0.00  0.00    +0.000 A 
ATOM     22  C   UNL     1      50.357   4.845  17.345  0.00  0.00    +0.000 A 
ATOM     23  C   UNL     1      49.039   4.657  16.907  0.00  0.00    +0.000 A 
ATOM     24  C   UNL     1      48.605   3.335  16.719  0.00  0.00    +0.000 A 
ATOM     25  C   UNL     1      49.435   2.241  16.996  0.00  0.00    +0.000 A 
BRANCH  20  27
ATOM     26  N   UNL     1      52.276   0.432  17.981  0.00  0.00    +0.000 NA
ATOM     27  C   UNL     1      51.589   1.335  17.750  0.00  0.00    +0.000 C 
ENDBRANCH  20  27
ENDBRANCH  18  23
ENDBRANCH  17  18
ENDBRANCH   1  17
TORSDOF 6
ENDMDL
MODEL 8
REMARK VINA RESULT:    -6.948      1.685      2.283
REMARK INTER + INTRA:         -10.127
REMARK INTER:                  -9.387
REMARK INTRA:                  -0.740
REMARK UNBOUND:                -0.742
REMARK  Name = 
REMARK  6 active torsions:
REMARK  status: ('A' for Active; 'I' for Inactive)
REMARK    1  A    between atoms: C_2  and  C_3
REMARK    2  A    between atoms: C_6  and  N_7
REMARK    3  A    between atoms: N_7  and  C_8
REMARK    4  A    between atoms: C_8  and  C_9
REMARK    5  A    between atoms: C_11  and  C_12
REMARK    6  A    between atoms: C_16  and  C_17
REMARK                            x       y       z     vdW  Elec       q    Type
REMARK                         _______ _______ _______ _____ _____    ______ ____
ROOT
ATOM      1  C   UNL     1      44.894   6.582  12.088  0.00  0.00    +0.000 A 
ATOM      2  C   UNL     1      46.044   6.406  12.860  0.00  0.00    +0.000 A 
ATOM      3  C   UNL     1      46.902   7.492  13.117  0.00  0.00    +0.000 A 
ATOM      4  C   UNL     1      46.551   8.726  12.561  0.00  0.00    +0.000 A 
ATOM      5  C   UNL     1      45.399   8.820  11.799  0.00  0.00    +0.000 A 
ATOM      6  N   UNL     1      44.570   7.786  11.558  0.00  0.00    +0.000 NA
ENDROOT
BRANCH   3   7
ATOM      7  C   UNL     1      48.113   7.329  13.946  0.00  0.00    +0.000 A 
ATOM      8  C   UNL     1      49.340   7.914  13.619  0.00  0.00    +0.000 A 
ATOM      9  N   UNL     1      50.475   7.803  14.352  0.00  0.00    +0.000 NA
ATOM     10  C   UNL     1      50.403   7.069  15.481  0.00  0.00    +0.000 A 
ATOM     11  C   UNL     1      49.252   6.436  15.917  0.00  0.00    +0.000 A 
ATOM     12  C   UNL     1      48.100   6.577  15.131  0.00  0.00    +0.000 A 
BRANCH  11  13
ATOM     13  C   UNL     1      49.245   5.644  17.186  0.00  0.00    +0.000 C 
ATOM     14  F   UNL     1      49.911   6.248  18.208  0.00  0.00    +0.000 F 
ATOM     15  F   UNL     1      47.986   5.411  17.646  0.00  0.00    +0.000 F 
ATOM     16  F   UNL     1      49.820   4.419  17.038  0.00  0.00    +0.000 F 
ENDBRANCH  11  13
ENDBRANCH   3   7
BRANCH   1  17
ATOM     17  C   UNL     1      43.973   5.408  11.792  0.00  0.00    +0.000 C 
BRANCH  17  18
ATOM     18  N   UNL     1      43.791   5.183  10.362  0.00  0.00    +0.000 N 
ATOM     19  H   UNL     1      42.846   5.293  10.010  0.00  0.00    +0.000 HD
BRANCH  18  23
ATOM     20  C   UNL     1      46.047   2.422   8.099  0.00  0.00    +0.000 A 
ATOM     21  C   UNL     1      46.187   3.789   7.855  0.00  0.00    +0.000 A 
ATOM     22  C   UNL     1      45.455   4.720   8.607  0.00  0.00    +0.000 A 
ATOM     23  C   UNL     1      44.596   4.313   9.636  0.00  0.00    +0.000 A 
ATOM     24  C   UNL     1      44.455   2.932   9.851  0.00  0.00    +0.000 A 
ATOM     25  C   UNL     1      45.173   1.994   9.097  0.00  0.00    +0.000 A 
BRANCH  20  27
ATOM     26  N   UNL     1      47.383   0.697   6.696  0.00  0.00    +0.000 NA
ATOM     27  C   UNL     1      46.788   1.467   7.324  0.00  0.00    +0.000 C 
ENDBRANCH  20  27
ENDBRANCH  18  23
ENDBRANCH  17  18
ENDBRANCH   1  17
TORSDOF 6
ENDMDL
MODEL 9
REMARK VINA RESULT:    -6.801      4.036      8.559
REMARK INTER + INTRA:          -9.929
REMARK INTER:                  -9.358
REMARK INTRA:                  -0.570
REMARK UNBOUND:                -0.742
REMARK  Name = 
REMARK  6 active torsions:
REMARK  status: ('A' for Active; 'I' for Inactive)
REMARK    1  A    between atoms: C_2  and  C_3
REMARK    2  A    between atoms: C_6  and  N_7
REMARK    3  A    between atoms: N_7  and  C_8
REMARK    4  A    between atoms: C_8  and  C_9
REMARK    5  A    between atoms: C_11  and  C_12
REMARK    6  A    between atoms: C_16  and  C_17
REMARK                            x       y       z     vdW  Elec       q    Type
REMARK                         _______ _______ _______ _____ _____    ______ ____
ROOT
ATOM      1  C   UNL     1      47.105   7.593  13.334  0.00  0.00    +0.000 A 
ATOM      2  C   UNL     1      46.683   6.483  12.599  0.00  0.00    +0.000 A 
ATOM      3  C   UNL     1      45.562   6.574  11.753  0.00  0.00    +0.000 A 
ATOM      4  C   UNL     1      44.905   7.807  11.697  0.00  0.00    +0.000 A 
ATOM      5  C   UNL     1      45.378   8.860  12.462  0.00  0.00    +0.000 A 
ATOM      6  N   UNL     1      46.455   8.780  13.267  0.00  0.00    +0.000 NA
ENDROOT
BRANCH   3   7
ATOM      7  C   UNL     1      45.112   5.416  10.954  0.00  0.00    +0.000 A 
ATOM      8  C   UNL     1      44.002   4.641  11.304  0.00  0.00    +0.000 A 
ATOM      9  N   UNL     1      43.544   3.577  10.599  0.00  0.00    +0.000 NA
ATOM     10  C   UNL     1      44.218   3.251   9.477  0.00  0.00    +0.000 A 
ATOM     11  C   UNL     1      45.331   3.935   9.021  0.00  0.00    +0.000 A 
ATOM     12  C   UNL     1      45.772   5.030   9.778  0.00  0.00    +0.000 A 
BRANCH  11  13
ATOM     13  C   UNL     1      46.023   3.522   7.761  0.00  0.00    +0.000 C 
ATOM     14  F   UNL     1      45.176   3.330   6.713  0.00  0.00    +0.000 F 
ATOM     15  F   UNL     1      46.934   4.443   7.343  0.00  0.00    +0.000 F 
ATOM     16  F   UNL     1      46.711   2.356   7.904  0.00  0.00    +0.000 F 
ENDBRANCH  11  13
ENDBRANCH   3   7
BRANCH   1  17
ATOM     17  C   UNL     1      48.304   7.495  14.265  0.00  0.00    +0.000 C 
BRANCH  17  18
ATOM     18  N   UNL     1      48.017   6.732  15.475  0.00  0.00    +0.000 N 
ATOM     19  H   UNL     1      47.193   7.016  15.995  0.00  0.00    +0.000 HD
BRANCH  18  23
ATOM     20  C   UNL     1      51.002   4.694  17.660  0.00  0.00    +0.000 A 
ATOM     21  C   UNL     1      51.335   5.850  16.952  0.00  0.00    +0.000 A 
ATOM     22  C   UNL     1      50.352   6.547  16.233  0.00  0.00    +0.000 A 
ATOM     23  C   UNL     1      49.015   6.127  16.228  0.00  0.00    +0.000 A 
ATOM     24  C   UNL     1      48.707   4.951  16.930  0.00  0.00    +0.000 A 
ATOM     25  C   UNL     1      49.683   4.241  17.643  0.00  0.00    +0.000 A 
BRANCH  20  27
ATOM     26  N   UNL     1      52.818   3.391  18.973  0.00  0.00    +0.000 NA
ATOM     27  C   UNL     1      52.007   3.974  18.389  0.00  0.00    +0.000 C 
ENDBRANCH  20  27
ENDBRANCH  18  23
ENDBRANCH  17  18
ENDBRANCH   1  17
TORSDOF 6
ENDMDL
