MODEL 1
REMARK VINA RESULT:    -8.301      0.000      0.000
REMARK INTER + INTRA:         -12.157
REMARK INTER:                 -11.213
REMARK INTRA:                  -0.944
REMARK UNBOUND:                -0.944
REMARK  Name = 
REMARK  6 active torsions:
REMARK  status: ('A' for Active; 'I' for Inactive)
REMARK    1  A    between atoms: C_2  and  C_4
REMARK    2  A    between atoms: C_2  and  C_14
REMARK    3  A    between atoms: C_4  and  O_5
REMARK    4  A    between atoms: O_5  and  C_6
REMARK    5  A    between atoms: C_18  and  C_19
REMARK    6  A    between atoms: C_19  and  C_20
REMARK                            x       y       z     vdW  Elec       q    Type
REMARK                         _______ _______ _______ _____ _____    ______ ____
ROOT
ATOM      1  F   UNL     1      42.863   5.058  13.102  0.00  0.00    +0.000 F 
ATOM      2  C   UNL     1      43.846   4.396  12.426  0.00  0.00    +0.000 C 
ATOM      3  F   UNL     1      43.804   3.107  12.881  0.00  0.00    +0.000 F 
ENDROOT
BRANCH   2   4
ATOM      4  C   UNL     1      45.209   5.041  12.650  0.00  0.00    +0.000 A 
ATOM      5  C   UNL     1      45.766   5.887  11.677  0.00  0.00    +0.000 A 
ATOM      6  C   UNL     1      47.015   6.474  11.876  0.00  0.00    +0.000 A 
ATOM      7  C   UNL     1      47.711   6.255  13.064  0.00  0.00    +0.000 A 
ATOM      8  C   UNL     1      47.167   5.444  14.067  0.00  0.00    +0.000 A 
ATOM      9  C   UNL     1      45.928   4.819  13.838  0.00  0.00    +0.000 A 
BRANCH   8  10
ATOM     10  C   UNL     1      47.861   5.301  15.402  0.00  0.00    +0.000 C 
BRANCH  10  11
ATOM     11  C   UNL     1      47.266   4.183  16.239  0.00  0.00    +0.000 C 
ATOM     12  C   UNL     1      47.290   4.474  17.747  0.00  0.00    +0.000 C 
ATOM     13  O   UNL     1      48.051   3.279  18.020  0.00  0.00    +0.000 OA
ATOM     14  C   UNL     1      48.164   2.993  16.607  0.00  0.00    +0.000 C 
ENDBRANCH  10  11
ENDBRANCH   8  10
ENDBRANCH   2   4
BRANCH   2  15
ATOM     15  C   UNL     1      43.504   4.387  10.924  0.00  0.00    +0.000 C 
BRANCH  15  16
ATOM     16  O   UNL     1      43.660   3.084  10.329  0.00  0.00    +0.000 OA
BRANCH  16  17
ATOM     17  C   UNL     1      44.561   3.034   9.300  0.00  0.00    +0.000 A 
ATOM     18  C   UNL     1      44.963   4.113   8.516  0.00  0.00    +0.000 A 
ATOM     19  N   UNL     1      45.848   4.031   7.497  0.00  0.00    +0.000 NA
ATOM     20  C   UNL     1      46.377   2.809   7.257  0.00  0.00    +0.000 A 
ATOM     21 CL   UNL     1      47.474   2.816   5.932  0.00  0.00    +0.000 Cl
ATOM     22  C   UNL     1      46.066   1.670   7.992  0.00  0.00    +0.000 A 
ATOM     23 CL   UNL     1      46.753   0.124   7.664  0.00  0.00    +0.000 Cl
ATOM     24  C   UNL     1      45.149   1.793   9.036  0.00  0.00    +0.000 A 
ENDBRANCH  16  17
ENDBRANCH  15  16
ENDBRANCH   2  15
TORSDOF 6
ENDMDL
MODEL 2
REMARK VINA RESULT:    -7.672      2.426      3.584
REMARK INTER + INTRA:         -11.307
REMARK INTER:                 -10.403
REMARK INTRA:                  -0.904
REMARK UNBOUND:                -0.944
REMARK  Name = 
REMARK  6 active torsions:
REMARK  status: ('A' for Active; 'I' for Inactive)
REMARK    1  A    between atoms: C_2  and  C_4
REMARK    2  A    between atoms: C_2  and  C_14
REMARK    3  A    between atoms: C_4  and  O_5
REMARK    4  A    between atoms: O_5  and  C_6
REMARK    5  A    between atoms: C_18  and  C_19
REMARK    6  A    between atoms: C_19  and  C_20
REMARK                            x       y       z     vdW  Elec       q    Type
REMARK                         _______ _______ _______ _____ _____    ______ ____
ROOT
ATOM      1  F   UNL     1      43.572   5.594  10.882  0.00  0.00    +0.000 F 
ATOM      2  C   UNL     1      44.031   4.805  11.896  0.00  0.00    +0.000 C 
ATOM      3  F   UNL     1      43.056   4.830  12.854  0.00  0.00    +0.000 F 
ENDROOT
BRANCH   2   4
ATOM      4  C   UNL     1      45.372   5.300  12.426  0.00  0.00    +0.000 A 
ATOM      5  C   UNL     1      45.916   4.761  13.603  0.00  0.00    +0.000 A 
ATOM      6  C   UNL     1      47.140   5.215  14.093  0.00  0.00    +0.000 A 
ATOM      7  C   UNL     1      47.857   6.188  13.398  0.00  0.00    +0.000 A 
ATOM      8  C   UNL     1      47.356   6.721  12.204  0.00  0.00    +0.000 A 
ATOM      9  C   UNL     1      46.099   6.291  11.742  0.00  0.00    +0.000 A 
BRANCH   8  10
ATOM     10  C   UNL     1      48.183   7.687  11.386  0.00  0.00    +0.000 C 
BRANCH  10  11
ATOM     11  C   UNL     1      49.501   8.025  12.061  0.00  0.00    +0.000 C 
ATOM     12  C   UNL     1      49.918   9.492  11.878  0.00  0.00    +0.000 C 
ATOM     13  O   UNL     1      51.171   9.114  11.268  0.00  0.00    +0.000 OA
ATOM     14  C   UNL     1      50.803   7.716  11.308  0.00  0.00    +0.000 C 
ENDBRANCH  10  11
ENDBRANCH   8  10
ENDBRANCH   2   4
BRANCH   2  15
ATOM     15  C   UNL     1      44.165   3.358  11.383  0.00  0.00    +0.000 C 
BRANCH  15  16
ATOM     16  O   UNL     1      43.699   3.206  10.028  0.00  0.00    +0.000 OA
BRANCH  16  17
ATOM     17  C   UNL     1      44.693   3.076   9.097  0.00  0.00    +0.000 A 
ATOM     18  C   UNL     1      45.272   4.116   8.373  0.00  0.00    +0.000 A 
ATOM     19  N   UNL     1      46.247   3.955   7.449  0.00  0.00    +0.000 NA
ATOM     20  C   UNL     1      46.682   2.690   7.248  0.00  0.00    +0.000 A 
ATOM     21 CL   UNL     1      47.906   2.600   6.043  0.00  0.00    +0.000 Cl
ATOM     22  C   UNL     1      46.192   1.582   7.931  0.00  0.00    +0.000 A 
ATOM     23 CL   UNL     1      46.763  -0.020   7.654  0.00  0.00    +0.000 Cl
ATOM     24  C   UNL     1      45.187   1.786   8.877  0.00  0.00    +0.000 A 
ENDBRANCH  16  17
ENDBRANCH  15  16
ENDBRANCH   2  15
TORSDOF 6
ENDMDL
MODEL 3
REMARK VINA RESULT:    -7.621      4.218      7.659
REMARK INTER + INTRA:         -11.238
REMARK INTER:                 -10.671
REMARK INTRA:                  -0.567
REMARK UNBOUND:                -0.944
REMARK  Name = 
REMARK  6 active torsions:
REMARK  status: ('A' for Active; 'I' for Inactive)
REMARK    1  A    between atoms: C_2  and  C_4
REMARK    2  A    between atoms: C_2  and  C_14
REMARK    3  A    between atoms: C_4  and  O_5
REMARK    4  A    between atoms: O_5  and  C_6
REMARK    5  A    between atoms: C_18  and  C_19
REMARK    6  A    between atoms: C_19  and  C_20
REMARK                            x       y       z     vdW  Elec       q    Type
REMARK                         _______ _______ _______ _____ _____    ______ ____
ROOT
ATOM      1  F   UNL     1      43.700   5.884  12.416  0.00  0.00    +0.000 F 
ATOM      2  C   UNL     1      44.729   6.037  11.534  0.00  0.00    +0.000 C 
ATOM      3  F   UNL     1      44.488   7.217  10.886  0.00  0.00    +0.000 F 
ENDROOT
BRANCH   2   4
ATOM      4  C   UNL     1      44.819   4.859  10.570  0.00  0.00    +0.000 A 
ATOM      5  C   UNL     1      44.063   3.697  10.792  0.00  0.00    +0.000 A 
ATOM      6  C   UNL     1      44.148   2.616   9.915  0.00  0.00    +0.000 A 
ATOM      7  C   UNL     1      44.959   2.692   8.784  0.00  0.00    +0.000 A 
ATOM      8  C   UNL     1      45.699   3.850   8.518  0.00  0.00    +0.000 A 
ATOM      9  C   UNL     1      45.644   4.917   9.432  0.00  0.00    +0.000 A 
BRANCH   8  10
ATOM     10  C   UNL     1      46.485   3.982   7.233  0.00  0.00    +0.000 C 
BRANCH  10  11
ATOM     11  C   UNL     1      46.598   2.661   6.494  0.00  0.00    +0.000 C 
ATOM     12  C   UNL     1      47.718   1.757   7.032  0.00  0.00    +0.000 C 
ATOM     13  O   UNL     1      48.360   1.694   5.741  0.00  0.00    +0.000 OA
ATOM     14  C   UNL     1      47.404   2.626   5.186  0.00  0.00    +0.000 C 
ENDBRANCH  10  11
ENDBRANCH   8  10
ENDBRANCH   2   4
BRANCH   2  15
ATOM     15  C   UNL     1      46.047   6.181  12.320  0.00  0.00    +0.000 C 
BRANCH  15  16
ATOM     16  O   UNL     1      46.457   4.949  12.943  0.00  0.00    +0.000 OA
BRANCH  16  17
ATOM     17  C   UNL     1      47.157   5.107  14.108  0.00  0.00    +0.000 A 
ATOM     18  C   UNL     1      48.049   6.140  14.388  0.00  0.00    +0.000 A 
ATOM     19  N   UNL     1      48.736   6.264  15.547  0.00  0.00    +0.000 NA
ATOM     20  C   UNL     1      48.509   5.317  16.486  0.00  0.00    +0.000 A 
ATOM     21 CL   UNL     1      49.446   5.563  17.907  0.00  0.00    +0.000 Cl
ATOM     22  C   UNL     1      47.623   4.258  16.321  0.00  0.00    +0.000 A 
ATOM     23 CL   UNL     1      47.353   3.063  17.533  0.00  0.00    +0.000 Cl
ATOM     24  C   UNL     1      46.931   4.162  15.113  0.00  0.00    +0.000 A 
ENDBRANCH  16  17
ENDBRANCH  15  16
ENDBRANCH   2  15
TORSDOF 6
ENDMDL
MODEL 4
REMARK VINA RESULT:    -7.471      1.782      2.226
REMARK INTER + INTRA:         -11.035
REMARK INTER:                 -10.152
REMARK INTRA:                  -0.884
REMARK UNBOUND:                -0.944
REMARK  Name = 
REMARK  6 active torsions:
REMARK  status: ('A' for Active; 'I' for Inactive)
REMARK    1  A    between atoms: C_2  and  C_4
REMARK    2  A    between atoms: C_2  and  C_14
REMARK    3  A    between atoms: C_4  and  O_5
REMARK    4  A    between atoms: O_5  and  C_6
REMARK    5  A    between atoms: C_18  and  C_19
REMARK    6  A    between atoms: C_19  and  C_20
REMARK                            x       y       z     vdW  Elec       q    Type
REMARK                         _______ _______ _______ _____ _____    ______ ____
ROOT
ATOM      1  F   UNL     1      42.509   5.217  11.184  0.00  0.00    +0.000 F 
ATOM      2  C   UNL     1      43.484   4.877  12.076  0.00  0.00    +0.000 C 
ATOM      3  F   UNL     1      42.854   4.757  13.284  0.00  0.00    +0.000 F 
ENDROOT
BRANCH   2   4
ATOM      4  C   UNL     1      44.599   5.915  12.109  0.00  0.00    +0.000 A 
ATOM      5  C   UNL     1      44.362   7.231  11.679  0.00  0.00    +0.000 A 
ATOM      6  C   UNL     1      45.382   8.181  11.704  0.00  0.00    +0.000 A 
ATOM      7  C   UNL     1      46.644   7.844  12.192  0.00  0.00    +0.000 A 
ATOM      8  C   UNL     1      46.901   6.550  12.659  0.00  0.00    +0.000 A 
ATOM      9  C   UNL     1      45.880   5.585  12.587  0.00  0.00    +0.000 A 
BRANCH   8  10
ATOM     10  C   UNL     1      48.229   6.213  13.299  0.00  0.00    +0.000 C 
BRANCH  10  11
ATOM     11  C   UNL     1      48.597   7.191  14.401  0.00  0.00    +0.000 C 
ATOM     12  C   UNL     1      50.076   7.603  14.379  0.00  0.00    +0.000 C 
ATOM     13  O   UNL     1      50.280   7.139  15.731  0.00  0.00    +0.000 OA
ATOM     14  C   UNL     1      48.929   6.628  15.791  0.00  0.00    +0.000 C 
ENDBRANCH  10  11
ENDBRANCH   8  10
ENDBRANCH   2   4
BRANCH   2  15
ATOM     15  C   UNL     1      44.054   3.497  11.693  0.00  0.00    +0.000 C 
BRANCH  15  16
ATOM     16  O   UNL     1      43.517   3.002  10.451  0.00  0.00    +0.000 OA
BRANCH  16  17
ATOM     17  C   UNL     1      44.403   3.005   9.408  0.00  0.00    +0.000 A 
ATOM     18  C   UNL     1      44.701   4.098   8.596  0.00  0.00    +0.000 A 
ATOM     19  N   UNL     1      45.574   4.067   7.563  0.00  0.00    +0.000 NA
ATOM     20  C   UNL     1      46.198   2.889   7.337  0.00  0.00    +0.000 A 
ATOM     21 CL   UNL     1      47.269   2.959   5.993  0.00  0.00    +0.000 Cl
ATOM     22  C   UNL     1      45.993   1.743   8.099  0.00  0.00    +0.000 A 
ATOM     23 CL   UNL     1      46.800   0.252   7.789  0.00  0.00    +0.000 Cl
ATOM     24  C   UNL     1      45.086   1.812   9.157  0.00  0.00    +0.000 A 
ENDBRANCH  16  17
ENDBRANCH  15  16
ENDBRANCH   2  15
TORSDOF 6
ENDMDL
MODEL 5
REMARK VINA RESULT:    -7.362      2.863      4.884
REMARK INTER + INTRA:         -10.888
REMARK INTER:                 -10.086
REMARK INTRA:                  -0.803
REMARK UNBOUND:                -0.944
REMARK  Name = 
REMARK  6 active torsions:
REMARK  status: ('A' for Active; 'I' for Inactive)
REMARK    1  A    between atoms: C_2  and  C_4
REMARK    2  A    between atoms: C_2  and  C_14
REMARK    3  A    between atoms: C_4  and  O_5
REMARK    4  A    between atoms: O_5  and  C_6
REMARK    5  A    between atoms: C_18  and  C_19
REMARK    6  A    between atoms: C_19  and  C_20
REMARK                            x       y       z     vdW  Elec       q    Type
REMARK                         _______ _______ _______ _____ _____    ______ ____
ROOT
ATOM      1  F   UNL     1      44.352   4.686  13.401  0.00  0.00    +0.000 F 
ATOM      2  C   UNL     1      45.050   4.870  12.243  0.00  0.00    +0.000 C 
ATOM      3  F   UNL     1      45.970   3.859  12.203  0.00  0.00    +0.000 F 
ENDROOT
BRANCH   2   4
ATOM      4  C   UNL     1      45.704   6.246  12.197  0.00  0.00    +0.000 A 
ATOM      5  C   UNL     1      47.102   6.371  12.192  0.00  0.00    +0.000 A 
ATOM      6  C   UNL     1      47.703   7.629  12.155  0.00  0.00    +0.000 A 
ATOM      7  C   UNL     1      46.919   8.779  12.085  0.00  0.00    +0.000 A 
ATOM      8  C   UNL     1      45.522   8.686  12.054  0.00  0.00    +0.000 A 
ATOM      9  C   UNL     1      44.924   7.415  12.139  0.00  0.00    +0.000 A 
BRANCH   8  10
ATOM     10  C   UNL     1      44.673   9.920  11.858  0.00  0.00    +0.000 C 
BRANCH  10  11
ATOM     11  C   UNL     1      43.589   9.708  10.815  0.00  0.00    +0.000 C 
ATOM     12  C   UNL     1      43.793  10.551   9.547  0.00  0.00    +0.000 C 
ATOM     13  O   UNL     1      42.503  11.180   9.694  0.00  0.00    +0.000 OA
ATOM     14  C   UNL     1      42.282  10.503  10.953  0.00  0.00    +0.000 C 
ENDBRANCH  10  11
ENDBRANCH   8  10
ENDBRANCH   2   4
BRANCH   2  15
ATOM     15  C   UNL     1      44.093   4.696  11.048  0.00  0.00    +0.000 C 
BRANCH  15  16
ATOM     16  O   UNL     1      44.123   3.362  10.505  0.00  0.00    +0.000 OA
BRANCH  16  17
ATOM     17  C   UNL     1      44.899   3.221   9.387  0.00  0.00    +0.000 A 
ATOM     18  C   UNL     1      45.261   4.244   8.513  0.00  0.00    +0.000 A 
ATOM     19  N   UNL     1      46.022   4.072   7.407  0.00  0.00    +0.000 NA
ATOM     20  C   UNL     1      46.460   2.815   7.168  0.00  0.00    +0.000 A 
ATOM     21 CL   UNL     1      47.401   2.708   5.732  0.00  0.00    +0.000 Cl
ATOM     22  C   UNL     1      46.179   1.726   7.986  0.00  0.00    +0.000 A 
ATOM     23 CL   UNL     1      46.749   0.133   7.659  0.00  0.00    +0.000 Cl
ATOM     24  C   UNL     1      45.392   1.941   9.119  0.00  0.00    +0.000 A 
ENDBRANCH  16  17
ENDBRANCH  15  16
ENDBRANCH   2  15
TORSDOF 6
ENDMDL
MODEL 6
REMARK VINA RESULT:    -7.030      4.116      7.299
REMARK INTER + INTRA:         -10.440
REMARK INTER:                  -9.463
REMARK INTRA:                  -0.977
REMARK UNBOUND:                -0.944
REMARK  Name = 
REMARK  6 active torsions:
REMARK  status: ('A' for Active; 'I' for Inactive)
REMARK    1  A    between atoms: C_2  and  C_4
REMARK    2  A    between atoms: C_2  and  C_14
REMARK    3  A    between atoms: C_4  and  O_5
REMARK    4  A    between atoms: O_5  and  C_6
REMARK    5  A    between atoms: C_18  and  C_19
REMARK    6  A    between atoms: C_19  and  C_20
REMARK                            x       y       z     vdW  Elec       q    Type
REMARK                         _______ _______ _______ _____ _____    ______ ____
ROOT
ATOM      1  F   UNL     1      44.001   7.531  11.456  0.00  0.00    +0.000 F 
ATOM      2  C   UNL     1      45.047   6.658  11.521  0.00  0.00    +0.000 C 
ATOM      3  F   UNL     1      45.885   7.010  10.499  0.00  0.00    +0.000 F 
ENDROOT
BRANCH   2   4
ATOM      4  C   UNL     1      44.577   5.212  11.407  0.00  0.00    +0.000 A 
ATOM      5  C   UNL     1      43.801   4.633  12.424  0.00  0.00    +0.000 A 
ATOM      6  C   UNL     1      43.374   3.309  12.325  0.00  0.00    +0.000 A 
ATOM      7  C   UNL     1      43.684   2.554  11.195  0.00  0.00    +0.000 A 
ATOM      8  C   UNL     1      44.427   3.115  10.149  0.00  0.00    +0.000 A 
ATOM      9  C   UNL     1      44.893   4.436  10.278  0.00  0.00    +0.000 A 
BRANCH   8  10
ATOM     10  C   UNL     1      44.663   2.341   8.872  0.00  0.00    +0.000 C 
BRANCH  10  11
ATOM     11  C   UNL     1      46.083   2.504   8.359  0.00  0.00    +0.000 C 
ATOM     12  C   UNL     1      46.157   3.177   6.979  0.00  0.00    +0.000 C 
ATOM     13  O   UNL     1      46.863   2.054   6.411  0.00  0.00    +0.000 OA
ATOM     14  C   UNL     1      46.740   1.313   7.647  0.00  0.00    +0.000 C 
ENDBRANCH  10  11
ENDBRANCH   8  10
ENDBRANCH   2   4
BRANCH   2  15
ATOM     15  C   UNL     1      45.795   6.870  12.851  0.00  0.00    +0.000 C 
BRANCH  15  16
ATOM     16  O   UNL     1      47.103   6.266  12.853  0.00  0.00    +0.000 OA
BRANCH  16  17
ATOM     17  C   UNL     1      47.330   5.405  13.892  0.00  0.00    +0.000 A 
ATOM     18  C   UNL     1      47.135   4.026  13.864  0.00  0.00    +0.000 A 
ATOM     19  N   UNL     1      47.358   3.201  14.912  0.00  0.00    +0.000 NA
ATOM     20  C   UNL     1      47.816   3.779  16.046  0.00  0.00    +0.000 A 
ATOM     21 CL   UNL     1      48.047   2.642  17.317  0.00  0.00    +0.000 Cl
ATOM     22  C   UNL     1      48.068   5.140  16.177  0.00  0.00    +0.000 A 
ATOM     23 CL   UNL     1      48.652   5.852  17.634  0.00  0.00    +0.000 Cl
ATOM     24  C   UNL     1      47.828   5.961  15.074  0.00  0.00    +0.000 A 
ENDBRANCH  16  17
ENDBRANCH  15  16
ENDBRANCH   2  15
TORSDOF 6
ENDMDL
MODEL 7
REMARK VINA RESULT:    -6.928      4.592      7.969
REMARK INTER + INTRA:         -10.302
REMARK INTER:                  -9.728
REMARK INTRA:                  -0.574
REMARK UNBOUND:                -0.944
REMARK  Name = 
REMARK  6 active torsions:
REMARK  status: ('A' for Active; 'I' for Inactive)
REMARK    1  A    between atoms: C_2  and  C_4
REMARK    2  A    between atoms: C_2  and  C_14
REMARK    3  A    between atoms: C_4  and  O_5
REMARK    4  A    between atoms: O_5  and  C_6
REMARK    5  A    between atoms: C_18  and  C_19
REMARK    6  A    between atoms: C_19  and  C_20
REMARK                            x       y       z     vdW  Elec       q    Type
REMARK                         _______ _______ _______ _____ _____    ______ ____
ROOT
ATOM      1  F   UNL     1      44.522   5.419  12.674  0.00  0.00    +0.000 F 
ATOM      2  C   UNL     1      44.819   5.834  11.408  0.00  0.00    +0.000 C 
ATOM      3  F   UNL     1      43.841   6.730  11.076  0.00  0.00    +0.000 F 
ENDROOT
BRANCH   2   4
ATOM      4  C   UNL     1      44.881   4.663  10.436  0.00  0.00    +0.000 A 
ATOM      5  C   UNL     1      44.160   3.485  10.690  0.00  0.00    +0.000 A 
ATOM      6  C   UNL     1      44.220   2.410   9.804  0.00  0.00    +0.000 A 
ATOM      7  C   UNL     1      44.970   2.506   8.633  0.00  0.00    +0.000 A 
ATOM      8  C   UNL     1      45.672   3.680   8.335  0.00  0.00    +0.000 A 
ATOM      9  C   UNL     1      45.644   4.742   9.256  0.00  0.00    +0.000 A 
BRANCH   8  10
ATOM     10  C   UNL     1      46.388   3.833   7.012  0.00  0.00    +0.000 C 
BRANCH  10  11
ATOM     11  C   UNL     1      46.664   2.493   6.353  0.00  0.00    +0.000 C 
ATOM     12  C   UNL     1      47.833   1.730   6.993  0.00  0.00    +0.000 C 
ATOM     13  O   UNL     1      48.546   1.664   5.740  0.00  0.00    +0.000 OA
ATOM     14  C   UNL     1      47.537   2.471   5.089  0.00  0.00    +0.000 C 
ENDBRANCH  10  11
ENDBRANCH   8  10
ENDBRANCH   2   4
BRANCH   2  15
ATOM     15  C   UNL     1      46.167   6.581  11.428  0.00  0.00    +0.000 C 
BRANCH  15  16
ATOM     16  O   UNL     1      46.205   7.627  12.418  0.00  0.00    +0.000 OA
BRANCH  16  17
ATOM     17  C   UNL     1      47.151   7.454  13.391  0.00  0.00    +0.000 A 
ATOM     18  C   UNL     1      47.748   6.244  13.741  0.00  0.00    +0.000 A 
ATOM     19  N   UNL     1      48.674   6.102  14.717  0.00  0.00    +0.000 NA
ATOM     20  C   UNL     1      49.038   7.229  15.370  0.00  0.00    +0.000 A 
ATOM     21 CL   UNL     1      50.203   6.929  16.599  0.00  0.00    +0.000 Cl
ATOM     22  C   UNL     1      48.525   8.490  15.087  0.00  0.00    +0.000 A 
ATOM     23 CL   UNL     1      49.005   9.912  15.935  0.00  0.00    +0.000 Cl
ATOM     24  C   UNL     1      47.572   8.599  14.073  0.00  0.00    +0.000 A 
ENDBRANCH  16  17
ENDBRANCH  15  16
ENDBRANCH   2  15
TORSDOF 6
ENDMDL
MODEL 8
REMARK VINA RESULT:    -6.336      4.726      8.088
REMARK INTER + INTRA:          -9.502
REMARK INTER:                  -8.886
REMARK INTRA:                  -0.616
REMARK UNBOUND:                -0.944
REMARK  Name = 
REMARK  6 active torsions:
REMARK  status: ('A' for Active; 'I' for Inactive)
REMARK    1  A    between atoms: C_2  and  C_4
REMARK    2  A    between atoms: C_2  and  C_14
REMARK    3  A    between atoms: C_4  and  O_5
REMARK    4  A    between atoms: O_5  and  C_6
REMARK    5  A    between atoms: C_18  and  C_19
REMARK    6  A    between atoms: C_19  and  C_20
REMARK                            x       y       z     vdW  Elec       q    Type
REMARK                         _______ _______ _______ _____ _____    ______ ____
ROOT
ATOM      1  F   UNL     1      46.606   5.919  14.544  0.00  0.00    +0.000 F 
ATOM      2  C   UNL     1      46.804   4.871  13.693  0.00  0.00    +0.000 C 
ATOM      3  F   UNL     1      47.856   5.234  12.899  0.00  0.00    +0.000 F 
ENDROOT
BRANCH   2   4
ATOM      4  C   UNL     1      45.550   4.564  12.883  0.00  0.00    +0.000 A 
ATOM      5  C   UNL     1      44.315   5.128  13.239  0.00  0.00    +0.000 A 
ATOM      6  C   UNL     1      43.165   4.845  12.503  0.00  0.00    +0.000 A 
ATOM      7  C   UNL     1      43.237   4.024  11.378  0.00  0.00    +0.000 A 
ATOM      8  C   UNL     1      44.460   3.474  10.978  0.00  0.00    +0.000 A 
ATOM      9  C   UNL     1      45.606   3.727  11.753  0.00  0.00    +0.000 A 
BRANCH   8  10
ATOM     10  C   UNL     1      44.565   2.683   9.694  0.00  0.00    +0.000 C 
BRANCH  10  11
ATOM     11  C   UNL     1      44.730   3.582   8.481  0.00  0.00    +0.000 C 
ATOM     12  C   UNL     1      45.789   3.076   7.489  0.00  0.00    +0.000 C 
ATOM     13  O   UNL     1      46.542   4.303   7.585  0.00  0.00    +0.000 OA
ATOM     14  C   UNL     1      45.649   4.807   8.604  0.00  0.00    +0.000 C 
ENDBRANCH  10  11
ENDBRANCH   8  10
ENDBRANCH   2   4
BRANCH   2  15
ATOM     15  C   UNL     1      47.223   3.634  14.511  0.00  0.00    +0.000 C 
BRANCH  15  16
ATOM     16  O   UNL     1      46.696   3.653  15.852  0.00  0.00    +0.000 OA
BRANCH  16  17
ATOM     17  C   UNL     1      47.620   3.933  16.822  0.00  0.00    +0.000 A 
ATOM     18  C   UNL     1      47.462   4.852  17.856  0.00  0.00    +0.000 A 
ATOM     19  N   UNL     1      48.399   5.117  18.795  0.00  0.00    +0.000 NA
ATOM     20  C   UNL     1      49.551   4.414  18.710  0.00  0.00    +0.000 A 
ATOM     21 CL   UNL     1      50.675   4.841  19.940  0.00  0.00    +0.000 Cl
ATOM     22  C   UNL     1      49.805   3.455  17.734  0.00  0.00    +0.000 A 
ATOM     23 CL   UNL     1      51.283   2.573  17.647  0.00  0.00    +0.000 Cl
ATOM     24  C   UNL     1      48.815   3.208  16.783  0.00  0.00    +0.000 A 
ENDBRANCH  16  17
ENDBRANCH  15  16
ENDBRANCH   2  15
TORSDOF 6
ENDMDL
MODEL 9
REMARK VINA RESULT:    -6.193      4.665      7.826
REMARK INTER + INTRA:          -9.310
REMARK INTER:                  -8.586
REMARK INTRA:                  -0.723
REMARK UNBOUND:                -0.944
REMARK  Name = 
REMARK  6 active torsions:
REMARK  status: ('A' for Active; 'I' for Inactive)
REMARK    1  A    between atoms: C_2  and  C_4
REMARK    2  A    between atoms: C_2  and  C_14
REMARK    3  A    between atoms: C_4  and  O_5
REMARK    4  A    between atoms: O_5  and  C_6
REMARK    5  A    between atoms: C_18  and  C_19
REMARK    6  A    between atoms: C_19  and  C_20
REMARK                            x       y       z     vdW  Elec       q    Type
REMARK                         _______ _______ _______ _____ _____    ______ ____
ROOT
ATOM      1  F   UNL     1      46.772   8.079  13.007  0.00  0.00    +0.000 F 
ATOM      2  C   UNL     1      47.012   6.895  12.374  0.00  0.00    +0.000 C 
ATOM      3  F   UNL     1      47.874   7.191  11.354  0.00  0.00    +0.000 F 
ENDROOT
BRANCH   2   4
ATOM      4  C   UNL     1      45.723   6.257  11.870  0.00  0.00    +0.000 A 
ATOM      5  C   UNL     1      44.568   7.034  11.686  0.00  0.00    +0.000 A 
ATOM      6  C   UNL     1      43.385   6.453  11.231  0.00  0.00    +0.000 A 
ATOM      7  C   UNL     1      43.346   5.095  10.918  0.00  0.00    +0.000 A 
ATOM      8  C   UNL     1      44.490   4.301  11.059  0.00  0.00    +0.000 A 
ATOM      9  C   UNL     1      45.666   4.886  11.563  0.00  0.00    +0.000 A 
BRANCH   8  10
ATOM     10  C   UNL     1      44.486   2.858  10.608  0.00  0.00    +0.000 C 
BRANCH  10  11
ATOM     11  C   UNL     1      44.568   2.731   9.097  0.00  0.00    +0.000 C 
ATOM     12  C   UNL     1      45.573   1.666   8.631  0.00  0.00    +0.000 C 
ATOM     13  O   UNL     1      46.314   2.631   7.854  0.00  0.00    +0.000 OA
ATOM     14  C   UNL     1      45.476   3.707   8.334  0.00  0.00    +0.000 C 
ENDBRANCH  10  11
ENDBRANCH   8  10
ENDBRANCH   2   4
BRANCH   2  15
ATOM     15  C   UNL     1      47.731   5.942  13.348  0.00  0.00    +0.000 C 
BRANCH  15  16
ATOM     16  O   UNL     1      48.657   6.629  14.212  0.00  0.00    +0.000 OA
BRANCH  16  17
ATOM     17  C   UNL     1      48.597   6.250  15.526  0.00  0.00    +0.000 A 
ATOM     18  C   UNL     1      49.091   6.977  16.606  0.00  0.00    +0.000 A 
ATOM     19  N   UNL     1      49.027   6.570  17.895  0.00  0.00    +0.000 NA
ATOM     20  C   UNL     1      48.422   5.382  18.122  0.00  0.00    +0.000 A 
ATOM     21 CL   UNL     1      48.412   4.956  19.788  0.00  0.00    +0.000 Cl
ATOM     22  C   UNL     1      47.873   4.586  17.122  0.00  0.00    +0.000 A 
ATOM     23 CL   UNL     1      47.108   3.075  17.437  0.00  0.00    +0.000 Cl
ATOM     24  C   UNL     1      47.957   5.038  15.804  0.00  0.00    +0.000 A 
ENDBRANCH  16  17
ENDBRANCH  15  16
ENDBRANCH   2  15
TORSDOF 6
ENDMDL
