MODEL 1
REMARK VINA RESULT:    -7.819      0.000      0.000
REMARK INTER + INTRA:         -11.995
REMARK INTER:                 -11.019
REMARK INTRA:                  -0.976
REMARK UNBOUND:                -0.976
REMARK  Name = 
REMARK  7 active torsions:
REMARK  status: ('A' for Active; 'I' for Inactive)
REMARK    1  A    between atoms: C_2  and  C_3
REMARK    2  A    between atoms: C_5  and  C_6
REMARK    3  A    between atoms: C_11  and  N_12
REMARK    4  A    between atoms: N_12  and  C_13
REMARK    5  A    between atoms: C_13  and  C_14
REMARK    6  A    between atoms: C_17  and  O_18
REMARK    7  A    between atoms: O_18  and  C_19
REMARK                            x       y       z     vdW  Elec       q    Type
REMARK                         _______ _______ _______ _____ _____    ______ ____
ROOT
ATOM      1  N   UNL     1      43.708   5.069   9.756  0.00  0.00    +0.000 N 
ATOM      2  H   UNL     1      42.754   4.936   9.423  0.00  0.00    +0.000 HD
ENDROOT
BRANCH   1   8
ATOM      3  C   UNL     1      44.647   2.798   9.582  0.00  0.00    +0.000 A 
ATOM      4  C   UNL     1      45.506   1.883   8.964  0.00  0.00    +0.000 A 
ATOM      5  C   UNL     1      46.352   2.349   7.975  0.00  0.00    +0.000 A 
ATOM      6  N   UNL     1      46.375   3.639   7.558  0.00  0.00    +0.000 NA
ATOM      7  C   UNL     1      45.508   4.487   8.167  0.00  0.00    +0.000 A 
ATOM      8  C   UNL     1      44.638   4.155   9.208  0.00  0.00    +0.000 A 
BRANCH   5   9
ATOM      9  C   UNL     1      47.319   1.414   7.323  0.00  0.00    +0.000 C 
ATOM     10  N   UNL     1      48.360   2.003   6.662  0.00  0.00    +0.000 N 
ATOM     11  O   UNL     1      47.195   0.197   7.387  0.00  0.00    +0.000 OA
ATOM     12  H   UNL     1      48.439   3.013   6.642  0.00  0.00    +0.000 HD
ATOM     13  H   UNL     1      49.060   1.424   6.224  0.00  0.00    +0.000 HD
ENDBRANCH   5   9
BRANCH   3  15
ATOM     14  N   UNL     1      43.078   1.917  11.449  0.00  0.00    +0.000 NA
ATOM     15  C   UNL     1      43.787   2.308  10.622  0.00  0.00    +0.000 C 
ENDBRANCH   3  15
ENDBRANCH   1   8
BRANCH   1  16
ATOM     16  C   UNL     1      43.799   5.649  11.113  0.00  0.00    +0.000 C 
ATOM     17  C   UNL     1      42.673   5.248  12.060  0.00  0.00    +0.000 C 
ATOM     18  C   UNL     1      42.799   6.671  11.630  0.00  0.00    +0.000 C 
BRANCH  16  19
ATOM     19  C   UNL     1      45.217   5.741  11.671  0.00  0.00    +0.000 A 
ATOM     20  C   UNL     1      46.089   6.768  11.269  0.00  0.00    +0.000 A 
ATOM     21  C   UNL     1      47.359   6.931  11.833  0.00  0.00    +0.000 A 
ATOM     22  C   UNL     1      47.775   6.090  12.858  0.00  0.00    +0.000 A 
ATOM     23  C   UNL     1      46.962   5.014  13.219  0.00  0.00    +0.000 A 
ATOM     24  C   UNL     1      45.703   4.840  12.629  0.00  0.00    +0.000 A 
BRANCH  22  25
ATOM     25  O   UNL     1      48.942   6.190  13.550  0.00  0.00    +0.000 OA
BRANCH  25  26
ATOM     26  C   UNL     1      48.963   6.926  14.766  0.00  0.00    +0.000 C 
ATOM     27  F   UNL     1      48.028   7.898  14.845  0.00  0.00    +0.000 F 
ATOM     28  F   UNL     1      48.744   6.068  15.788  0.00  0.00    +0.000 F 
ATOM     29  F   UNL     1      50.182   7.479  14.935  0.00  0.00    +0.000 F 
ENDBRANCH  25  26
ENDBRANCH  22  25
ENDBRANCH  16  19
ENDBRANCH   1  16
TORSDOF 7
ENDMDL
MODEL 2
REMARK VINA RESULT:    -7.617      4.287      6.572
REMARK INTER + INTRA:         -11.710
REMARK INTER:                 -10.885
REMARK INTRA:                  -0.825
REMARK UNBOUND:                -0.976
REMARK  Name = 
REMARK  7 active torsions:
REMARK  status: ('A' for Active; 'I' for Inactive)
REMARK    1  A    between atoms: C_2  and  C_3
REMARK    2  A    between atoms: C_5  and  C_6
REMARK    3  A    between atoms: C_11  and  N_12
REMARK    4  A    between atoms: N_12  and  C_13
REMARK    5  A    between atoms: C_13  and  C_14
REMARK    6  A    between atoms: C_17  and  O_18
REMARK    7  A    between atoms: O_18  and  C_19
REMARK                            x       y       z     vdW  Elec       q    Type
REMARK                         _______ _______ _______ _____ _____    ______ ____
ROOT
ATOM      1  N   UNL     1      44.755   5.665  12.844  0.00  0.00    +0.000 N 
ATOM      2  H   UNL     1      44.268   5.766  13.733  0.00  0.00    +0.000 HD
ENDROOT
BRANCH   1   8
ATOM      3  C   UNL     1      47.201   5.679  13.136  0.00  0.00    +0.000 A 
ATOM      4  C   UNL     1      48.437   6.319  12.994  0.00  0.00    +0.000 A 
ATOM      5  C   UNL     1      48.449   7.615  12.513  0.00  0.00    +0.000 A 
ATOM      6  N   UNL     1      47.329   8.288  12.150  0.00  0.00    +0.000 NA
ATOM      7  C   UNL     1      46.154   7.621  12.280  0.00  0.00    +0.000 A 
ATOM      8  C   UNL     1      46.001   6.332  12.796  0.00  0.00    +0.000 A 
BRANCH   5   9
ATOM      9  C   UNL     1      49.745   8.350  12.391  0.00  0.00    +0.000 C 
ATOM     10  N   UNL     1      50.803   7.803  13.061  0.00  0.00    +0.000 N 
ATOM     11  O   UNL     1      49.857   9.370  11.722  0.00  0.00    +0.000 OA
ATOM     12  H   UNL     1      50.677   6.949  13.593  0.00  0.00    +0.000 HD
ATOM     13  H   UNL     1      51.710   8.238  12.995  0.00  0.00    +0.000 HD
ENDBRANCH   5   9
BRANCH   3  15
ATOM     14  N   UNL     1      47.188   3.269  14.093  0.00  0.00    +0.000 NA
ATOM     15  C   UNL     1      47.198   4.342  13.656  0.00  0.00    +0.000 C 
ENDBRANCH   3  15
ENDBRANCH   1   8
BRANCH   1  16
ATOM     16  C   UNL     1      43.860   5.469  11.682  0.00  0.00    +0.000 C 
ATOM     17  C   UNL     1      42.922   6.636  11.390  0.00  0.00    +0.000 C 
ATOM     18  C   UNL     1      42.354   5.328  11.831  0.00  0.00    +0.000 C 
BRANCH  16  19
ATOM     19  C   UNL     1      44.500   4.740  10.504  0.00  0.00    +0.000 A 
ATOM     20  C   UNL     1      44.105   3.436  10.157  0.00  0.00    +0.000 A 
ATOM     21  C   UNL     1      44.606   2.781   9.026  0.00  0.00    +0.000 A 
ATOM     22  C   UNL     1      45.489   3.439   8.179  0.00  0.00    +0.000 A 
ATOM     23  C   UNL     1      45.959   4.702   8.545  0.00  0.00    +0.000 A 
ATOM     24  C   UNL     1      45.474   5.341   9.694  0.00  0.00    +0.000 A 
BRANCH  22  25
ATOM     25  O   UNL     1      45.984   2.955   7.008  0.00  0.00    +0.000 OA
BRANCH  25  26
ATOM     26  C   UNL     1      47.054   2.019   7.045  0.00  0.00    +0.000 C 
ATOM     27  F   UNL     1      46.997   1.149   8.076  0.00  0.00    +0.000 F 
ATOM     28  F   UNL     1      47.027   1.296   5.902  0.00  0.00    +0.000 F 
ATOM     29  F   UNL     1      48.228   2.681   7.097  0.00  0.00    +0.000 F 
ENDBRANCH  25  26
ENDBRANCH  22  25
ENDBRANCH  16  19
ENDBRANCH   1  16
TORSDOF 7
ENDMDL
MODEL 3
REMARK VINA RESULT:    -7.610      4.466      7.116
REMARK INTER + INTRA:         -11.700
REMARK INTER:                 -10.909
REMARK INTRA:                  -0.791
REMARK UNBOUND:                -0.976
REMARK  Name = 
REMARK  7 active torsions:
REMARK  status: ('A' for Active; 'I' for Inactive)
REMARK    1  A    between atoms: C_2  and  C_3
REMARK    2  A    between atoms: C_5  and  C_6
REMARK    3  A    between atoms: C_11  and  N_12
REMARK    4  A    between atoms: N_12  and  C_13
REMARK    5  A    between atoms: C_13  and  C_14
REMARK    6  A    between atoms: C_17  and  O_18
REMARK    7  A    between atoms: O_18  and  C_19
REMARK                            x       y       z     vdW  Elec       q    Type
REMARK                         _______ _______ _______ _____ _____    ______ ____
ROOT
ATOM      1  N   UNL     1      44.727   6.244  11.891  0.00  0.00    +0.000 N 
ATOM      2  H   UNL     1      44.454   7.015  11.283  0.00  0.00    +0.000 HD
ENDROOT
BRANCH   1   8
ATOM      3  C   UNL     1      46.401   7.726  12.925  0.00  0.00    +0.000 A 
ATOM      4  C   UNL     1      47.580   7.901  13.657  0.00  0.00    +0.000 A 
ATOM      5  C   UNL     1      48.310   6.778  13.996  0.00  0.00    +0.000 A 
ATOM      6  N   UNL     1      47.931   5.516  13.678  0.00  0.00    +0.000 NA
ATOM      7  C   UNL     1      46.768   5.389  12.990  0.00  0.00    +0.000 A 
ATOM      8  C   UNL     1      45.964   6.442  12.546  0.00  0.00    +0.000 A 
BRANCH   5   9
ATOM      9  C   UNL     1      49.600   6.925  14.737  0.00  0.00    +0.000 C 
ATOM     10  N   UNL     1      50.546   7.704  14.132  0.00  0.00    +0.000 N 
ATOM     11  O   UNL     1      49.794   6.394  15.823  0.00  0.00    +0.000 OA
ATOM     12  H   UNL     1      50.345   8.141  13.239  0.00  0.00    +0.000 HD
ATOM     13  H   UNL     1      51.428   7.864  14.595  0.00  0.00    +0.000 HD
ENDBRANCH   5   9
BRANCH   3  15
ATOM     14  N   UNL     1      45.055   9.837  12.251  0.00  0.00    +0.000 NA
ATOM     15  C   UNL     1      45.661   8.900  12.560  0.00  0.00    +0.000 C 
ENDBRANCH   3  15
ENDBRANCH   1   8
BRANCH   1  16
ATOM     16  C   UNL     1      44.198   4.927  11.472  0.00  0.00    +0.000 C 
ATOM     17  C   UNL     1      42.704   4.731  11.709  0.00  0.00    +0.000 C 
ATOM     18  C   UNL     1      43.684   3.902  12.470  0.00  0.00    +0.000 C 
BRANCH  16  19
ATOM     19  C   UNL     1      44.806   4.380  10.184  0.00  0.00    +0.000 A 
ATOM     20  C   UNL     1      44.567   3.056   9.775  0.00  0.00    +0.000 A 
ATOM     21  C   UNL     1      45.034   2.558   8.553  0.00  0.00    +0.000 A 
ATOM     22  C   UNL     1      45.719   3.394   7.680  0.00  0.00    +0.000 A 
ATOM     23  C   UNL     1      46.039   4.687   8.098  0.00  0.00    +0.000 A 
ATOM     24  C   UNL     1      45.593   5.171   9.335  0.00  0.00    +0.000 A 
BRANCH  22  25
ATOM     25  O   UNL     1      46.151   3.066   6.432  0.00  0.00    +0.000 OA
BRANCH  25  26
ATOM     26  C   UNL     1      47.295   2.232   6.295  0.00  0.00    +0.000 C 
ATOM     27  F   UNL     1      48.254   2.445   7.222  0.00  0.00    +0.000 F 
ATOM     28  F   UNL     1      46.899   0.944   6.407  0.00  0.00    +0.000 F 
ATOM     29  F   UNL     1      47.829   2.403   5.068  0.00  0.00    +0.000 F 
ENDBRANCH  25  26
ENDBRANCH  22  25
ENDBRANCH  16  19
ENDBRANCH   1  16
TORSDOF 7
ENDMDL
MODEL 4
REMARK VINA RESULT:    -7.456      1.636      2.231
REMARK INTER + INTRA:         -11.483
REMARK INTER:                 -10.053
REMARK INTRA:                  -1.429
REMARK UNBOUND:                -0.976
REMARK  Name = 
REMARK  7 active torsions:
REMARK  status: ('A' for Active; 'I' for Inactive)
REMARK    1  A    between atoms: C_2  and  C_3
REMARK    2  A    between atoms: C_5  and  C_6
REMARK    3  A    between atoms: C_11  and  N_12
REMARK    4  A    between atoms: N_12  and  C_13
REMARK    5  A    between atoms: C_13  and  C_14
REMARK    6  A    between atoms: C_17  and  O_18
REMARK    7  A    between atoms: O_18  and  C_19
REMARK                            x       y       z     vdW  Elec       q    Type
REMARK                         _______ _______ _______ _____ _____    ______ ____
ROOT
ATOM      1  N   UNL     1      44.362   5.555  10.142  0.00  0.00    +0.000 N 
ATOM      2  H   UNL     1      43.401   5.261  10.314  0.00  0.00    +0.000 HD
ENDROOT
BRANCH   1   8
ATOM      3  C   UNL     1      44.908   3.232   9.533  0.00  0.00    +0.000 A 
ATOM      4  C   UNL     1      45.599   2.317   8.730  0.00  0.00    +0.000 A 
ATOM      5  C   UNL     1      46.505   2.811   7.811  0.00  0.00    +0.000 A 
ATOM      6  N   UNL     1      46.740   4.134   7.629  0.00  0.00    +0.000 NA
ATOM      7  C   UNL     1      46.029   4.987   8.410  0.00  0.00    +0.000 A 
ATOM      8  C   UNL     1      45.123   4.618   9.406  0.00  0.00    +0.000 A 
BRANCH   5   9
ATOM      9  C   UNL     1      47.299   1.865   6.967  0.00  0.00    +0.000 C 
ATOM     10  N   UNL     1      48.377   2.405   6.325  0.00  0.00    +0.000 N 
ATOM     11  O   UNL     1      47.009   0.679   6.868  0.00  0.00    +0.000 OA
ATOM     12  H   UNL     1      48.595   3.387   6.443  0.00  0.00    +0.000 HD
ATOM     13  H   UNL     1      48.968   1.811   5.763  0.00  0.00    +0.000 HD
ENDBRANCH   5   9
BRANCH   3  15
ATOM     14  N   UNL     1      43.252   2.293  11.293  0.00  0.00    +0.000 NA
ATOM     15  C   UNL     1      43.985   2.708  10.499  0.00  0.00    +0.000 C 
ENDBRANCH   3  15
ENDBRANCH   1   8
BRANCH   1  16
ATOM     16  C   UNL     1      44.912   6.461  11.174  0.00  0.00    +0.000 C 
ATOM     17  C   UNL     1      44.025   7.652  11.521  0.00  0.00    +0.000 C 
ATOM     18  C   UNL     1      45.343   7.884  10.861  0.00  0.00    +0.000 C 
BRANCH  16  19
ATOM     19  C   UNL     1      45.656   5.756  12.305  0.00  0.00    +0.000 A 
ATOM     20  C   UNL     1      45.018   4.787  13.098  0.00  0.00    +0.000 A 
ATOM     21  C   UNL     1      45.702   4.058  14.079  0.00  0.00    +0.000 A 
ATOM     22  C   UNL     1      47.065   4.251  14.260  0.00  0.00    +0.000 A 
ATOM     23  C   UNL     1      47.704   5.264  13.543  0.00  0.00    +0.000 A 
ATOM     24  C   UNL     1      47.007   6.009  12.582  0.00  0.00    +0.000 A 
BRANCH  22  25
ATOM     25  O   UNL     1      47.865   3.554  15.113  0.00  0.00    +0.000 OA
BRANCH  25  26
ATOM     26  C   UNL     1      47.807   3.842  16.504  0.00  0.00    +0.000 C 
ATOM     27  F   UNL     1      47.474   5.119  16.795  0.00  0.00    +0.000 F 
ATOM     28  F   UNL     1      46.875   3.040  17.066  0.00  0.00    +0.000 F 
ATOM     29  F   UNL     1      49.000   3.562  17.070  0.00  0.00    +0.000 F 
ENDBRANCH  25  26
ENDBRANCH  22  25
ENDBRANCH  16  19
ENDBRANCH   1  16
TORSDOF 7
ENDMDL
MODEL 5
REMARK VINA RESULT:    -7.182      4.441      7.181
REMARK INTER + INTRA:         -11.096
REMARK INTER:                 -10.563
REMARK INTRA:                  -0.534
REMARK UNBOUND:                -0.976
REMARK  Name = 
REMARK  7 active torsions:
REMARK  status: ('A' for Active; 'I' for Inactive)
REMARK    1  A    between atoms: C_2  and  C_3
REMARK    2  A    between atoms: C_5  and  C_6
REMARK    3  A    between atoms: C_11  and  N_12
REMARK    4  A    between atoms: N_12  and  C_13
REMARK    5  A    between atoms: C_13  and  C_14
REMARK    6  A    between atoms: C_17  and  O_18
REMARK    7  A    between atoms: O_18  and  C_19
REMARK                            x       y       z     vdW  Elec       q    Type
REMARK                         _______ _______ _______ _____ _____    ______ ____
ROOT
ATOM      1  N   UNL     1      45.479   5.999  11.951  0.00  0.00    +0.000 N 
ATOM      2  H   UNL     1      46.029   6.560  11.302  0.00  0.00    +0.000 HD
ENDROOT
BRANCH   1   8
ATOM      3  C   UNL     1      47.215   6.368  13.659  0.00  0.00    +0.000 A 
ATOM      4  C   UNL     1      47.855   5.985  14.843  0.00  0.00    +0.000 A 
ATOM      5  C   UNL     1      47.463   4.802  15.442  0.00  0.00    +0.000 A 
ATOM      6  N   UNL     1      46.478   4.009  14.956  0.00  0.00    +0.000 NA
ATOM      7  C   UNL     1      45.867   4.431  13.820  0.00  0.00    +0.000 A 
ATOM      8  C   UNL     1      46.198   5.576  13.092  0.00  0.00    +0.000 A 
BRANCH   5   9
ATOM      9  C   UNL     1      48.154   4.334  16.683  0.00  0.00    +0.000 C 
ATOM     10  N   UNL     1      47.337   3.891  17.685  0.00  0.00    +0.000 N 
ATOM     11  O   UNL     1      49.374   4.334  16.791  0.00  0.00    +0.000 OA
ATOM     12  H   UNL     1      46.332   3.891  17.555  0.00  0.00    +0.000 HD
ATOM     13  H   UNL     1      47.745   3.537  18.537  0.00  0.00    +0.000 HD
ENDBRANCH   5   9
BRANCH   3  15
ATOM     14  N   UNL     1      47.982   8.563  12.511  0.00  0.00    +0.000 NA
ATOM     15  C   UNL     1      47.644   7.586  13.033  0.00  0.00    +0.000 C 
ENDBRANCH   3  15
ENDBRANCH   1   8
BRANCH   1  16
ATOM     16  C   UNL     1      44.387   5.231  11.312  0.00  0.00    +0.000 C 
ATOM     17  C   UNL     1      43.059   5.973  11.202  0.00  0.00    +0.000 C 
ATOM     18  C   UNL     1      43.160   4.770  12.079  0.00  0.00    +0.000 C 
BRANCH  16  19
ATOM     19  C   UNL     1      44.828   4.357  10.141  0.00  0.00    +0.000 A 
ATOM     20  C   UNL     1      45.486   4.911   9.030  0.00  0.00    +0.000 A 
ATOM     21  C   UNL     1      45.984   4.120   7.988  0.00  0.00    +0.000 A 
ATOM     22  C   UNL     1      45.878   2.737   8.055  0.00  0.00    +0.000 A 
ATOM     23  C   UNL     1      45.158   2.168   9.108  0.00  0.00    +0.000 A 
ATOM     24  C   UNL     1      44.637   2.967  10.134  0.00  0.00    +0.000 A 
BRANCH  22  25
ATOM     25  O   UNL     1      46.391   1.850   7.160  0.00  0.00    +0.000 OA
BRANCH  25  26
ATOM     26  C   UNL     1      47.443   2.269   6.300  0.00  0.00    +0.000 C 
ATOM     27  F   UNL     1      48.408   2.990   6.910  0.00  0.00    +0.000 F 
ATOM     28  F   UNL     1      48.029   1.167   5.777  0.00  0.00    +0.000 F 
ATOM     29  F   UNL     1      46.930   2.995   5.285  0.00  0.00    +0.000 F 
ENDBRANCH  25  26
ENDBRANCH  22  25
ENDBRANCH  16  19
ENDBRANCH   1  16
TORSDOF 7
ENDMDL
MODEL 6
REMARK VINA RESULT:    -6.646      1.925      2.480
REMARK INTER + INTRA:         -10.342
REMARK INTER:                  -9.661
REMARK INTRA:                  -0.682
REMARK UNBOUND:                -0.976
REMARK  Name = 
REMARK  7 active torsions:
REMARK  status: ('A' for Active; 'I' for Inactive)
REMARK    1  A    between atoms: C_2  and  C_3
REMARK    2  A    between atoms: C_5  and  C_6
REMARK    3  A    between atoms: C_11  and  N_12
REMARK    4  A    between atoms: N_12  and  C_13
REMARK    5  A    between atoms: C_13  and  C_14
REMARK    6  A    between atoms: C_17  and  O_18
REMARK    7  A    between atoms: O_18  and  C_19
REMARK                            x       y       z     vdW  Elec       q    Type
REMARK                         _______ _______ _______ _____ _____    ______ ____
ROOT
ATOM      1  N   UNL     1      44.634   5.533  10.510  0.00  0.00    +0.000 N 
ATOM      2  H   UNL     1      43.615   5.502  10.493  0.00  0.00    +0.000 HD
ENDROOT
BRANCH   1   8
ATOM      3  C   UNL     1      44.907   3.327   9.448  0.00  0.00    +0.000 A 
ATOM      4  C   UNL     1      45.447   2.524   8.438  0.00  0.00    +0.000 A 
ATOM      5  C   UNL     1      46.331   3.103   7.548  0.00  0.00    +0.000 A 
ATOM      6  N   UNL     1      46.681   4.413   7.587  0.00  0.00    +0.000 NA
ATOM      7  C   UNL     1      46.113   5.161   8.567  0.00  0.00    +0.000 A 
ATOM      8  C   UNL     1      45.246   4.689   9.555  0.00  0.00    +0.000 A 
BRANCH   5   9
ATOM      9  C   UNL     1      46.968   2.269   6.483  0.00  0.00    +0.000 C 
ATOM     10  N   UNL     1      47.282   2.923   5.325  0.00  0.00    +0.000 N 
ATOM     11  O   UNL     1      47.205   1.078   6.641  0.00  0.00    +0.000 OA
ATOM     12  H   UNL     1      47.085   3.913   5.235  0.00  0.00    +0.000 HD
ATOM     13  H   UNL     1      47.738   2.420   4.579  0.00  0.00    +0.000 HD
ENDBRANCH   5   9
BRANCH   3  15
ATOM     14  N   UNL     1      43.296   2.201  11.140  0.00  0.00    +0.000 NA
ATOM     15  C   UNL     1      44.007   2.710  10.381  0.00  0.00    +0.000 C 
ENDBRANCH   3  15
ENDBRANCH   1   8
BRANCH   1  16
ATOM     16  C   UNL     1      45.207   5.862  11.833  0.00  0.00    +0.000 C 
ATOM     17  C   UNL     1      45.513   4.658  12.718  0.00  0.00    +0.000 C 
ATOM     18  C   UNL     1      44.451   5.622  13.129  0.00  0.00    +0.000 C 
BRANCH  16  19
ATOM     19  C   UNL     1      46.195   7.025  11.825  0.00  0.00    +0.000 A 
ATOM     20  C   UNL     1      45.771   8.338  12.096  0.00  0.00    +0.000 A 
ATOM     21  C   UNL     1      46.669   9.407  12.188  0.00  0.00    +0.000 A 
ATOM     22  C   UNL     1      48.034   9.180  12.057  0.00  0.00    +0.000 A 
ATOM     23  C   UNL     1      48.473   7.902  11.708  0.00  0.00    +0.000 A 
ATOM     24  C   UNL     1      47.565   6.841  11.589  0.00  0.00    +0.000 A 
BRANCH  22  25
ATOM     25  O   UNL     1      49.017  10.108  12.208  0.00  0.00    +0.000 OA
BRANCH  25  26
ATOM     26  C   UNL     1      49.492  10.403  13.516  0.00  0.00    +0.000 C 
ATOM     27  F   UNL     1      49.320   9.406  14.410  0.00  0.00    +0.000 F 
ATOM     28  F   UNL     1      50.818  10.657  13.440  0.00  0.00    +0.000 F 
ATOM     29  F   UNL     1      48.877  11.513  13.976  0.00  0.00    +0.000 F 
ENDBRANCH  25  26
ENDBRANCH  22  25
ENDBRANCH  16  19
ENDBRANCH   1  16
TORSDOF 7
ENDMDL
MODEL 7
REMARK VINA RESULT:    -6.432      4.809      7.393
REMARK INTER + INTRA:         -10.040
REMARK INTER:                  -9.276
REMARK INTRA:                  -0.765
REMARK UNBOUND:                -0.976
REMARK  Name = 
REMARK  7 active torsions:
REMARK  status: ('A' for Active; 'I' for Inactive)
REMARK    1  A    between atoms: C_2  and  C_3
REMARK    2  A    between atoms: C_5  and  C_6
REMARK    3  A    between atoms: C_11  and  N_12
REMARK    4  A    between atoms: N_12  and  C_13
REMARK    5  A    between atoms: C_13  and  C_14
REMARK    6  A    between atoms: C_17  and  O_18
REMARK    7  A    between atoms: O_18  and  C_19
REMARK                            x       y       z     vdW  Elec       q    Type
REMARK                         _______ _______ _______ _____ _____    ______ ____
ROOT
ATOM      1  N   UNL     1      47.833   6.896  13.166  0.00  0.00    +0.000 N 
ATOM      2  H   UNL     1      48.602   6.785  12.506  0.00  0.00    +0.000 HD
ENDROOT
BRANCH   1   8
ATOM      3  C   UNL     1      48.397   6.327  15.495  0.00  0.00    +0.000 A 
ATOM      4  C   UNL     1      48.336   5.443  16.578  0.00  0.00    +0.000 A 
ATOM      5  C   UNL     1      47.739   4.212  16.382  0.00  0.00    +0.000 A 
ATOM      6  N   UNL     1      47.190   3.827  15.204  0.00  0.00    +0.000 NA
ATOM      7  C   UNL     1      47.249   4.724  14.187  0.00  0.00    +0.000 A 
ATOM      8  C   UNL     1      47.863   5.977  14.240  0.00  0.00    +0.000 A 
BRANCH   5   9
ATOM      9  C   UNL     1      47.695   3.221  17.501  0.00  0.00    +0.000 C 
ATOM     10  N   UNL     1      48.827   3.135  18.261  0.00  0.00    +0.000 N 
ATOM     11  O   UNL     1      46.705   2.538  17.730  0.00  0.00    +0.000 OA
ATOM     12  H   UNL     1      49.623   3.726  18.052  0.00  0.00    +0.000 HD
ATOM     13  H   UNL     1      48.850   2.504  19.048  0.00  0.00    +0.000 HD
ENDBRANCH   5   9
BRANCH   3  15
ATOM     14  N   UNL     1      49.572   8.609  15.866  0.00  0.00    +0.000 NA
ATOM     15  C   UNL     1      49.038   7.594  15.703  0.00  0.00    +0.000 C 
ENDBRANCH   3  15
ENDBRANCH   1   8
BRANCH   1  16
ATOM     16  C   UNL     1      46.599   7.451  12.567  0.00  0.00    +0.000 C 
ATOM     17  C   UNL     1      46.708   8.896  12.093  0.00  0.00    +0.000 C 
ATOM     18  C   UNL     1      45.802   8.562  13.230  0.00  0.00    +0.000 C 
BRANCH  16  19
ATOM     19  C   UNL     1      45.810   6.464  11.710  0.00  0.00    +0.000 A 
ATOM     20  C   UNL     1      46.234   6.133  10.412  0.00  0.00    +0.000 A 
ATOM     21  C   UNL     1      45.584   5.162   9.641  0.00  0.00    +0.000 A 
ATOM     22  C   UNL     1      44.512   4.457  10.173  0.00  0.00    +0.000 A 
ATOM     23  C   UNL     1      44.022   4.824  11.428  0.00  0.00    +0.000 A 
ATOM     24  C   UNL     1      44.660   5.817  12.184  0.00  0.00    +0.000 A 
BRANCH  22  25
ATOM     25  O   UNL     1      43.848   3.435   9.570  0.00  0.00    +0.000 OA
BRANCH  25  26
ATOM     26  C   UNL     1      44.596   2.389   8.962  0.00  0.00    +0.000 C 
ATOM     27  F   UNL     1      43.928   1.220   8.847  0.00  0.00    +0.000 F 
ATOM     28  F   UNL     1      44.943   2.783   7.716  0.00  0.00    +0.000 F 
ATOM     29  F   UNL     1      45.726   2.178   9.667  0.00  0.00    +0.000 F 
ENDBRANCH  25  26
ENDBRANCH  22  25
ENDBRANCH  16  19
ENDBRANCH   1  16
TORSDOF 7
ENDMDL
MODEL 8
REMARK VINA RESULT:    -6.413      4.970      7.895
REMARK INTER + INTRA:         -10.014
REMARK INTER:                  -8.776
REMARK INTRA:                  -1.238
REMARK UNBOUND:                -0.976
REMARK  Name = 
REMARK  7 active torsions:
REMARK  status: ('A' for Active; 'I' for Inactive)
REMARK    1  A    between atoms: C_2  and  C_3
REMARK    2  A    between atoms: C_5  and  C_6
REMARK    3  A    between atoms: C_11  and  N_12
REMARK    4  A    between atoms: N_12  and  C_13
REMARK    5  A    between atoms: C_13  and  C_14
REMARK    6  A    between atoms: C_17  and  O_18
REMARK    7  A    between atoms: O_18  and  C_19
REMARK                            x       y       z     vdW  Elec       q    Type
REMARK                         _______ _______ _______ _____ _____    ______ ____
ROOT
ATOM      1  N   UNL     1      48.558   6.620  14.227  0.00  0.00    +0.000 N 
ATOM      2  H   UNL     1      48.995   5.916  13.633  0.00  0.00    +0.000 HD
ENDROOT
BRANCH   1   8
ATOM      3  C   UNL     1      47.943   4.938  15.918  0.00  0.00    +0.000 A 
ATOM      4  C   UNL     1      47.895   4.519  17.252  0.00  0.00    +0.000 A 
ATOM      5  C   UNL     1      48.318   5.401  18.228  0.00  0.00    +0.000 A 
ATOM      6  N   UNL     1      48.800   6.639  17.959  0.00  0.00    +0.000 NA
ATOM      7  C   UNL     1      48.853   6.995  16.650  0.00  0.00    +0.000 A 
ATOM      8  C   UNL     1      48.413   6.220  15.575  0.00  0.00    +0.000 A 
BRANCH   5   9
ATOM      9  C   UNL     1      48.238   5.009  19.669  0.00  0.00    +0.000 C 
ATOM     10  N   UNL     1      48.442   3.684  19.935  0.00  0.00    +0.000 N 
ATOM     11  O   UNL     1      48.017   5.823  20.556  0.00  0.00    +0.000 OA
ATOM     12  H   UNL     1      48.638   3.040  19.177  0.00  0.00    +0.000 HD
ATOM     13  H   UNL     1      48.428   3.362  20.891  0.00  0.00    +0.000 HD
ENDBRANCH   5   9
BRANCH   3  15
ATOM     14  N   UNL     1      47.123   3.272  14.108  0.00  0.00    +0.000 NA
ATOM     15  C   UNL     1      47.481   4.023  14.914  0.00  0.00    +0.000 C 
ENDBRANCH   3  15
ENDBRANCH   1   8
BRANCH   1  16
ATOM     16  C   UNL     1      47.627   7.521  13.512  0.00  0.00    +0.000 C 
ATOM     17  C   UNL     1      48.262   8.793  12.961  0.00  0.00    +0.000 C 
ATOM     18  C   UNL     1      47.246   8.890  14.049  0.00  0.00    +0.000 C 
BRANCH  16  19
ATOM     19  C   UNL     1      46.579   6.806  12.662  0.00  0.00    +0.000 A 
ATOM     20  C   UNL     1      46.805   6.547  11.300  0.00  0.00    +0.000 A 
ATOM     21  C   UNL     1      45.904   5.811  10.521  0.00  0.00    +0.000 A 
ATOM     22  C   UNL     1      44.764   5.271  11.105  0.00  0.00    +0.000 A 
ATOM     23  C   UNL     1      44.477   5.583  12.435  0.00  0.00    +0.000 A 
ATOM     24  C   UNL     1      45.370   6.344  13.201  0.00  0.00    +0.000 A 
BRANCH  22  25
ATOM     25  O   UNL     1      43.854   4.469  10.490  0.00  0.00    +0.000 OA
BRANCH  25  26
ATOM     26  C   UNL     1      44.031   3.059  10.539  0.00  0.00    +0.000 C 
ATOM     27  F   UNL     1      45.210   2.664  11.065  0.00  0.00    +0.000 F 
ATOM     28  F   UNL     1      43.047   2.533  11.304  0.00  0.00    +0.000 F 
ATOM     29  F   UNL     1      43.915   2.549   9.295  0.00  0.00    +0.000 F 
ENDBRANCH  25  26
ENDBRANCH  22  25
ENDBRANCH  16  19
ENDBRANCH   1  16
TORSDOF 7
ENDMDL
MODEL 9
REMARK VINA RESULT:    -6.172      3.279      5.332
REMARK INTER + INTRA:          -9.673
REMARK INTER:                  -8.644
REMARK INTRA:                  -1.030
REMARK UNBOUND:                -0.976
REMARK  Name = 
REMARK  7 active torsions:
REMARK  status: ('A' for Active; 'I' for Inactive)
REMARK    1  A    between atoms: C_2  and  C_3
REMARK    2  A    between atoms: C_5  and  C_6
REMARK    3  A    between atoms: C_11  and  N_12
REMARK    4  A    between atoms: N_12  and  C_13
REMARK    5  A    between atoms: C_13  and  C_14
REMARK    6  A    between atoms: C_17  and  O_18
REMARK    7  A    between atoms: O_18  and  C_19
REMARK                            x       y       z     vdW  Elec       q    Type
REMARK                         _______ _______ _______ _____ _____    ______ ____
ROOT
ATOM      1  N   UNL     1      46.919   6.727  14.009  0.00  0.00    +0.000 N 
ATOM      2  H   UNL     1      46.610   6.483  14.949  0.00  0.00    +0.000 HD
ENDROOT
BRANCH   1   8
ATOM      3  C   UNL     1      46.273   4.563  13.025  0.00  0.00    +0.000 A 
ATOM      4  C   UNL     1      45.574   3.827  12.063  0.00  0.00    +0.000 A 
ATOM      5  C   UNL     1      44.909   4.519  11.068  0.00  0.00    +0.000 A 
ATOM      6  N   UNL     1      44.879   5.873  10.992  0.00  0.00    +0.000 NA
ATOM      7  C   UNL     1      45.550   6.548  11.961  0.00  0.00    +0.000 A 
ATOM      8  C   UNL     1      46.298   5.970  12.989  0.00  0.00    +0.000 A 
BRANCH   5   9
ATOM      9  C   UNL     1      44.189   3.769   9.994  0.00  0.00    +0.000 C 
ATOM     10  N   UNL     1      44.066   4.419   8.798  0.00  0.00    +0.000 N 
ATOM     11  O   UNL     1      43.749   2.640  10.168  0.00  0.00    +0.000 OA
ATOM     12  H   UNL     1      44.456   5.348   8.685  0.00  0.00    +0.000 HD
ATOM     13  H   UNL     1      43.614   3.954   8.025  0.00  0.00    +0.000 HD
ENDBRANCH   5   9
BRANCH   3  15
ATOM     14  N   UNL     1      47.552   3.262  14.869  0.00  0.00    +0.000 NA
ATOM     15  C   UNL     1      46.978   3.833  14.041  0.00  0.00    +0.000 C 
ENDBRANCH   3  15
ENDBRANCH   1   8
BRANCH   1  16
ATOM     16  C   UNL     1      48.300   7.253  13.944  0.00  0.00    +0.000 C 
ATOM     17  C   UNL     1      48.428   8.646  13.335  0.00  0.00    +0.000 C 
ATOM     18  C   UNL     1      49.024   7.476  12.627  0.00  0.00    +0.000 C 
BRANCH  16  19
ATOM     19  C   UNL     1      49.169   6.905  15.149  0.00  0.00    +0.000 A 
ATOM     20  C   UNL     1      48.622   6.270  16.278  0.00  0.00    +0.000 A 
ATOM     21  C   UNL     1      49.413   5.855  17.356  0.00  0.00    +0.000 A 
ATOM     22  C   UNL     1      50.791   6.025  17.310  0.00  0.00    +0.000 A 
ATOM     23  C   UNL     1      51.348   6.725  16.239  0.00  0.00    +0.000 A 
ATOM     24  C   UNL     1      50.547   7.163  15.176  0.00  0.00    +0.000 A 
BRANCH  22  25
ATOM     25  O   UNL     1      51.681   5.593  18.244  0.00  0.00    +0.000 OA
BRANCH  25  26
ATOM     26  C   UNL     1      52.301   4.325  18.073  0.00  0.00    +0.000 C 
ATOM     27  F   UNL     1      52.504   3.645  19.222  0.00  0.00    +0.000 F 
ATOM     28  F   UNL     1      51.505   3.565  17.286  0.00  0.00    +0.000 F 
ATOM     29  F   UNL     1      53.484   4.485  17.445  0.00  0.00    +0.000 F 
ENDBRANCH  25  26
ENDBRANCH  22  25
ENDBRANCH  16  19
ENDBRANCH   1  16
TORSDOF 7
ENDMDL
