MODEL 1
REMARK VINA RESULT:    -7.769      0.000      0.000
REMARK INTER + INTRA:         -11.689
REMARK INTER:                 -10.949
REMARK INTRA:                  -0.740
REMARK UNBOUND:                -0.740
REMARK  Name = 
REMARK  8 active torsions:
REMARK  status: ('A' for Active; 'I' for Inactive)
REMARK    1  A    between atoms: C_2  and  C_22
REMARK    2  A    between atoms: N_3  and  C_4
REMARK    3  A    between atoms: C_4  and  C_5
REMARK    4  A    between atoms: C_8  and  C_9
REMARK    5  A    between atoms: C_9  and  O_10
REMARK    6  A    between atoms: C_9  and  C_11
REMARK    7  A    between atoms: C_17  and  C_18
REMARK    8  A    between atoms: C_18  and  O_19
REMARK                            x       y       z     vdW  Elec       q    Type
REMARK                         _______ _______ _______ _____ _____    ______ ____
ROOT
ATOM      1  C   UNL     1      46.910   8.550  13.394  0.00  0.00    +0.000 A 
ATOM      2  C   UNL     1      46.631   7.184  13.281  0.00  0.00    +0.000 A 
ATOM      3  C   UNL     1      45.597   6.739  12.459  0.00  0.00    +0.000 A 
ATOM      4  C   UNL     1      44.810   7.653  11.733  0.00  0.00    +0.000 A 
ATOM      5  C   UNL     1      45.139   9.014  11.795  0.00  0.00    +0.000 A 
ATOM      6  C   UNL     1      46.178   9.457  12.615  0.00  0.00    +0.000 A 
ENDROOT
BRANCH   1   7
ATOM      7  C   UNL     1      47.965   9.033  14.354  0.00  0.00    +0.000 C 
BRANCH   7  10
ATOM      8  O   UNL     1      49.935   7.032  14.416  0.00  0.00    +0.000 OA
ATOM      9  C   UNL     1      49.207   7.186  15.396  0.00  0.00    +0.000 C 
ATOM     10  N   UNL     1      48.194   8.106  15.427  0.00  0.00    +0.000 N 
ATOM     11  H   UNL     1      47.729   8.311  16.305  0.00  0.00    +0.000 HD
BRANCH   9  12
ATOM     12  C   UNL     1      49.356   6.354  16.586  0.00  0.00    +0.000 A 
ATOM     13  C   UNL     1      50.183   6.751  17.627  0.00  0.00    +0.000 A 
ATOM     14  S   UNL     1      50.171   5.675  18.954  0.00  0.00    +0.000 S 
ATOM     15  C   UNL     1      49.045   4.656  18.181  0.00  0.00    +0.000 A 
ATOM     16  N   UNL     1      48.559   3.550  18.804  0.00  0.00    +0.000 NA
ATOM     17  C   UNL     1      47.678   2.897  18.119  0.00  0.00    +0.000 A 
ATOM     18  N   UNL     1      47.261   3.237  16.859  0.00  0.00    +0.000 N 
ATOM     19  C   UNL     1      47.795   4.287  16.160  0.00  0.00    +0.000 A 
ATOM     20  O   UNL     1      47.530   4.451  14.971  0.00  0.00    +0.000 OA
ATOM     21  C   UNL     1      48.726   5.103  16.919  0.00  0.00    +0.000 A 
ATOM     22  H   UNL     1      46.611   2.655  16.355  0.00  0.00    +0.000 HD
ENDBRANCH   9  12
ENDBRANCH   7  10
ENDBRANCH   1   7
BRANCH   4  23
ATOM     23  C   UNL     1      43.666   7.128  10.895  0.00  0.00    +0.000 C 
BRANCH  23  24
ATOM     24  C   UNL     1      43.235   5.661  11.190  0.00  0.00    +0.000 C 
ATOM     25  O   UNL     1      42.240   5.429  11.886  0.00  0.00    +0.000 OA
ATOM     26  N   UNL     1      43.954   4.629  10.616  0.00  0.00    +0.000 N 
ATOM     27  C   UNL     1      45.167   4.723   9.823  0.00  0.00    +0.000 C 
ATOM     28  C   UNL     1      44.985   3.629   8.791  0.00  0.00    +0.000 C 
ATOM     29  C   UNL     1      44.304   2.515   9.579  0.00  0.00    +0.000 C 
ATOM     30  C   UNL     1      43.482   3.245  10.660  0.00  0.00    +0.000 C 
BRANCH  30  31
ATOM     31  C   UNL     1      43.659   2.579  12.034  0.00  0.00    +0.000 C 
BRANCH  31  32
ATOM     32  O   UNL     1      44.971   2.805  12.547  0.00  0.00    +0.000 OA
ATOM     33  H   UNL     1      45.398   3.453  11.960  0.00  0.00    +0.000 HD
ENDBRANCH  31  32
ENDBRANCH  30  31
ENDBRANCH  23  24
BRANCH  23  34
ATOM     34  O   UNL     1      42.593   8.058  11.034  0.00  0.00    +0.000 OA
ATOM     35  H   UNL     1      41.802   7.602  10.695  0.00  0.00    +0.000 HD
ENDBRANCH  23  34
ENDBRANCH   4  23
TORSDOF 8
ENDMDL
MODEL 2
REMARK VINA RESULT:    -7.419      3.045      4.970
REMARK INTER + INTRA:         -11.195
REMARK INTER:                  -9.938
REMARK INTRA:                  -1.258
REMARK UNBOUND:                -0.740
REMARK  Name = 
REMARK  8 active torsions:
REMARK  status: ('A' for Active; 'I' for Inactive)
REMARK    1  A    between atoms: C_2  and  C_22
REMARK    2  A    between atoms: N_3  and  C_4
REMARK    3  A    between atoms: C_4  and  C_5
REMARK    4  A    between atoms: C_8  and  C_9
REMARK    5  A    between atoms: C_9  and  O_10
REMARK    6  A    between atoms: C_9  and  C_11
REMARK    7  A    between atoms: C_17  and  C_18
REMARK    8  A    between atoms: C_18  and  O_19
REMARK                            x       y       z     vdW  Elec       q    Type
REMARK                         _______ _______ _______ _____ _____    ______ ____
ROOT
ATOM      1  C   UNL     1      46.408   4.921  13.295  0.00  0.00    +0.000 A 
ATOM      2  C   UNL     1      46.427   5.910  12.305  0.00  0.00    +0.000 A 
ATOM      3  C   UNL     1      45.879   5.662  11.047  0.00  0.00    +0.000 A 
ATOM      4  C   UNL     1      45.302   4.414  10.747  0.00  0.00    +0.000 A 
ATOM      5  C   UNL     1      45.221   3.452  11.764  0.00  0.00    +0.000 A 
ATOM      6  C   UNL     1      45.767   3.705  13.024  0.00  0.00    +0.000 A 
ENDROOT
BRANCH   1   7
ATOM      7  C   UNL     1      47.084   5.161  14.619  0.00  0.00    +0.000 C 
BRANCH   7  10
ATOM      8  O   UNL     1      49.398   5.700  16.116  0.00  0.00    +0.000 OA
ATOM      9  C   UNL     1      48.944   6.575  15.379  0.00  0.00    +0.000 C 
ATOM     10  N   UNL     1      47.796   6.407  14.654  0.00  0.00    +0.000 N 
ATOM     11  H   UNL     1      47.549   7.085  13.941  0.00  0.00    +0.000 HD
BRANCH   9  12
ATOM     12  C   UNL     1      49.591   7.879  15.267  0.00  0.00    +0.000 A 
ATOM     13  C   UNL     1      49.750   8.688  16.383  0.00  0.00    +0.000 A 
ATOM     14  S   UNL     1      50.587  10.140  16.057  0.00  0.00    +0.000 S 
ATOM     15  C   UNL     1      50.777   9.721  14.416  0.00  0.00    +0.000 A 
ATOM     16  N   UNL     1      51.465  10.525  13.563  0.00  0.00    +0.000 NA
ATOM     17  C   UNL     1      51.571  10.060  12.361  0.00  0.00    +0.000 A 
ATOM     18  N   UNL     1      51.027   8.878  11.932  0.00  0.00    +0.000 N 
ATOM     19  C   UNL     1      50.247   8.087  12.733  0.00  0.00    +0.000 A 
ATOM     20  O   UNL     1      49.629   7.133  12.265  0.00  0.00    +0.000 OA
ATOM     21  C   UNL     1      50.170   8.523  14.116  0.00  0.00    +0.000 A 
ATOM     22  H   UNL     1      51.098   8.597  10.967  0.00  0.00    +0.000 HD
ENDBRANCH   9  12
ENDBRANCH   7  10
ENDBRANCH   1   7
BRANCH   4  23
ATOM     23  C   UNL     1      44.767   4.172   9.353  0.00  0.00    +0.000 C 
BRANCH  23  24
ATOM     24  C   UNL     1      45.210   2.837   8.686  0.00  0.00    +0.000 C 
ATOM     25  O   UNL     1      44.686   1.768   9.018  0.00  0.00    +0.000 OA
ATOM     26  N   UNL     1      46.160   2.878   7.682  0.00  0.00    +0.000 N 
ATOM     27  C   UNL     1      46.906   4.031   7.210  0.00  0.00    +0.000 C 
ATOM     28  C   UNL     1      47.016   3.779   5.720  0.00  0.00    +0.000 C 
ATOM     29  C   UNL     1      47.211   2.269   5.635  0.00  0.00    +0.000 C 
ATOM     30  C   UNL     1      46.461   1.707   6.859  0.00  0.00    +0.000 C 
BRANCH  30  31
ATOM     31  C   UNL     1      47.303   0.645   7.586  0.00  0.00    +0.000 C 
BRANCH  31  32
ATOM     32  O   UNL     1      46.519  -0.506   7.894  0.00  0.00    +0.000 OA
ATOM     33  H   UNL     1      45.760  -0.505   7.285  0.00  0.00    +0.000 HD
ENDBRANCH  31  32
ENDBRANCH  30  31
ENDBRANCH  23  24
BRANCH  23  34
ATOM     34  O   UNL     1      43.349   4.310   9.426  0.00  0.00    +0.000 OA
ATOM     35  H   UNL     1      42.984   3.589   8.882  0.00  0.00    +0.000 HD
ENDBRANCH  23  34
ENDBRANCH   4  23
TORSDOF 8
ENDMDL
MODEL 3
REMARK VINA RESULT:    -6.916      3.747      8.609
REMARK INTER + INTRA:         -10.486
REMARK INTER:                  -9.209
REMARK INTRA:                  -1.277
REMARK UNBOUND:                -0.740
REMARK  Name = 
REMARK  8 active torsions:
REMARK  status: ('A' for Active; 'I' for Inactive)
REMARK    1  A    between atoms: C_2  and  C_22
REMARK    2  A    between atoms: N_3  and  C_4
REMARK    3  A    between atoms: C_4  and  C_5
REMARK    4  A    between atoms: C_8  and  C_9
REMARK    5  A    between atoms: C_9  and  O_10
REMARK    6  A    between atoms: C_9  and  C_11
REMARK    7  A    between atoms: C_17  and  C_18
REMARK    8  A    between atoms: C_18  and  O_19
REMARK                            x       y       z     vdW  Elec       q    Type
REMARK                         _______ _______ _______ _____ _____    ______ ____
ROOT
ATOM      1  C   UNL     1      48.821   6.687  15.397  0.00  0.00    +0.000 A 
ATOM      2  C   UNL     1      50.017   7.040  16.030  0.00  0.00    +0.000 A 
ATOM      3  C   UNL     1      50.473   6.320  17.133  0.00  0.00    +0.000 A 
ATOM      4  C   UNL     1      49.738   5.228  17.634  0.00  0.00    +0.000 A 
ATOM      5  C   UNL     1      48.578   4.835  16.952  0.00  0.00    +0.000 A 
ATOM      6  C   UNL     1      48.126   5.556  15.845  0.00  0.00    +0.000 A 
ENDROOT
BRANCH   1   7
ATOM      7  C   UNL     1      48.285   7.525  14.266  0.00  0.00    +0.000 C 
BRANCH   7  10
ATOM      8  O   UNL     1      47.637   7.001  11.584  0.00  0.00    +0.000 OA
ATOM      9  C   UNL     1      46.800   6.775  12.458  0.00  0.00    +0.000 C 
ATOM     10  N   UNL     1      47.021   7.047  13.781  0.00  0.00    +0.000 N 
ATOM     11  H   UNL     1      46.374   6.697  14.480  0.00  0.00    +0.000 HD
BRANCH   9  12
ATOM     12  C   UNL     1      45.485   6.235  12.123  0.00  0.00    +0.000 A 
ATOM     13  C   UNL     1      44.507   7.049  11.570  0.00  0.00    +0.000 A 
ATOM     14  S   UNL     1      43.065   6.216  11.190  0.00  0.00    +0.000 S 
ATOM     15  C   UNL     1      43.714   4.739  11.738  0.00  0.00    +0.000 A 
ATOM     16  N   UNL     1      43.002   3.585  11.648  0.00  0.00    +0.000 NA
ATOM     17  C   UNL     1      43.635   2.535  12.057  0.00  0.00    +0.000 A 
ATOM     18  N   UNL     1      44.905   2.542  12.573  0.00  0.00    +0.000 N 
ATOM     19  C   UNL     1      45.619   3.694  12.770  0.00  0.00    +0.000 A 
ATOM     20  O   UNL     1      46.674   3.681  13.400  0.00  0.00    +0.000 OA
ATOM     21  C   UNL     1      44.984   4.891  12.246  0.00  0.00    +0.000 A 
ATOM     22  H   UNL     1      45.324   1.696  12.927  0.00  0.00    +0.000 HD
ENDBRANCH   9  12
ENDBRANCH   7  10
ENDBRANCH   1   7
BRANCH   4  23
ATOM     23  C   UNL     1      50.244   4.509  18.864  0.00  0.00    +0.000 C 
BRANCH  23  24
ATOM     24  C   UNL     1      51.767   4.186  18.874  0.00  0.00    +0.000 C 
ATOM     25  O   UNL     1      52.555   4.904  19.500  0.00  0.00    +0.000 OA
ATOM     26  N   UNL     1      52.212   3.054  18.216  0.00  0.00    +0.000 N 
ATOM     27  C   UNL     1      51.436   2.138  17.397  0.00  0.00    +0.000 C 
ATOM     28  C   UNL     1      52.054   0.792  17.714  0.00  0.00    +0.000 C 
ATOM     29  C   UNL     1      53.539   1.112  17.850  0.00  0.00    +0.000 C 
ATOM     30  C   UNL     1      53.582   2.563  18.367  0.00  0.00    +0.000 C 
BRANCH  30  31
ATOM     31  C   UNL     1      54.621   3.396  17.598  0.00  0.00    +0.000 C 
BRANCH  31  32
ATOM     32  O   UNL     1      55.285   4.312  18.466  0.00  0.00    +0.000 OA
ATOM     33  H   UNL     1      56.174   3.953  18.633  0.00  0.00    +0.000 HD
ENDBRANCH  31  32
ENDBRANCH  30  31
ENDBRANCH  23  24
BRANCH  23  34
ATOM     34  O   UNL     1      49.835   5.281  19.991  0.00  0.00    +0.000 OA
ATOM     35  H   UNL     1      49.798   4.659  20.739  0.00  0.00    +0.000 HD
ENDBRANCH  23  34
ENDBRANCH   4  23
TORSDOF 8
ENDMDL
MODEL 4
REMARK VINA RESULT:    -6.745      1.823      2.175
REMARK INTER + INTRA:         -10.245
REMARK INTER:                  -9.188
REMARK INTRA:                  -1.057
REMARK UNBOUND:                -0.740
REMARK  Name = 
REMARK  8 active torsions:
REMARK  status: ('A' for Active; 'I' for Inactive)
REMARK    1  A    between atoms: C_2  and  C_22
REMARK    2  A    between atoms: N_3  and  C_4
REMARK    3  A    between atoms: C_4  and  C_5
REMARK    4  A    between atoms: C_8  and  C_9
REMARK    5  A    between atoms: C_9  and  O_10
REMARK    6  A    between atoms: C_9  and  C_11
REMARK    7  A    between atoms: C_17  and  C_18
REMARK    8  A    between atoms: C_18  and  O_19
REMARK                            x       y       z     vdW  Elec       q    Type
REMARK                         _______ _______ _______ _____ _____    ______ ____
ROOT
ATOM      1  C   UNL     1      48.954   7.362  13.592  0.00  0.00    +0.000 A 
ATOM      2  C   UNL     1      47.904   6.535  14.005  0.00  0.00    +0.000 A 
ATOM      3  C   UNL     1      46.696   6.525  13.309  0.00  0.00    +0.000 A 
ATOM      4  C   UNL     1      46.508   7.347  12.182  0.00  0.00    +0.000 A 
ATOM      5  C   UNL     1      47.587   8.120  11.731  0.00  0.00    +0.000 A 
ATOM      6  C   UNL     1      48.797   8.125  12.428  0.00  0.00    +0.000 A 
ENDROOT
BRANCH   1   7
ATOM      7  C   UNL     1      50.221   7.440  14.402  0.00  0.00    +0.000 C 
BRANCH   7  10
ATOM      8  O   UNL     1      51.720   5.964  16.262  0.00  0.00    +0.000 OA
ATOM      9  C   UNL     1      50.781   6.653  16.661  0.00  0.00    +0.000 C 
ATOM     10  N   UNL     1      49.975   7.364  15.814  0.00  0.00    +0.000 N 
ATOM     11  H   UNL     1      49.323   8.041  16.194  0.00  0.00    +0.000 HD
BRANCH   9  12
ATOM     12  C   UNL     1      50.442   6.720  18.079  0.00  0.00    +0.000 A 
ATOM     13  C   UNL     1      51.326   7.276  18.993  0.00  0.00    +0.000 A 
ATOM     14  S   UNL     1      50.718   7.321  20.588  0.00  0.00    +0.000 S 
ATOM     15  C   UNL     1      49.247   6.613  20.100  0.00  0.00    +0.000 A 
ATOM     16  N   UNL     1      48.239   6.411  20.989  0.00  0.00    +0.000 NA
ATOM     17  C   UNL     1      47.165   5.911  20.472  0.00  0.00    +0.000 A 
ATOM     18  N   UNL     1      47.021   5.569  19.153  0.00  0.00    +0.000 N 
ATOM     19  C   UNL     1      48.043   5.666  18.246  0.00  0.00    +0.000 A 
ATOM     20  O   UNL     1      47.935   5.183  17.121  0.00  0.00    +0.000 OA
ATOM     21  C   UNL     1      49.243   6.304  18.759  0.00  0.00    +0.000 A 
ATOM     22  H   UNL     1      46.176   5.131  18.821  0.00  0.00    +0.000 HD
ENDBRANCH   9  12
ENDBRANCH   7  10
ENDBRANCH   1   7
BRANCH   4  23
ATOM     23  C   UNL     1      45.164   7.341  11.489  0.00  0.00    +0.000 C 
BRANCH  23  24
ATOM     24  C   UNL     1      44.353   6.018  11.608  0.00  0.00    +0.000 C 
ATOM     25  O   UNL     1      43.434   5.919  12.430  0.00  0.00    +0.000 OA
ATOM     26  N   UNL     1      44.643   4.979  10.744  0.00  0.00    +0.000 N 
ATOM     27  C   UNL     1      45.713   4.910   9.764  0.00  0.00    +0.000 C 
ATOM     28  C   UNL     1      45.074   4.156   8.615  0.00  0.00    +0.000 C 
ATOM     29  C   UNL     1      44.198   3.125   9.319  0.00  0.00    +0.000 C 
ATOM     30  C   UNL     1      43.785   3.798  10.642  0.00  0.00    +0.000 C 
BRANCH  30  31
ATOM     31  C   UNL     1      43.931   2.829  11.827  0.00  0.00    +0.000 C 
BRANCH  31  32
ATOM     32  O   UNL     1      43.033   1.728  11.700  0.00  0.00    +0.000 OA
ATOM     33  H   UNL     1      42.336   1.999  11.077  0.00  0.00    +0.000 HD
ENDBRANCH  31  32
ENDBRANCH  30  31
ENDBRANCH  23  24
BRANCH  23  34
ATOM     34  O   UNL     1      44.446   8.475  11.972  0.00  0.00    +0.000 OA
ATOM     35  H   UNL     1      44.042   8.887  11.187  0.00  0.00    +0.000 HD
ENDBRANCH  23  34
ENDBRANCH   4  23
TORSDOF 8
ENDMDL
MODEL 5
REMARK VINA RESULT:    -6.701      3.481      5.127
REMARK INTER + INTRA:         -10.183
REMARK INTER:                  -9.136
REMARK INTRA:                  -1.047
REMARK UNBOUND:                -0.740
REMARK  Name = 
REMARK  8 active torsions:
REMARK  status: ('A' for Active; 'I' for Inactive)
REMARK    1  A    between atoms: C_2  and  C_22
REMARK    2  A    between atoms: N_3  and  C_4
REMARK    3  A    between atoms: C_4  and  C_5
REMARK    4  A    between atoms: C_8  and  C_9
REMARK    5  A    between atoms: C_9  and  O_10
REMARK    6  A    between atoms: C_9  and  C_11
REMARK    7  A    between atoms: C_17  and  C_18
REMARK    8  A    between atoms: C_18  and  O_19
REMARK                            x       y       z     vdW  Elec       q    Type
REMARK                         _______ _______ _______ _____ _____    ______ ____
ROOT
ATOM      1  C   UNL     1      46.692   5.604  12.863  0.00  0.00    +0.000 A 
ATOM      2  C   UNL     1      46.697   6.354  11.682  0.00  0.00    +0.000 A 
ATOM      3  C   UNL     1      45.992   5.916  10.563  0.00  0.00    +0.000 A 
ATOM      4  C   UNL     1      45.266   4.711  10.596  0.00  0.00    +0.000 A 
ATOM      5  C   UNL     1      45.206   4.000  11.803  0.00  0.00    +0.000 A 
ATOM      6  C   UNL     1      45.909   4.444  12.924  0.00  0.00    +0.000 A 
ENDROOT
BRANCH   1   7
ATOM      7  C   UNL     1      47.531   6.033  14.038  0.00  0.00    +0.000 C 
BRANCH   7  10
ATOM      8  O   UNL     1      47.894   8.815  14.164  0.00  0.00    +0.000 OA
ATOM      9  C   UNL     1      48.821   8.107  13.772  0.00  0.00    +0.000 C 
ATOM     10  N   UNL     1      48.709   6.750  13.638  0.00  0.00    +0.000 N 
ATOM     11  H   UNL     1      49.539   6.192  13.471  0.00  0.00    +0.000 HD
BRANCH   9  12
ATOM     12  C   UNL     1      50.102   8.688  13.381  0.00  0.00    +0.000 A 
ATOM     13  C   UNL     1      50.187   9.546  12.294  0.00  0.00    +0.000 A 
ATOM     14  S   UNL     1      51.756  10.170  12.041  0.00  0.00    +0.000 S 
ATOM     15  C   UNL     1      52.365   9.324  13.390  0.00  0.00    +0.000 A 
ATOM     16  N   UNL     1      53.661   9.457  13.773  0.00  0.00    +0.000 NA
ATOM     17  C   UNL     1      53.973   8.796  14.839  0.00  0.00    +0.000 A 
ATOM     18  N   UNL     1      53.110   7.993  15.538  0.00  0.00    +0.000 N 
ATOM     19  C   UNL     1      51.823   7.756  15.131  0.00  0.00    +0.000 A 
ATOM     20  O   UNL     1      51.140   6.893  15.677  0.00  0.00    +0.000 OA
ATOM     21  C   UNL     1      51.401   8.545  13.987  0.00  0.00    +0.000 A 
ATOM     22  H   UNL     1      53.428   7.459  16.331  0.00  0.00    +0.000 HD
ENDBRANCH   9  12
ENDBRANCH   7  10
ENDBRANCH   1   7
BRANCH   4  23
ATOM     23  C   UNL     1      44.559   4.248   9.342  0.00  0.00    +0.000 C 
BRANCH  23  24
ATOM     24  C   UNL     1      45.032   2.879   8.771  0.00  0.00    +0.000 C 
ATOM     25  O   UNL     1      44.513   1.826   9.160  0.00  0.00    +0.000 OA
ATOM     26  N   UNL     1      46.002   2.868   7.786  0.00  0.00    +0.000 N 
ATOM     27  C   UNL     1      46.745   3.998   7.256  0.00  0.00    +0.000 C 
ATOM     28  C   UNL     1      46.889   3.653   5.788  0.00  0.00    +0.000 C 
ATOM     29  C   UNL     1      47.103   2.143   5.804  0.00  0.00    +0.000 C 
ATOM     30  C   UNL     1      46.334   1.651   7.045  0.00  0.00    +0.000 C 
BRANCH  30  31
ATOM     31  C   UNL     1      47.173   0.648   7.856  0.00  0.00    +0.000 C 
BRANCH  31  32
ATOM     32  O   UNL     1      46.718  -0.687   7.643  0.00  0.00    +0.000 OA
ATOM     33  H   UNL     1      45.868  -0.776   8.108  0.00  0.00    +0.000 HD
ENDBRANCH  31  32
ENDBRANCH  30  31
ENDBRANCH  23  24
BRANCH  23  34
ATOM     34  O   UNL     1      43.160   4.277   9.622  0.00  0.00    +0.000 OA
ATOM     35  H   UNL     1      42.779   3.518   9.145  0.00  0.00    +0.000 HD
ENDBRANCH  23  34
ENDBRANCH   4  23
TORSDOF 8
ENDMDL
MODEL 6
REMARK VINA RESULT:    -6.615      3.041      8.367
REMARK INTER + INTRA:         -10.062
REMARK INTER:                  -8.854
REMARK INTRA:                  -1.208
REMARK UNBOUND:                -0.740
REMARK  Name = 
REMARK  8 active torsions:
REMARK  status: ('A' for Active; 'I' for Inactive)
REMARK    1  A    between atoms: C_2  and  C_22
REMARK    2  A    between atoms: N_3  and  C_4
REMARK    3  A    between atoms: C_4  and  C_5
REMARK    4  A    between atoms: C_8  and  C_9
REMARK    5  A    between atoms: C_9  and  O_10
REMARK    6  A    between atoms: C_9  and  C_11
REMARK    7  A    between atoms: C_17  and  C_18
REMARK    8  A    between atoms: C_18  and  O_19
REMARK                            x       y       z     vdW  Elec       q    Type
REMARK                         _______ _______ _______ _____ _____    ______ ____
ROOT
ATOM      1  C   UNL     1      47.975   7.947  13.353  0.00  0.00    +0.000 A 
ATOM      2  C   UNL     1      48.384   9.184  13.864  0.00  0.00    +0.000 A 
ATOM      3  C   UNL     1      49.012   9.264  15.106  0.00  0.00    +0.000 A 
ATOM      4  C   UNL     1      49.242   8.106  15.872  0.00  0.00    +0.000 A 
ATOM      5  C   UNL     1      48.895   6.862  15.325  0.00  0.00    +0.000 A 
ATOM      6  C   UNL     1      48.270   6.785  14.078  0.00  0.00    +0.000 A 
ENDROOT
BRANCH   1   7
ATOM      7  C   UNL     1      47.213   7.877  12.056  0.00  0.00    +0.000 C 
BRANCH   7  10
ATOM      8  O   UNL     1      44.465   7.417  11.705  0.00  0.00    +0.000 OA
ATOM      9  C   UNL     1      45.244   6.465  11.649  0.00  0.00    +0.000 C 
ATOM     10  N   UNL     1      46.590   6.599  11.856  0.00  0.00    +0.000 N 
ATOM     11  H   UNL     1      47.209   5.825  11.640  0.00  0.00    +0.000 HD
BRANCH   9  12
ATOM     12  C   UNL     1      44.763   5.110  11.397  0.00  0.00    +0.000 A 
ATOM     13  C   UNL     1      44.042   4.424  12.364  0.00  0.00    +0.000 A 
ATOM     14  S   UNL     1      43.514   2.882  11.852  0.00  0.00    +0.000 S 
ATOM     15  C   UNL     1      44.220   3.094  10.316  0.00  0.00    +0.000 A 
ATOM     16  N   UNL     1      44.094   2.146   9.351  0.00  0.00    +0.000 NA
ATOM     17  C   UNL     1      44.639   2.461   8.221  0.00  0.00    +0.000 A 
ATOM     18  N   UNL     1      45.320   3.625   7.981  0.00  0.00    +0.000 N 
ATOM     19  C   UNL     1      45.552   4.562   8.953  0.00  0.00    +0.000 A 
ATOM     20  O   UNL     1      46.317   5.502   8.751  0.00  0.00    +0.000 OA
ATOM     21  C   UNL     1      44.886   4.295  10.216  0.00  0.00    +0.000 A 
ATOM     22  H   UNL     1      45.770   3.788   7.094  0.00  0.00    +0.000 HD
ENDBRANCH   9  12
ENDBRANCH   7  10
ENDBRANCH   1   7
BRANCH   4  23
ATOM     23  C   UNL     1      49.879   8.245  17.236  0.00  0.00    +0.000 C 
BRANCH  23  24
ATOM     24  C   UNL     1      49.910   6.950  18.099  0.00  0.00    +0.000 C 
ATOM     25  O   UNL     1      50.852   6.155  18.001  0.00  0.00    +0.000 OA
ATOM     26  N   UNL     1      48.893   6.733  19.011  0.00  0.00    +0.000 N 
ATOM     27  C   UNL     1      47.697   7.531  19.215  0.00  0.00    +0.000 C 
ATOM     28  C   UNL     1      47.493   7.461  20.715  0.00  0.00    +0.000 C 
ATOM     29  C   UNL     1      47.898   6.030  21.055  0.00  0.00    +0.000 C 
ATOM     30  C   UNL     1      48.967   5.665  20.007  0.00  0.00    +0.000 C 
BRANCH  30  31
ATOM     31  C   UNL     1      48.718   4.264  19.425  0.00  0.00    +0.000 C 
BRANCH  31  32
ATOM     32  O   UNL     1      49.940   3.662  19.001  0.00  0.00    +0.000 OA
ATOM     33  H   UNL     1      50.509   4.377  18.668  0.00  0.00    +0.000 HD
ENDBRANCH  31  32
ENDBRANCH  30  31
ENDBRANCH  23  24
BRANCH  23  34
ATOM     34  O   UNL     1      51.176   8.804  17.031  0.00  0.00    +0.000 OA
ATOM     35  H   UNL     1      51.054   9.770  17.050  0.00  0.00    +0.000 HD
ENDBRANCH  23  34
ENDBRANCH   4  23
TORSDOF 8
ENDMDL
MODEL 7
REMARK VINA RESULT:    -6.604      1.779      2.127
REMARK INTER + INTRA:         -10.046
REMARK INTER:                  -8.621
REMARK INTRA:                  -1.425
REMARK UNBOUND:                -0.740
REMARK  Name = 
REMARK  8 active torsions:
REMARK  status: ('A' for Active; 'I' for Inactive)
REMARK    1  A    between atoms: C_2  and  C_22
REMARK    2  A    between atoms: N_3  and  C_4
REMARK    3  A    between atoms: C_4  and  C_5
REMARK    4  A    between atoms: C_8  and  C_9
REMARK    5  A    between atoms: C_9  and  O_10
REMARK    6  A    between atoms: C_9  and  C_11
REMARK    7  A    between atoms: C_17  and  C_18
REMARK    8  A    between atoms: C_18  and  O_19
REMARK                            x       y       z     vdW  Elec       q    Type
REMARK                         _______ _______ _______ _____ _____    ______ ____
ROOT
ATOM      1  C   UNL     1      48.509   8.486  13.452  0.00  0.00    +0.000 A 
ATOM      2  C   UNL     1      47.481   9.414  13.251  0.00  0.00    +0.000 A 
ATOM      3  C   UNL     1      46.320   9.047  12.573  0.00  0.00    +0.000 A 
ATOM      4  C   UNL     1      46.160   7.742  12.073  0.00  0.00    +0.000 A 
ATOM      5  C   UNL     1      47.161   6.797  12.338  0.00  0.00    +0.000 A 
ATOM      6  C   UNL     1      48.321   7.166  13.022  0.00  0.00    +0.000 A 
ENDROOT
BRANCH   1   7
ATOM      7  C   UNL     1      49.799   8.912  14.101  0.00  0.00    +0.000 C 
BRANCH   7  10
ATOM      8  O   UNL     1      51.000   8.996  16.638  0.00  0.00    +0.000 OA
ATOM      9  C   UNL     1      50.992   7.935  16.014  0.00  0.00    +0.000 C 
ATOM     10  N   UNL     1      50.469   7.823  14.754  0.00  0.00    +0.000 N 
ATOM     11  H   UNL     1      50.337   6.904  14.346  0.00  0.00    +0.000 HD
BRANCH   9  12
ATOM     12  C   UNL     1      51.588   6.725  16.573  0.00  0.00    +0.000 A 
ATOM     13  C   UNL     1      52.941   6.678  16.876  0.00  0.00    +0.000 A 
ATOM     14  S   UNL     1      53.430   5.202  17.581  0.00  0.00    +0.000 S 
ATOM     15  C   UNL     1      51.841   4.587  17.517  0.00  0.00    +0.000 A 
ATOM     16  N   UNL     1      51.545   3.360  18.018  0.00  0.00    +0.000 NA
ATOM     17  C   UNL     1      50.294   3.042  17.946  0.00  0.00    +0.000 A 
ATOM     18  N   UNL     1      49.320   3.833  17.393  0.00  0.00    +0.000 N 
ATOM     19  C   UNL     1      49.592   5.034  16.793  0.00  0.00    +0.000 A 
ATOM     20  O   UNL     1      48.728   5.626  16.151  0.00  0.00    +0.000 OA
ATOM     21  C   UNL     1      50.970   5.473  16.925  0.00  0.00    +0.000 A 
ATOM     22  H   UNL     1      48.370   3.505  17.317  0.00  0.00    +0.000 HD
ENDBRANCH   9  12
ENDBRANCH   7  10
ENDBRANCH   1   7
BRANCH   4  23
ATOM     23  C   UNL     1      44.906   7.404  11.297  0.00  0.00    +0.000 C 
BRANCH  23  24
ATOM     24  C   UNL     1      44.322   5.983  11.552  0.00  0.00    +0.000 C 
ATOM     25  O   UNL     1      43.545   5.785  12.492  0.00  0.00    +0.000 OA
ATOM     26  N   UNL     1      44.648   4.963  10.677  0.00  0.00    +0.000 N 
ATOM     27  C   UNL     1      45.578   5.010   9.562  0.00  0.00    +0.000 C 
ATOM     28  C   UNL     1      44.912   4.128   8.525  0.00  0.00    +0.000 C 
ATOM     29  C   UNL     1      44.298   3.010   9.362  0.00  0.00    +0.000 C 
ATOM     30  C   UNL     1      43.968   3.668  10.715  0.00  0.00    +0.000 C 
BRANCH  30  31
ATOM     31  C   UNL     1      44.410   2.778  11.888  0.00  0.00    +0.000 C 
BRANCH  31  32
ATOM     32  O   UNL     1      43.583   2.990  13.031  0.00  0.00    +0.000 OA
ATOM     33  H   UNL     1      44.133   2.819  13.816  0.00  0.00    +0.000 HD
ENDBRANCH  31  32
ENDBRANCH  30  31
ENDBRANCH  23  24
BRANCH  23  34
ATOM     34  O   UNL     1      43.966   8.443  11.560  0.00  0.00    +0.000 OA
ATOM     35  H   UNL     1      43.431   8.528  10.750  0.00  0.00    +0.000 HD
ENDBRANCH  23  34
ENDBRANCH   4  23
TORSDOF 8
ENDMDL
MODEL 8
REMARK VINA RESULT:    -6.600      2.095      2.806
REMARK INTER + INTRA:         -10.041
REMARK INTER:                  -9.074
REMARK INTRA:                  -0.967
REMARK UNBOUND:                -0.740
REMARK  Name = 
REMARK  8 active torsions:
REMARK  status: ('A' for Active; 'I' for Inactive)
REMARK    1  A    between atoms: C_2  and  C_22
REMARK    2  A    between atoms: N_3  and  C_4
REMARK    3  A    between atoms: C_4  and  C_5
REMARK    4  A    between atoms: C_8  and  C_9
REMARK    5  A    between atoms: C_9  and  O_10
REMARK    6  A    between atoms: C_9  and  C_11
REMARK    7  A    between atoms: C_17  and  C_18
REMARK    8  A    between atoms: C_18  and  O_19
REMARK                            x       y       z     vdW  Elec       q    Type
REMARK                         _______ _______ _______ _____ _____    ______ ____
ROOT
ATOM      1  C   UNL     1      47.892   7.857  13.896  0.00  0.00    +0.000 A 
ATOM      2  C   UNL     1      47.167   8.915  13.336  0.00  0.00    +0.000 A 
ATOM      3  C   UNL     1      46.102   8.663  12.472  0.00  0.00    +0.000 A 
ATOM      4  C   UNL     1      45.737   7.344  12.145  0.00  0.00    +0.000 A 
ATOM      5  C   UNL     1      46.420   6.288  12.765  0.00  0.00    +0.000 A 
ATOM      6  C   UNL     1      47.484   6.543  13.632  0.00  0.00    +0.000 A 
ENDROOT
BRANCH   1   7
ATOM      7  C   UNL     1      49.099   8.135  14.752  0.00  0.00    +0.000 C 
BRANCH   7  10
ATOM      8  O   UNL     1      48.553   7.235  17.355  0.00  0.00    +0.000 OA
ATOM      9  C   UNL     1      49.273   6.554  16.625  0.00  0.00    +0.000 C 
ATOM     10  N   UNL     1      49.624   6.946  15.362  0.00  0.00    +0.000 N 
ATOM     11  H   UNL     1      50.080   6.286  14.741  0.00  0.00    +0.000 HD
BRANCH   9  12
ATOM     12  C   UNL     1      49.838   5.290  17.087  0.00  0.00    +0.000 A 
ATOM     13  C   UNL     1      49.026   4.182  17.282  0.00  0.00    +0.000 A 
ATOM     14  S   UNL     1      49.885   2.785  17.759  0.00  0.00    +0.000 S 
ATOM     15  C   UNL     1      51.371   3.618  17.702  0.00  0.00    +0.000 A 
ATOM     16  N   UNL     1      52.542   2.978  17.958  0.00  0.00    +0.000 NA
ATOM     17  C   UNL     1      53.593   3.720  17.832  0.00  0.00    +0.000 A 
ATOM     18  N   UNL     1      53.573   5.050  17.501  0.00  0.00    +0.000 N 
ATOM     19  C   UNL     1      52.411   5.754  17.329  0.00  0.00    +0.000 A 
ATOM     20  O   UNL     1      52.427   6.977  17.214  0.00  0.00    +0.000 OA
ATOM     21  C   UNL     1      51.206   4.944  17.375  0.00  0.00    +0.000 A 
ATOM     22  H   UNL     1      54.425   5.588  17.472  0.00  0.00    +0.000 HD
ENDBRANCH   9  12
ENDBRANCH   7  10
ENDBRANCH   1   7
BRANCH   4  23
ATOM     23  C   UNL     1      44.609   7.119  11.164  0.00  0.00    +0.000 C 
BRANCH  23  24
ATOM     24  C   UNL     1      43.952   5.708  11.207  0.00  0.00    +0.000 C 
ATOM     25  O   UNL     1      42.962   5.501  11.918  0.00  0.00    +0.000 OA
ATOM     26  N   UNL     1      44.463   4.711  10.398  0.00  0.00    +0.000 N 
ATOM     27  C   UNL     1      45.641   4.769   9.550  0.00  0.00    +0.000 C 
ATOM     28  C   UNL     1      45.236   3.943   8.347  0.00  0.00    +0.000 C 
ATOM     29  C   UNL     1      44.412   2.816   8.959  0.00  0.00    +0.000 C 
ATOM     30  C   UNL     1      43.770   3.436  10.215  0.00  0.00    +0.000 C 
BRANCH  30  31
ATOM     31  C   UNL     1      43.890   2.492  11.423  0.00  0.00    +0.000 C 
BRANCH  31  32
ATOM     32  O   UNL     1      44.819   3.001  12.379  0.00  0.00    +0.000 OA
ATOM     33  H   UNL     1      44.362   3.020  13.238  0.00  0.00    +0.000 HD
ENDBRANCH  31  32
ENDBRANCH  30  31
ENDBRANCH  23  24
BRANCH  23  34
ATOM     34  O   UNL     1      43.669   8.173  11.367  0.00  0.00    +0.000 OA
ATOM     35  H   UNL     1      43.725   8.399  12.313  0.00  0.00    +0.000 HD
ENDBRANCH  23  34
ENDBRANCH   4  23
TORSDOF 8
ENDMDL
MODEL 9
REMARK VINA RESULT:    -6.580      4.151      8.530
REMARK INTER + INTRA:         -10.013
REMARK INTER:                  -9.295
REMARK INTRA:                  -0.718
REMARK UNBOUND:                -0.740
REMARK  Name = 
REMARK  8 active torsions:
REMARK  status: ('A' for Active; 'I' for Inactive)
REMARK    1  A    between atoms: C_2  and  C_22
REMARK    2  A    between atoms: N_3  and  C_4
REMARK    3  A    between atoms: C_4  and  C_5
REMARK    4  A    between atoms: C_8  and  C_9
REMARK    5  A    between atoms: C_9  and  O_10
REMARK    6  A    between atoms: C_9  and  C_11
REMARK    7  A    between atoms: C_17  and  C_18
REMARK    8  A    between atoms: C_18  and  O_19
REMARK                            x       y       z     vdW  Elec       q    Type
REMARK                         _______ _______ _______ _____ _____    ______ ____
ROOT
ATOM      1  C   UNL     1      44.435   4.624  12.148  0.00  0.00    +0.000 A 
ATOM      2  C   UNL     1      45.385   4.542  13.172  0.00  0.00    +0.000 A 
ATOM      3  C   UNL     1      46.112   5.668  13.554  0.00  0.00    +0.000 A 
ATOM      4  C   UNL     1      45.908   6.906  12.917  0.00  0.00    +0.000 A 
ATOM      5  C   UNL     1      44.906   6.999  11.942  0.00  0.00    +0.000 A 
ATOM      6  C   UNL     1      44.176   5.870  11.564  0.00  0.00    +0.000 A 
ENDROOT
BRANCH   1   7
ATOM      7  C   UNL     1      43.721   3.385  11.675  0.00  0.00    +0.000 C 
BRANCH   7  10
ATOM      8  O   UNL     1      43.917   3.818   8.907  0.00  0.00    +0.000 OA
ATOM      9  C   UNL     1      44.584   2.921   9.422  0.00  0.00    +0.000 C 
ATOM     10  N   UNL     1      44.509   2.616  10.754  0.00  0.00    +0.000 N 
ATOM     11  H   UNL     1      45.190   1.985  11.163  0.00  0.00    +0.000 HD
BRANCH   9  12
ATOM     12  C   UNL     1      45.475   2.087   8.620  0.00  0.00    +0.000 A 
ATOM     13  C   UNL     1      45.447   0.705   8.737  0.00  0.00    +0.000 A 
ATOM     14  S   UNL     1      46.516  -0.090   7.669  0.00  0.00    +0.000 S 
ATOM     15  C   UNL     1      47.036   1.391   7.006  0.00  0.00    +0.000 A 
ATOM     16  N   UNL     1      47.932   1.425   5.986  0.00  0.00    +0.000 NA
ATOM     17  C   UNL     1      48.200   2.613   5.551  0.00  0.00    +0.000 A 
ATOM     18  N   UNL     1      47.671   3.768   6.065  0.00  0.00    +0.000 N 
ATOM     19  C   UNL     1      46.841   3.784   7.153  0.00  0.00    +0.000 A 
ATOM     20  O   UNL     1      46.534   4.843   7.696  0.00  0.00    +0.000 OA
ATOM     21  C   UNL     1      46.442   2.469   7.623  0.00  0.00    +0.000 A 
ATOM     22  H   UNL     1      47.962   4.669   5.717  0.00  0.00    +0.000 HD
ENDBRANCH   9  12
ENDBRANCH   7  10
ENDBRANCH   1   7
BRANCH   4  23
ATOM     23  C   UNL     1      46.756   8.089  13.329  0.00  0.00    +0.000 C 
BRANCH  23  24
ATOM     24  C   UNL     1      48.077   8.279  12.528  0.00  0.00    +0.000 C 
ATOM     25  O   UNL     1      48.259   7.671  11.467  0.00  0.00    +0.000 OA
ATOM     26  N   UNL     1      49.017   9.178  12.998  0.00  0.00    +0.000 N 
ATOM     27  C   UNL     1      48.985   9.930  14.240  0.00  0.00    +0.000 C 
ATOM     28  C   UNL     1      49.602  11.258  13.851  0.00  0.00    +0.000 C 
ATOM     29  C   UNL     1      50.697  10.859  12.867  0.00  0.00    +0.000 C 
ATOM     30  C   UNL     1      50.171   9.578  12.193  0.00  0.00    +0.000 C 
BRANCH  30  31
ATOM     31  C   UNL     1      51.267   8.502  12.115  0.00  0.00    +0.000 C 
BRANCH  31  32
ATOM     32  O   UNL     1      51.364   7.782  13.343  0.00  0.00    +0.000 OA
ATOM     33  H   UNL     1      52.160   8.105  13.801  0.00  0.00    +0.000 HD
ENDBRANCH  31  32
ENDBRANCH  30  31
ENDBRANCH  23  24
BRANCH  23  34
ATOM     34  O   UNL     1      45.912   9.238  13.284  0.00  0.00    +0.000 OA
ATOM     35  H   UNL     1      46.284   9.813  12.592  0.00  0.00    +0.000 HD
ENDBRANCH  23  34
ENDBRANCH   4  23
TORSDOF 8
ENDMDL
