MODEL 1
REMARK VINA RESULT:    -8.385      0.000      0.000
REMARK INTER + INTRA:         -11.388
REMARK INTER:                 -10.836
REMARK INTRA:                  -0.552
REMARK UNBOUND:                -0.552
REMARK  Name = 
REMARK  5 active torsions:
REMARK  status: ('A' for Active; 'I' for Inactive)
REMARK    1  A    between atoms: C_2  and  C_19
REMARK    2  A    between atoms: N_3  and  C_4
REMARK    3  A    between atoms: C_4  and  C_5
REMARK    4  A    between atoms: C_8  and  C_9
REMARK    5  A    between atoms: C_9  and  N_10
REMARK                            x       y       z     vdW  Elec       q    Type
REMARK                         _______ _______ _______ _____ _____    ______ ____
ROOT
ATOM      1  C   UNL     1      46.328   7.277  13.233  0.00  0.00    +0.000 C 
ENDROOT
BRANCH   1   2
ATOM      2  C   UNL     1      46.326   5.908  12.525  0.00  0.00    +0.000 C 
ATOM      3  C   UNL     1      45.220   4.974  13.050  0.00  0.00    +0.000 C 
ATOM      4  C   UNL     1      43.824   5.390  12.585  0.00  0.00    +0.000 C 
ATOM      5  C   UNL     1      43.725   5.549  11.058  0.00  0.00    +0.000 C 
ATOM      6  C   UNL     1      44.826   6.499  10.553  0.00  0.00    +0.000 C 
ATOM      7  C   UNL     1      46.225   6.076  11.004  0.00  0.00    +0.000 C 
BRANCH   5   8
ATOM      8  C   UNL     1      43.808   4.207  10.306  0.00  0.00    +0.000 C 
BRANCH   8   9
ATOM      9  N   UNL     1      44.054   4.408   8.889  0.00  0.00    +0.000 N 
ATOM     10  C   UNL     1      44.994   3.527   8.369  0.00  0.00    +0.000 A 
ATOM     11  N   UNL     1      45.127   2.295   8.890  0.00  0.00    +0.000 NA
ATOM     12  C   UNL     1      46.069   1.499   8.361  0.00  0.00    +0.000 A 
ATOM     13  C   UNL     1      46.885   1.877   7.327  0.00  0.00    +0.000 A 
ATOM     14  C   UNL     1      46.677   3.151   6.864  0.00  0.00    +0.000 A 
ATOM     15  N   UNL     1      45.751   3.992   7.368  0.00  0.00    +0.000 NA
ATOM     16  H   UNL     1      44.352   5.336   8.611  0.00  0.00    +0.000 HD
ENDBRANCH   8   9
ENDBRANCH   5   8
ENDBRANCH   1   2
BRANCH   1  19
ATOM     17  O   UNL     1      49.042   6.347  13.344  0.00  0.00    +0.000 OA
ATOM     18  C   UNL     1      48.463   6.712  14.358  0.00  0.00    +0.000 C 
ATOM     19  N   UNL     1      47.193   7.246  14.386  0.00  0.00    +0.000 N 
ATOM     20  H   UNL     1      46.736   7.287  15.285  0.00  0.00    +0.000 HD
BRANCH  18  21
ATOM     21  C   UNL     1      48.939   6.437  15.708  0.00  0.00    +0.000 A 
ATOM     22  C   UNL     1      49.780   7.297  16.391  0.00  0.00    +0.000 A 
ATOM     23  S   UNL     1      50.592   6.499  17.675  0.00  0.00    +0.000 S 
ATOM     24  C   UNL     1      49.737   5.049  17.394  0.00  0.00    +0.000 A 
ATOM     25  N   UNL     1      50.035   3.887  18.033  0.00  0.00    +0.000 NA
ATOM     26  C   UNL     1      49.252   2.902  17.731  0.00  0.00    +0.000 A 
ATOM     27  N   UNL     1      48.169   2.982  16.889  0.00  0.00    +0.000 N 
ATOM     28  C   UNL     1      47.814   4.143  16.242  0.00  0.00    +0.000 A 
ATOM     29  O   UNL     1      46.791   4.228  15.576  0.00  0.00    +0.000 OA
ATOM     30  C   UNL     1      48.750   5.227  16.450  0.00  0.00    +0.000 A 
ATOM     31  H   UNL     1      47.541   2.202  16.773  0.00  0.00    +0.000 HD
ENDBRANCH  18  21
ENDBRANCH   1  19
TORSDOF 5
ENDMDL
MODEL 2
REMARK VINA RESULT:    -8.182      3.414      4.227
REMARK INTER + INTRA:         -11.125
REMARK INTER:                 -10.659
REMARK INTRA:                  -0.466
REMARK UNBOUND:                -0.552
REMARK  Name = 
REMARK  5 active torsions:
REMARK  status: ('A' for Active; 'I' for Inactive)
REMARK    1  A    between atoms: C_2  and  C_19
REMARK    2  A    between atoms: N_3  and  C_4
REMARK    3  A    between atoms: C_4  and  C_5
REMARK    4  A    between atoms: C_8  and  C_9
REMARK    5  A    between atoms: C_9  and  N_10
REMARK                            x       y       z     vdW  Elec       q    Type
REMARK                         _______ _______ _______ _____ _____    ______ ____
ROOT
ATOM      1  C   UNL     1      45.253   6.173  13.145  0.00  0.00    +0.000 C 
ENDROOT
BRANCH   1   2
ATOM      2  C   UNL     1      45.836   5.123  12.180  0.00  0.00    +0.000 C 
ATOM      3  C   UNL     1      45.572   3.680  12.649  0.00  0.00    +0.000 C 
ATOM      4  C   UNL     1      44.113   3.258  12.473  0.00  0.00    +0.000 C 
ATOM      5  C   UNL     1      43.598   3.468  11.038  0.00  0.00    +0.000 C 
ATOM      6  C   UNL     1      43.854   4.919  10.592  0.00  0.00    +0.000 C 
ATOM      7  C   UNL     1      45.316   5.339  10.753  0.00  0.00    +0.000 C 
BRANCH   5   8
ATOM      8  C   UNL     1      44.226   2.493  10.024  0.00  0.00    +0.000 C 
BRANCH   8   9
ATOM      9  N   UNL     1      44.245   3.059   8.687  0.00  0.00    +0.000 N 
ATOM     10  C   UNL     1      45.392   2.732   7.973  0.00  0.00    +0.000 A 
ATOM     11  N   UNL     1      46.021   1.567   8.202  0.00  0.00    +0.000 NA
ATOM     12  C   UNL     1      47.138   1.319   7.499  0.00  0.00    +0.000 A 
ATOM     13  C   UNL     1      47.654   2.184   6.570  0.00  0.00    +0.000 A 
ATOM     14  C   UNL     1      46.944   3.347   6.409  0.00  0.00    +0.000 A 
ATOM     15  N   UNL     1      45.825   3.646   7.097  0.00  0.00    +0.000 NA
ATOM     16  H   UNL     1      44.149   4.066   8.623  0.00  0.00    +0.000 HD
ENDBRANCH   8   9
ENDBRANCH   5   8
ENDBRANCH   1   2
BRANCH   1  19
ATOM     17  O   UNL     1      45.342   8.444  11.391  0.00  0.00    +0.000 OA
ATOM     18  C   UNL     1      46.148   8.325  12.303  0.00  0.00    +0.000 C 
ATOM     19  N   UNL     1      46.130   7.313  13.238  0.00  0.00    +0.000 N 
ATOM     20  H   UNL     1      46.967   7.185  13.787  0.00  0.00    +0.000 HD
BRANCH  18  21
ATOM     21  C   UNL     1      47.373   9.107  12.410  0.00  0.00    +0.000 A 
ATOM     22  C   UNL     1      47.369  10.482  12.556  0.00  0.00    +0.000 A 
ATOM     23  S   UNL     1      48.878  11.170  12.114  0.00  0.00    +0.000 S 
ATOM     24  C   UNL     1      49.567   9.631  11.845  0.00  0.00    +0.000 A 
ATOM     25  N   UNL     1      50.801   9.466  11.298  0.00  0.00    +0.000 NA
ATOM     26  C   UNL     1      51.180   8.232  11.213  0.00  0.00    +0.000 A 
ATOM     27  N   UNL     1      50.464   7.151  11.669  0.00  0.00    +0.000 N 
ATOM     28  C   UNL     1      49.224   7.273  12.253  0.00  0.00    +0.000 A 
ATOM     29  O   UNL     1      48.642   6.315  12.744  0.00  0.00    +0.000 OA
ATOM     30  C   UNL     1      48.711   8.625  12.237  0.00  0.00    +0.000 A 
ATOM     31  H   UNL     1      50.860   6.223  11.662  0.00  0.00    +0.000 HD
ENDBRANCH  18  21
ENDBRANCH   1  19
TORSDOF 5
ENDMDL
MODEL 3
REMARK VINA RESULT:    -7.926      1.577      2.165
REMARK INTER + INTRA:         -10.795
REMARK INTER:                 -10.896
REMARK INTRA:                   0.101
REMARK UNBOUND:                -0.552
REMARK  Name = 
REMARK  5 active torsions:
REMARK  status: ('A' for Active; 'I' for Inactive)
REMARK    1  A    between atoms: C_2  and  C_19
REMARK    2  A    between atoms: N_3  and  C_4
REMARK    3  A    between atoms: C_4  and  C_5
REMARK    4  A    between atoms: C_8  and  C_9
REMARK    5  A    between atoms: C_9  and  N_10
REMARK                            x       y       z     vdW  Elec       q    Type
REMARK                         _______ _______ _______ _____ _____    ______ ____
ROOT
ATOM      1  C   UNL     1      46.012   5.279  13.910  0.00  0.00    +0.000 C 
ENDROOT
BRANCH   1   2
ATOM      2  C   UNL     1      46.290   4.657  12.528  0.00  0.00    +0.000 C 
ATOM      3  C   UNL     1      45.727   3.229  12.399  0.00  0.00    +0.000 C 
ATOM      4  C   UNL     1      44.204   3.203  12.276  0.00  0.00    +0.000 C 
ATOM      5  C   UNL     1      43.679   4.100  11.141  0.00  0.00    +0.000 C 
ATOM      6  C   UNL     1      44.237   5.527  11.295  0.00  0.00    +0.000 C 
ATOM      7  C   UNL     1      45.763   5.557  11.404  0.00  0.00    +0.000 C 
BRANCH   5   8
ATOM      8  C   UNL     1      44.016   3.557   9.740  0.00  0.00    +0.000 C 
BRANCH   8   9
ATOM      9  N   UNL     1      44.944   2.442   9.812  0.00  0.00    +0.000 N 
ATOM     10  C   UNL     1      45.783   2.359   8.707  0.00  0.00    +0.000 A 
ATOM     11  N   UNL     1      46.144   3.472   8.047  0.00  0.00    +0.000 NA
ATOM     12  C   UNL     1      46.936   3.324   6.973  0.00  0.00    +0.000 A 
ATOM     13  C   UNL     1      47.388   2.109   6.529  0.00  0.00    +0.000 A 
ATOM     14  C   UNL     1      46.964   1.032   7.265  0.00  0.00    +0.000 A 
ATOM     15  N   UNL     1      46.162   1.128   8.344  0.00  0.00    +0.000 NA
ATOM     16  H   UNL     1      44.534   1.522   9.927  0.00  0.00    +0.000 HD
ENDBRANCH   8   9
ENDBRANCH   5   8
ENDBRANCH   1   2
BRANCH   1  19
ATOM     17  O   UNL     1      46.729   3.768  16.243  0.00  0.00    +0.000 OA
ATOM     18  C   UNL     1      47.455   4.659  15.826  0.00  0.00    +0.000 C 
ATOM     19  N   UNL     1      47.231   5.378  14.673  0.00  0.00    +0.000 N 
ATOM     20  H   UNL     1      47.757   6.232  14.559  0.00  0.00    +0.000 HD
BRANCH  18  21
ATOM     21  C   UNL     1      48.548   5.243  16.596  0.00  0.00    +0.000 A 
ATOM     22  C   UNL     1      48.773   6.606  16.655  0.00  0.00    +0.000 A 
ATOM     23  S   UNL     1      50.377   6.961  17.148  0.00  0.00    +0.000 S 
ATOM     24  C   UNL     1      50.730   5.309  17.396  0.00  0.00    +0.000 A 
ATOM     25  N   UNL     1      51.982   4.861  17.679  0.00  0.00    +0.000 NA
ATOM     26  C   UNL     1      52.053   3.585  17.883  0.00  0.00    +0.000 A 
ATOM     27  N   UNL     1      50.983   2.723  17.879  0.00  0.00    +0.000 N 
ATOM     28  C   UNL     1      49.695   3.135  17.624  0.00  0.00    +0.000 A 
ATOM     29  O   UNL     1      48.739   2.378  17.723  0.00  0.00    +0.000 OA
ATOM     30  C   UNL     1      49.601   4.531  17.256  0.00  0.00    +0.000 A 
ATOM     31  H   UNL     1      51.092   1.755  18.143  0.00  0.00    +0.000 HD
ENDBRANCH  18  21
ENDBRANCH   1  19
TORSDOF 5
ENDMDL
MODEL 4
REMARK VINA RESULT:    -7.888      1.835      2.357
REMARK INTER + INTRA:         -10.746
REMARK INTER:                 -10.176
REMARK INTRA:                  -0.570
REMARK UNBOUND:                -0.552
REMARK  Name = 
REMARK  5 active torsions:
REMARK  status: ('A' for Active; 'I' for Inactive)
REMARK    1  A    between atoms: C_2  and  C_19
REMARK    2  A    between atoms: N_3  and  C_4
REMARK    3  A    between atoms: C_4  and  C_5
REMARK    4  A    between atoms: C_8  and  C_9
REMARK    5  A    between atoms: C_9  and  N_10
REMARK                            x       y       z     vdW  Elec       q    Type
REMARK                         _______ _______ _______ _____ _____    ______ ____
ROOT
ATOM      1  C   UNL     1      45.767   5.938  13.066  0.00  0.00    +0.000 C 
ENDROOT
BRANCH   1   2
ATOM      2  C   UNL     1      46.170   4.855  12.047  0.00  0.00    +0.000 C 
ATOM      3  C   UNL     1      45.742   3.443  12.487  0.00  0.00    +0.000 C 
ATOM      4  C   UNL     1      44.235   3.217  12.364  0.00  0.00    +0.000 C 
ATOM      5  C   UNL     1      43.693   3.539  10.961  0.00  0.00    +0.000 C 
ATOM      6  C   UNL     1      44.115   4.960  10.545  0.00  0.00    +0.000 C 
ATOM      7  C   UNL     1      45.625   5.184  10.652  0.00  0.00    +0.000 C 
BRANCH   5   8
ATOM      8  C   UNL     1      44.148   2.526   9.893  0.00  0.00    +0.000 C 
BRANCH   8   9
ATOM      9  N   UNL     1      44.289   3.154   8.592  0.00  0.00    +0.000 N 
ATOM     10  C   UNL     1      45.448   2.776   7.926  0.00  0.00    +0.000 A 
ATOM     11  N   UNL     1      45.975   1.557   8.126  0.00  0.00    +0.000 NA
ATOM     12  C   UNL     1      47.110   1.259   7.474  0.00  0.00    +0.000 A 
ATOM     13  C   UNL     1      47.743   2.127   6.623  0.00  0.00    +0.000 A 
ATOM     14  C   UNL     1      47.132   3.348   6.486  0.00  0.00    +0.000 A 
ATOM     15  N   UNL     1      45.999   3.697   7.126  0.00  0.00    +0.000 NA
ATOM     16  H   UNL     1      44.271   4.168   8.577  0.00  0.00    +0.000 HD
ENDBRANCH   8   9
ENDBRANCH   5   8
ENDBRANCH   1   2
BRANCH   1  19
ATOM     17  O   UNL     1      48.527   6.071  13.846  0.00  0.00    +0.000 OA
ATOM     18  C   UNL     1      47.676   5.664  14.624  0.00  0.00    +0.000 C 
ATOM     19  N   UNL     1      46.323   5.642  14.363  0.00  0.00    +0.000 N 
ATOM     20  H   UNL     1      45.751   5.074  14.971  0.00  0.00    +0.000 HD
BRANCH  18  21
ATOM     21  C   UNL     1      47.978   4.940  15.853  0.00  0.00    +0.000 A 
ATOM     22  C   UNL     1      47.716   3.592  16.008  0.00  0.00    +0.000 A 
ATOM     23  S   UNL     1      47.655   3.145  17.663  0.00  0.00    +0.000 S 
ATOM     24  C   UNL     1      48.094   4.717  18.164  0.00  0.00    +0.000 A 
ATOM     25  N   UNL     1      48.085   5.100  19.469  0.00  0.00    +0.000 NA
ATOM     26  C   UNL     1      48.493   6.312  19.667  0.00  0.00    +0.000 A 
ATOM     27  N   UNL     1      48.956   7.159  18.689  0.00  0.00    +0.000 N 
ATOM     28  C   UNL     1      49.008   6.806  17.361  0.00  0.00    +0.000 A 
ATOM     29  O   UNL     1      49.515   7.532  16.516  0.00  0.00    +0.000 OA
ATOM     30  C   UNL     1      48.430   5.508  17.088  0.00  0.00    +0.000 A 
ATOM     31  H   UNL     1      49.352   8.057  18.923  0.00  0.00    +0.000 HD
ENDBRANCH  18  21
ENDBRANCH   1  19
TORSDOF 5
ENDMDL
MODEL 5
REMARK VINA RESULT:    -7.529      1.952      2.180
REMARK INTER + INTRA:         -10.282
REMARK INTER:                  -9.524
REMARK INTRA:                  -0.757
REMARK UNBOUND:                -0.552
REMARK  Name = 
REMARK  5 active torsions:
REMARK  status: ('A' for Active; 'I' for Inactive)
REMARK    1  A    between atoms: C_2  and  C_19
REMARK    2  A    between atoms: N_3  and  C_4
REMARK    3  A    between atoms: C_4  and  C_5
REMARK    4  A    between atoms: C_8  and  C_9
REMARK    5  A    between atoms: C_9  and  N_10
REMARK                            x       y       z     vdW  Elec       q    Type
REMARK                         _______ _______ _______ _____ _____    ______ ____
ROOT
ATOM      1  C   UNL     1      47.355   7.506  13.623  0.00  0.00    +0.000 C 
ENDROOT
BRANCH   1   2
ATOM      2  C   UNL     1      47.317   6.230  12.760  0.00  0.00    +0.000 C 
ATOM      3  C   UNL     1      46.459   5.117  13.391  0.00  0.00    +0.000 C 
ATOM      4  C   UNL     1      44.960   5.406  13.305  0.00  0.00    +0.000 C 
ATOM      5  C   UNL     1      44.490   5.711  11.873  0.00  0.00    +0.000 C 
ATOM      6  C   UNL     1      45.346   6.837  11.265  0.00  0.00    +0.000 C 
ATOM      7  C   UNL     1      46.846   6.544  11.335  0.00  0.00    +0.000 C 
BRANCH   5   8
ATOM      8  C   UNL     1      44.522   4.477  10.952  0.00  0.00    +0.000 C 
BRANCH   8   9
ATOM      9  N   UNL     1      44.611   4.860   9.554  0.00  0.00    +0.000 N 
ATOM     10  C   UNL     1      45.311   3.942   8.781  0.00  0.00    +0.000 A 
ATOM     11  N   UNL     1      45.301   2.638   9.104  0.00  0.00    +0.000 NA
ATOM     12  C   UNL     1      46.017   1.804   8.334  0.00  0.00    +0.000 A 
ATOM     13  C   UNL     1      46.742   2.215   7.246  0.00  0.00    +0.000 A 
ATOM     14  C   UNL     1      46.694   3.564   6.997  0.00  0.00    +0.000 A 
ATOM     15  N   UNL     1      45.999   4.442   7.747  0.00  0.00    +0.000 NA
ATOM     16  H   UNL     1      45.022   5.766   9.361  0.00  0.00    +0.000 HD
ENDBRANCH   8   9
ENDBRANCH   5   8
ENDBRANCH   1   2
BRANCH   1  19
ATOM     17  O   UNL     1      49.523   8.818  14.973  0.00  0.00    +0.000 OA
ATOM     18  C   UNL     1      48.967   7.850  15.473  0.00  0.00    +0.000 C 
ATOM     19  N   UNL     1      47.871   7.211  14.937  0.00  0.00    +0.000 N 
ATOM     20  H   UNL     1      47.651   6.298  15.305  0.00  0.00    +0.000 HD
BRANCH  18  21
ATOM     21  C   UNL     1      49.509   7.094  16.596  0.00  0.00    +0.000 A 
ATOM     22  C   UNL     1      50.612   6.269  16.475  0.00  0.00    +0.000 A 
ATOM     23  S   UNL     1      50.689   5.125  17.752  0.00  0.00    +0.000 S 
ATOM     24  C   UNL     1      49.326   5.805  18.522  0.00  0.00    +0.000 A 
ATOM     25  N   UNL     1      48.732   5.231  19.602  0.00  0.00    +0.000 NA
ATOM     26  C   UNL     1      47.742   5.910  20.084  0.00  0.00    +0.000 A 
ATOM     27  N   UNL     1      47.321   7.133  19.619  0.00  0.00    +0.000 N 
ATOM     28  C   UNL     1      47.909   7.764  18.547  0.00  0.00    +0.000 A 
ATOM     29  O   UNL     1      47.592   8.896  18.206  0.00  0.00    +0.000 OA
ATOM     30  C   UNL     1      48.929   6.967  17.899  0.00  0.00    +0.000 A 
ATOM     31  H   UNL     1      46.606   7.656  20.101  0.00  0.00    +0.000 HD
ENDBRANCH  18  21
ENDBRANCH   1  19
TORSDOF 5
ENDMDL
MODEL 6
REMARK VINA RESULT:    -7.474      1.867      2.965
REMARK INTER + INTRA:         -10.211
REMARK INTER:                  -9.467
REMARK INTRA:                  -0.744
REMARK UNBOUND:                -0.552
REMARK  Name = 
REMARK  5 active torsions:
REMARK  status: ('A' for Active; 'I' for Inactive)
REMARK    1  A    between atoms: C_2  and  C_19
REMARK    2  A    between atoms: N_3  and  C_4
REMARK    3  A    between atoms: C_4  and  C_5
REMARK    4  A    between atoms: C_8  and  C_9
REMARK    5  A    between atoms: C_9  and  N_10
REMARK                            x       y       z     vdW  Elec       q    Type
REMARK                         _______ _______ _______ _____ _____    ______ ____
ROOT
ATOM      1  C   UNL     1      45.112   4.962  13.804  0.00  0.00    +0.000 C 
ENDROOT
BRANCH   1   2
ATOM      2  C   UNL     1      45.290   3.797  12.811  0.00  0.00    +0.000 C 
ATOM      3  C   UNL     1      43.957   3.108  12.465  0.00  0.00    +0.000 C 
ATOM      4  C   UNL     1      43.073   3.957  11.551  0.00  0.00    +0.000 C 
ATOM      5  C   UNL     1      43.798   4.414  10.273  0.00  0.00    +0.000 C 
ATOM      6  C   UNL     1      45.119   5.115  10.638  0.00  0.00    +0.000 C 
ATOM      7  C   UNL     1      46.013   4.263  11.541  0.00  0.00    +0.000 C 
BRANCH   5   8
ATOM      8  C   UNL     1      44.074   3.260   9.292  0.00  0.00    +0.000 C 
BRANCH   8   9
ATOM      9  N   UNL     1      44.571   3.753   8.019  0.00  0.00    +0.000 N 
ATOM     10  C   UNL     1      45.721   3.101   7.593  0.00  0.00    +0.000 A 
ATOM     11  N   UNL     1      45.932   1.816   7.926  0.00  0.00    +0.000 NA
ATOM     12  C   UNL     1      47.074   1.249   7.505  0.00  0.00    +0.000 A 
ATOM     13  C   UNL     1      48.015   1.907   6.759  0.00  0.00    +0.000 A 
ATOM     14  C   UNL     1      47.713   3.214   6.472  0.00  0.00    +0.000 A 
ATOM     15  N   UNL     1      46.586   3.831   6.879  0.00  0.00    +0.000 NA
ATOM     16  H   UNL     1      44.772   4.745   7.969  0.00  0.00    +0.000 HD
ENDBRANCH   8   9
ENDBRANCH   5   8
ENDBRANCH   1   2
BRANCH   1  19
ATOM     17  O   UNL     1      46.926   3.644  15.597  0.00  0.00    +0.000 OA
ATOM     18  C   UNL     1      47.166   4.767  15.177  0.00  0.00    +0.000 C 
ATOM     19  N   UNL     1      46.396   5.440  14.254  0.00  0.00    +0.000 N 
ATOM     20  H   UNL     1      46.555   6.433  14.166  0.00  0.00    +0.000 HD
BRANCH  18  21
ATOM     21  C   UNL     1      48.178   5.648  15.749  0.00  0.00    +0.000 A 
ATOM     22  C   UNL     1      48.505   5.634  17.092  0.00  0.00    +0.000 A 
ATOM     23  S   UNL     1      49.284   7.087  17.568  0.00  0.00    +0.000 S 
ATOM     24  C   UNL     1      49.290   7.678  15.967  0.00  0.00    +0.000 A 
ATOM     25  N   UNL     1      49.672   8.945  15.654  0.00  0.00    +0.000 NA
ATOM     26  C   UNL     1      49.659   9.204  14.386  0.00  0.00    +0.000 A 
ATOM     27  N   UNL     1      49.347   8.300  13.399  0.00  0.00    +0.000 N 
ATOM     28  C   UNL     1      48.981   7.001  13.666  0.00  0.00    +0.000 A 
ATOM     29  O   UNL     1      48.804   6.181  12.776  0.00  0.00    +0.000 OA
ATOM     30  C   UNL     1      48.852   6.720  15.079  0.00  0.00    +0.000 A 
ATOM     31  H   UNL     1      49.452   8.538  12.424  0.00  0.00    +0.000 HD
ENDBRANCH  18  21
ENDBRANCH   1  19
TORSDOF 5
ENDMDL
MODEL 7
REMARK VINA RESULT:    -7.080      3.154      3.607
REMARK INTER + INTRA:          -9.701
REMARK INTER:                  -8.880
REMARK INTRA:                  -0.821
REMARK UNBOUND:                -0.552
REMARK  Name = 
REMARK  5 active torsions:
REMARK  status: ('A' for Active; 'I' for Inactive)
REMARK    1  A    between atoms: C_2  and  C_19
REMARK    2  A    between atoms: N_3  and  C_4
REMARK    3  A    between atoms: C_4  and  C_5
REMARK    4  A    between atoms: C_8  and  C_9
REMARK    5  A    between atoms: C_9  and  N_10
REMARK                            x       y       z     vdW  Elec       q    Type
REMARK                         _______ _______ _______ _____ _____    ______ ____
ROOT
ATOM      1  C   UNL     1      46.431   7.306  13.285  0.00  0.00    +0.000 C 
ENDROOT
BRANCH   1   2
ATOM      2  C   UNL     1      46.470   5.988  12.488  0.00  0.00    +0.000 C 
ATOM      3  C   UNL     1      45.597   4.889  13.121  0.00  0.00    +0.000 C 
ATOM      4  C   UNL     1      44.100   5.140  12.931  0.00  0.00    +0.000 C 
ATOM      5  C   UNL     1      43.713   5.364  11.459  0.00  0.00    +0.000 C 
ATOM      6  C   UNL     1      44.583   6.476  10.847  0.00  0.00    +0.000 C 
ATOM      7  C   UNL     1      46.082   6.221  11.022  0.00  0.00    +0.000 C 
BRANCH   5   8
ATOM      8  C   UNL     1      43.825   4.086  10.606  0.00  0.00    +0.000 C 
BRANCH   8   9
ATOM      9  N   UNL     1      44.033   4.401   9.204  0.00  0.00    +0.000 N 
ATOM     10  C   UNL     1      44.960   3.568   8.589  0.00  0.00    +0.000 A 
ATOM     11  N   UNL     1      45.109   2.299   9.006  0.00  0.00    +0.000 NA
ATOM     12  C   UNL     1      46.038   1.551   8.390  0.00  0.00    +0.000 A 
ATOM     13  C   UNL     1      46.825   2.014   7.368  0.00  0.00    +0.000 A 
ATOM     14  C   UNL     1      46.603   3.321   7.015  0.00  0.00    +0.000 A 
ATOM     15  N   UNL     1      45.690   4.115   7.610  0.00  0.00    +0.000 NA
ATOM     16  H   UNL     1      44.321   5.350   8.994  0.00  0.00    +0.000 HD
ENDBRANCH   8   9
ENDBRANCH   5   8
ENDBRANCH   1   2
BRANCH   1  19
ATOM     17  O   UNL     1      47.477   9.547  11.828  0.00  0.00    +0.000 OA
ATOM     18  C   UNL     1      48.188   8.908  12.590  0.00  0.00    +0.000 C 
ATOM     19  N   UNL     1      47.752   7.873  13.387  0.00  0.00    +0.000 N 
ATOM     20  H   UNL     1      48.461   7.276  13.787  0.00  0.00    +0.000 HD
BRANCH  18  21
ATOM     21  C   UNL     1      49.643   9.000  12.610  0.00  0.00    +0.000 A 
ATOM     22  C   UNL     1      50.412   8.908  11.464  0.00  0.00    +0.000 A 
ATOM     23  S   UNL     1      52.041   8.506  11.826  0.00  0.00    +0.000 S 
ATOM     24  C   UNL     1      51.746   8.572  13.506  0.00  0.00    +0.000 A 
ATOM     25  N   UNL     1      52.668   8.185  14.427  0.00  0.00    +0.000 NA
ATOM     26  C   UNL     1      52.290   8.350  15.654  0.00  0.00    +0.000 A 
ATOM     27  N   UNL     1      51.098   8.910  16.045  0.00  0.00    +0.000 N 
ATOM     28  C   UNL     1      50.147   9.340  15.149  0.00  0.00    +0.000 A 
ATOM     29  O   UNL     1      49.136   9.928  15.508  0.00  0.00    +0.000 OA
ATOM     30  C   UNL     1      50.480   9.044  13.772  0.00  0.00    +0.000 A 
ATOM     31  H   UNL     1      50.906   9.100  17.018  0.00  0.00    +0.000 HD
ENDBRANCH  18  21
ENDBRANCH   1  19
TORSDOF 5
ENDMDL
MODEL 8
REMARK VINA RESULT:    -7.076      3.265      8.958
REMARK INTER + INTRA:          -9.696
REMARK INTER:                  -9.019
REMARK INTRA:                  -0.677
REMARK UNBOUND:                -0.552
REMARK  Name = 
REMARK  5 active torsions:
REMARK  status: ('A' for Active; 'I' for Inactive)
REMARK    1  A    between atoms: C_2  and  C_19
REMARK    2  A    between atoms: N_3  and  C_4
REMARK    3  A    between atoms: C_4  and  C_5
REMARK    4  A    between atoms: C_8  and  C_9
REMARK    5  A    between atoms: C_9  and  N_10
REMARK                            x       y       z     vdW  Elec       q    Type
REMARK                         _______ _______ _______ _____ _____    ______ ____
ROOT
ATOM      1  C   UNL     1      47.114   4.074  16.655  0.00  0.00    +0.000 C 
ENDROOT
BRANCH   1   2
ATOM      2  C   UNL     1      48.641   4.271  16.592  0.00  0.00    +0.000 C 
ATOM      3  C   UNL     1      49.061   5.721  16.895  0.00  0.00    +0.000 C 
ATOM      4  C   UNL     1      48.920   6.082  18.374  0.00  0.00    +0.000 C 
ATOM      5  C   UNL     1      49.651   5.097  19.303  0.00  0.00    +0.000 C 
ATOM      6  C   UNL     1      49.206   3.655  18.999  0.00  0.00    +0.000 C 
ATOM      7  C   UNL     1      49.361   3.286  17.522  0.00  0.00    +0.000 C 
BRANCH   5   8
ATOM      8  C   UNL     1      51.184   5.201  19.204  0.00  0.00    +0.000 C 
BRANCH   8   9
ATOM      9  N   UNL     1      51.831   3.999  19.700  0.00  0.00    +0.000 N 
ATOM     10  C   UNL     1      52.904   3.595  18.916  0.00  0.00    +0.000 A 
ATOM     11  N   UNL     1      53.633   4.503  18.247  0.00  0.00    +0.000 NA
ATOM     12  C   UNL     1      54.641   4.048  17.487  0.00  0.00    +0.000 A 
ATOM     13  C   UNL     1      54.959   2.721  17.367  0.00  0.00    +0.000 A 
ATOM     14  C   UNL     1      54.156   1.869  18.084  0.00  0.00    +0.000 A 
ATOM     15  N   UNL     1      53.127   2.276  18.853  0.00  0.00    +0.000 NA
ATOM     16  H   UNL     1      51.239   3.184  19.813  0.00  0.00    +0.000 HD
ENDBRANCH   8   9
ENDBRANCH   5   8
ENDBRANCH   1   2
BRANCH   1  19
ATOM     17  O   UNL     1      47.335   2.959  14.019  0.00  0.00    +0.000 OA
ATOM     18  C   UNL     1      46.718   3.997  14.210  0.00  0.00    +0.000 C 
ATOM     19  N   UNL     1      46.493   4.559  15.448  0.00  0.00    +0.000 N 
ATOM     20  H   UNL     1      46.186   5.520  15.462  0.00  0.00    +0.000 HD
BRANCH  18  21
ATOM     21  C   UNL     1      46.315   4.909  13.146  0.00  0.00    +0.000 A 
ATOM     22  C   UNL     1      47.071   6.007  12.780  0.00  0.00    +0.000 A 
ATOM     23  S   UNL     1      46.134   7.165  11.928  0.00  0.00    +0.000 S 
ATOM     24  C   UNL     1      44.760   6.152  11.945  0.00  0.00    +0.000 A 
ATOM     25  N   UNL     1      43.537   6.568  11.520  0.00  0.00    +0.000 NA
ATOM     26  C   UNL     1      42.624   5.652  11.560  0.00  0.00    +0.000 A 
ATOM     27  N   UNL     1      42.829   4.347  11.937  0.00  0.00    +0.000 N 
ATOM     28  C   UNL     1      44.054   3.875  12.349  0.00  0.00    +0.000 A 
ATOM     29  O   UNL     1      44.247   2.690  12.586  0.00  0.00    +0.000 OA
ATOM     30  C   UNL     1      45.064   4.906  12.448  0.00  0.00    +0.000 A 
ATOM     31  H   UNL     1      42.097   3.659  11.852  0.00  0.00    +0.000 HD
ENDBRANCH  18  21
ENDBRANCH   1  19
TORSDOF 5
ENDMDL
MODEL 9
REMARK VINA RESULT:    -6.768      1.645      2.330
REMARK INTER + INTRA:          -9.298
REMARK INTER:                  -8.497
REMARK INTRA:                  -0.802
REMARK UNBOUND:                -0.552
REMARK  Name = 
REMARK  5 active torsions:
REMARK  status: ('A' for Active; 'I' for Inactive)
REMARK    1  A    between atoms: C_2  and  C_19
REMARK    2  A    between atoms: N_3  and  C_4
REMARK    3  A    between atoms: C_4  and  C_5
REMARK    4  A    between atoms: C_8  and  C_9
REMARK    5  A    between atoms: C_9  and  N_10
REMARK                            x       y       z     vdW  Elec       q    Type
REMARK                         _______ _______ _______ _____ _____    ______ ____
ROOT
ATOM      1  C   UNL     1      48.432   8.423  14.017  0.00  0.00    +0.000 C 
ENDROOT
BRANCH   1   2
ATOM      2  C   UNL     1      48.028   7.788  12.672  0.00  0.00    +0.000 C 
ATOM      3  C   UNL     1      47.748   6.279  12.793  0.00  0.00    +0.000 C 
ATOM      4  C   UNL     1      46.431   5.977  13.508  0.00  0.00    +0.000 C 
ATOM      5  C   UNL     1      45.229   6.706  12.883  0.00  0.00    +0.000 C 
ATOM      6  C   UNL     1      45.519   8.215  12.786  0.00  0.00    +0.000 C 
ATOM      7  C   UNL     1      46.829   8.521  12.057  0.00  0.00    +0.000 C 
BRANCH   5   8
ATOM      8  C   UNL     1      44.848   6.158  11.495  0.00  0.00    +0.000 C 
BRANCH   8   9
ATOM      9  N   UNL     1      44.847   4.706  11.480  0.00  0.00    +0.000 N 
ATOM     10  C   UNL     1      45.013   4.174  10.208  0.00  0.00    +0.000 A 
ATOM     11  N   UNL     1      45.728   4.838   9.284  0.00  0.00    +0.000 NA
ATOM     12  C   UNL     1      45.831   4.285   8.066  0.00  0.00    +0.000 A 
ATOM     13  C   UNL     1      45.254   3.089   7.727  0.00  0.00    +0.000 A 
ATOM     14  C   UNL     1      44.542   2.487   8.734  0.00  0.00    +0.000 A 
ATOM     15  N   UNL     1      44.401   3.007   9.969  0.00  0.00    +0.000 NA
ATOM     16  H   UNL     1      44.030   4.252  11.873  0.00  0.00    +0.000 HD
ENDBRANCH   8   9
ENDBRANCH   5   8
ENDBRANCH   1   2
BRANCH   1  19
ATOM     17  O   UNL     1      48.296   8.429  16.884  0.00  0.00    +0.000 OA
ATOM     18  C   UNL     1      48.891   7.543  16.288  0.00  0.00    +0.000 C 
ATOM     19  N   UNL     1      48.939   7.417  14.917  0.00  0.00    +0.000 N 
ATOM     20  H   UNL     1      49.643   6.800  14.541  0.00  0.00    +0.000 HD
BRANCH  18  21
ATOM     21  C   UNL     1      49.816   6.615  16.926  0.00  0.00    +0.000 A 
ATOM     22  C   UNL     1      51.152   6.913  17.123  0.00  0.00    +0.000 A 
ATOM     23  S   UNL     1      52.086   5.495  17.374  0.00  0.00    +0.000 S 
ATOM     24  C   UNL     1      50.697   4.503  17.338  0.00  0.00    +0.000 A 
ATOM     25  N   UNL     1      50.766   3.145  17.339  0.00  0.00    +0.000 NA
ATOM     26  C   UNL     1      49.613   2.558  17.358  0.00  0.00    +0.000 A 
ATOM     27  N   UNL     1      48.400   3.200  17.427  0.00  0.00    +0.000 N 
ATOM     28  C   UNL     1      48.283   4.570  17.455  0.00  0.00    +0.000 A 
ATOM     29  O   UNL     1      47.205   5.126  17.618  0.00  0.00    +0.000 OA
ATOM     30  C   UNL     1      49.545   5.258  17.295  0.00  0.00    +0.000 A 
ATOM     31  H   UNL     1      47.542   2.681  17.539  0.00  0.00    +0.000 HD
ENDBRANCH  18  21
ENDBRANCH   1  19
TORSDOF 5
ENDMDL
