MODEL 1
REMARK VINA RESULT:    -8.376      0.000      0.000
REMARK INTER + INTRA:         -11.787
REMARK INTER:                 -11.314
REMARK INTRA:                  -0.473
REMARK UNBOUND:                -0.473
REMARK  Name = 
REMARK  7 active torsions:
REMARK  status: ('A' for Active; 'I' for Inactive)
REMARK    1  A    between atoms: C_1  and  C_2
REMARK    2  A    between atoms: C_2  and  N_3
REMARK    3  A    between atoms: N_3  and  C_4
REMARK    4  A    between atoms: C_8  and  C_9
REMARK    5  A    between atoms: C_9  and  C_10
REMARK    6  A    between atoms: C_10  and  N_11
REMARK    7  A    between atoms: C_15  and  C_16
REMARK                            x       y       z     vdW  Elec       q    Type
REMARK                         _______ _______ _______ _____ _____    ______ ____
ROOT
ATOM      1  C   UNL     1      43.086   5.154  12.473  0.00  0.00    +0.000 C 
ENDROOT
BRANCH   1   6
ATOM      2  C   UNL     1      46.624   5.053  13.964  0.00  0.00    +0.000 A 
ATOM      3  C   UNL     1      47.113   6.293  13.557  0.00  0.00    +0.000 A 
ATOM      4  C   UNL     1      46.311   7.167  12.818  0.00  0.00    +0.000 A 
ATOM      5  C   UNL     1      44.998   6.819  12.490  0.00  0.00    +0.000 A 
ATOM      6  C   UNL     1      44.479   5.584  12.889  0.00  0.00    +0.000 A 
ATOM      7  C   UNL     1      45.299   4.719  13.632  0.00  0.00    +0.000 A 
BRANCH   2   8
ATOM      8  N   UNL     1      47.350   4.165  14.780  0.00  0.00    +0.000 N 
ATOM      9  H   UNL     1      47.839   3.458  14.235  0.00  0.00    +0.000 HD
BRANCH   8  11
ATOM     10  C   UNL     1      48.865   5.366  16.306  0.00  0.00    +0.000 C 
ATOM     11  C   UNL     1      47.808   4.292  16.146  0.00  0.00    +0.000 C 
ATOM     12  C   UNL     1      46.708   4.232  17.230  0.00  0.00    +0.000 C 
ATOM     13  O   UNL     1      46.920   2.809  17.432  0.00  0.00    +0.000 OA
ATOM     14  C   UNL     1      48.176   2.891  16.712  0.00  0.00    +0.000 C 
ENDBRANCH   8  11
ENDBRANCH   2   8
ENDBRANCH   1   6
BRANCH   1  15
ATOM     15  C   UNL     1      43.138   4.305  11.198  0.00  0.00    +0.000 C 
BRANCH  15  16
ATOM     16  N   UNL     1      43.884   4.972  10.120  0.00  0.00    +0.000 N 
ATOM     17  C   UNL     1      44.694   4.066   9.403  0.00  0.00    +0.000 A 
ATOM     18  C   UNL     1      45.466   4.532   8.342  0.00  0.00    +0.000 A 
ATOM     19  C   UNL     1      46.270   3.633   7.630  0.00  0.00    +0.000 A 
ATOM     20  C   UNL     1      46.293   2.286   7.990  0.00  0.00    +0.000 A 
ATOM     21  C   UNL     1      45.479   1.909   9.047  0.00  0.00    +0.000 A 
ATOM     22  N   UNL     1      44.693   2.762   9.740  0.00  0.00    +0.000 NA
ATOM     23  H   UNL     1      44.478   5.722  10.467  0.00  0.00    +0.000 HD
BRANCH  20  24
ATOM     24  C   UNL     1      47.161   1.332   7.256  0.00  0.00    +0.000 C 
ATOM     25  N   UNL     1      48.254   1.814   6.592  0.00  0.00    +0.000 N 
ATOM     26  O   UNL     1      46.903   0.139   7.237  0.00  0.00    +0.000 OA
ATOM     27  H   UNL     1      48.555   2.770   6.530  0.00  0.00    +0.000 HD
ATOM     28  H   UNL     1      48.812   1.125   6.092  0.00  0.00    +0.000 HD
ENDBRANCH  20  24
ENDBRANCH  15  16
ENDBRANCH   1  15
TORSDOF 6
ENDMDL
MODEL 2
REMARK VINA RESULT:    -8.194      2.384      3.228
REMARK INTER + INTRA:         -11.540
REMARK INTER:                 -10.688
REMARK INTRA:                  -0.852
REMARK UNBOUND:                -0.473
REMARK  Name = 
REMARK  7 active torsions:
REMARK  status: ('A' for Active; 'I' for Inactive)
REMARK    1  A    between atoms: C_1  and  C_2
REMARK    2  A    between atoms: C_2  and  N_3
REMARK    3  A    between atoms: N_3  and  C_4
REMARK    4  A    between atoms: C_8  and  C_9
REMARK    5  A    between atoms: C_9  and  C_10
REMARK    6  A    between atoms: C_10  and  N_11
REMARK    7  A    between atoms: C_15  and  C_16
REMARK                            x       y       z     vdW  Elec       q    Type
REMARK                         _______ _______ _______ _____ _____    ______ ____
ROOT
ATOM      1  C   UNL     1      43.233   4.640  12.414  0.00  0.00    +0.000 C 
ENDROOT
BRANCH   1   6
ATOM      2  C   UNL     1      46.614   6.046  13.573  0.00  0.00    +0.000 A 
ATOM      3  C   UNL     1      47.355   4.873  13.695  0.00  0.00    +0.000 A 
ATOM      4  C   UNL     1      46.781   3.633  13.395  0.00  0.00    +0.000 A 
ATOM      5  C   UNL     1      45.460   3.553  12.952  0.00  0.00    +0.000 A 
ATOM      6  C   UNL     1      44.693   4.714  12.815  0.00  0.00    +0.000 A 
ATOM      7  C   UNL     1      45.286   5.950  13.119  0.00  0.00    +0.000 A 
BRANCH   2   8
ATOM      8  N   UNL     1      47.157   7.329  13.778  0.00  0.00    +0.000 N 
ATOM      9  H   UNL     1      46.703   7.818  14.545  0.00  0.00    +0.000 HD
BRANCH   8  11
ATOM     10  C   UNL     1      49.567   7.477  14.263  0.00  0.00    +0.000 C 
ATOM     11  C   UNL     1      48.420   7.900  13.367  0.00  0.00    +0.000 C 
ATOM     12  C   UNL     1      48.691   7.903  11.845  0.00  0.00    +0.000 C 
ATOM     13  O   UNL     1      48.187   9.258  11.711  0.00  0.00    +0.000 OA
ATOM     14  C   UNL     1      48.262   9.432  13.149  0.00  0.00    +0.000 C 
ENDBRANCH   8  11
ENDBRANCH   2   8
ENDBRANCH   1   6
BRANCH   1  15
ATOM     15  C   UNL     1      43.088   4.109  10.983  0.00  0.00    +0.000 C 
BRANCH  15  16
ATOM     16  N   UNL     1      43.922   4.858  10.030  0.00  0.00    +0.000 N 
ATOM     17  C   UNL     1      44.762   4.004   9.285  0.00  0.00    +0.000 A 
ATOM     18  C   UNL     1      45.618   4.549   8.330  0.00  0.00    +0.000 A 
ATOM     19  C   UNL     1      46.452   3.702   7.591  0.00  0.00    +0.000 A 
ATOM     20  C   UNL     1      46.423   2.326   7.818  0.00  0.00    +0.000 A 
ATOM     21  C   UNL     1      45.528   1.871   8.773  0.00  0.00    +0.000 A 
ATOM     22  N   UNL     1      44.712   2.673   9.491  0.00  0.00    +0.000 NA
ATOM     23  H   UNL     1      44.504   5.554  10.489  0.00  0.00    +0.000 HD
BRANCH  20  24
ATOM     24  C   UNL     1      47.321   1.425   7.055  0.00  0.00    +0.000 C 
ATOM     25  N   UNL     1      48.364   1.970   6.358  0.00  0.00    +0.000 N 
ATOM     26  O   UNL     1      47.134   0.219   7.041  0.00  0.00    +0.000 OA
ATOM     27  H   UNL     1      48.606   2.943   6.290  0.00  0.00    +0.000 HD
ATOM     28  H   UNL     1      48.945   1.316   5.840  0.00  0.00    +0.000 HD
ENDBRANCH  20  24
ENDBRANCH  15  16
ENDBRANCH   1  15
TORSDOF 6
ENDMDL
MODEL 3
REMARK VINA RESULT:    -7.915      3.260      4.666
REMARK INTER + INTRA:         -11.163
REMARK INTER:                 -10.650
REMARK INTRA:                  -0.514
REMARK UNBOUND:                -0.473
REMARK  Name = 
REMARK  7 active torsions:
REMARK  status: ('A' for Active; 'I' for Inactive)
REMARK    1  A    between atoms: C_1  and  C_2
REMARK    2  A    between atoms: C_2  and  N_3
REMARK    3  A    between atoms: N_3  and  C_4
REMARK    4  A    between atoms: C_8  and  C_9
REMARK    5  A    between atoms: C_9  and  C_10
REMARK    6  A    between atoms: C_10  and  N_11
REMARK    7  A    between atoms: C_15  and  C_16
REMARK                            x       y       z     vdW  Elec       q    Type
REMARK                         _______ _______ _______ _____ _____    ______ ____
ROOT
ATOM      1  C   UNL     1      44.001   4.498  12.450  0.00  0.00    +0.000 C 
ENDROOT
BRANCH   1   6
ATOM      2  C   UNL     1      45.434   8.050  12.731  0.00  0.00    +0.000 A 
ATOM      3  C   UNL     1      46.801   7.779  12.730  0.00  0.00    +0.000 A 
ATOM      4  C   UNL     1      47.267   6.465  12.626  0.00  0.00    +0.000 A 
ATOM      5  C   UNL     1      46.369   5.402  12.505  0.00  0.00    +0.000 A 
ATOM      6  C   UNL     1      44.992   5.643  12.497  0.00  0.00    +0.000 A 
ATOM      7  C   UNL     1      44.543   6.970  12.601  0.00  0.00    +0.000 A 
BRANCH   2   8
ATOM      8  N   UNL     1      44.904   9.354  12.747  0.00  0.00    +0.000 N 
ATOM      9  H   UNL     1      44.863   9.738  13.687  0.00  0.00    +0.000 HD
BRANCH   8  11
ATOM     10  C   UNL     1      46.004  11.191  11.531  0.00  0.00    +0.000 C 
ATOM     11  C   UNL     1      44.765  10.333  11.692  0.00  0.00    +0.000 C 
ATOM     12  C   UNL     1      44.094   9.830  10.393  0.00  0.00    +0.000 C 
ATOM     13  O   UNL     1      42.793  10.308  10.826  0.00  0.00    +0.000 OA
ATOM     14  C   UNL     1      43.426  11.105  11.860  0.00  0.00    +0.000 C 
ENDBRANCH   8  11
ENDBRANCH   2   8
ENDBRANCH   1   6
BRANCH   1  15
ATOM     15  C   UNL     1      43.242   4.491  11.118  0.00  0.00    +0.000 C 
BRANCH  15  16
ATOM     16  N   UNL     1      44.047   5.051  10.022  0.00  0.00    +0.000 N 
ATOM     17  C   UNL     1      44.785   4.053   9.349  0.00  0.00    +0.000 A 
ATOM     18  C   UNL     1      45.601   4.411   8.278  0.00  0.00    +0.000 A 
ATOM     19  C   UNL     1      46.333   3.422   7.611  0.00  0.00    +0.000 A 
ATOM     20  C   UNL     1      46.243   2.093   8.025  0.00  0.00    +0.000 A 
ATOM     21  C   UNL     1      45.393   1.827   9.088  0.00  0.00    +0.000 A 
ATOM     22  N   UNL     1      44.675   2.769   9.739  0.00  0.00    +0.000 NA
ATOM     23  H   UNL     1      44.698   5.763  10.344  0.00  0.00    +0.000 HD
BRANCH  20  24
ATOM     24  C   UNL     1      47.035   1.043   7.339  0.00  0.00    +0.000 C 
ATOM     25  N   UNL     1      46.760  -0.270   7.606  0.00  0.00    +0.000 N 
ATOM     26  O   UNL     1      47.921   1.340   6.553  0.00  0.00    +0.000 OA
ATOM     27  H   UNL     1      46.066  -0.628   8.237  0.00  0.00    +0.000 HD
ATOM     28  H   UNL     1      47.337  -0.953   7.122  0.00  0.00    +0.000 HD
ENDBRANCH  20  24
ENDBRANCH  15  16
ENDBRANCH   1  15
TORSDOF 6
ENDMDL
MODEL 4
REMARK VINA RESULT:    -7.543      2.681      3.302
REMARK INTER + INTRA:         -10.661
REMARK INTER:                  -9.814
REMARK INTRA:                  -0.848
REMARK UNBOUND:                -0.473
REMARK  Name = 
REMARK  7 active torsions:
REMARK  status: ('A' for Active; 'I' for Inactive)
REMARK    1  A    between atoms: C_1  and  C_2
REMARK    2  A    between atoms: C_2  and  N_3
REMARK    3  A    between atoms: N_3  and  C_4
REMARK    4  A    between atoms: C_8  and  C_9
REMARK    5  A    between atoms: C_9  and  C_10
REMARK    6  A    between atoms: C_10  and  N_11
REMARK    7  A    between atoms: C_15  and  C_16
REMARK                            x       y       z     vdW  Elec       q    Type
REMARK                         _______ _______ _______ _____ _____    ______ ____
ROOT
ATOM      1  C   UNL     1      43.915   4.380  12.416  0.00  0.00    +0.000 C 
ENDROOT
BRANCH   1   6
ATOM      2  C   UNL     1      46.229   7.377  13.064  0.00  0.00    +0.000 A 
ATOM      3  C   UNL     1      45.718   8.300  12.153  0.00  0.00    +0.000 A 
ATOM      4  C   UNL     1      44.628   7.972  11.342  0.00  0.00    +0.000 A 
ATOM      5  C   UNL     1      44.020   6.719  11.442  0.00  0.00    +0.000 A 
ATOM      6  C   UNL     1      44.507   5.774  12.350  0.00  0.00    +0.000 A 
ATOM      7  C   UNL     1      45.603   6.121  13.158  0.00  0.00    +0.000 A 
BRANCH   2   8
ATOM      8  N   UNL     1      47.268   7.673  13.966  0.00  0.00    +0.000 N 
ATOM      9  H   UNL     1      46.940   7.705  14.928  0.00  0.00    +0.000 HD
BRANCH   8  11
ATOM     10  C   UNL     1      49.374   7.036  15.071  0.00  0.00    +0.000 C 
ATOM     11  C   UNL     1      48.703   7.574  13.823  0.00  0.00    +0.000 C 
ATOM     12  C   UNL     1      49.207   7.021  12.471  0.00  0.00    +0.000 C 
ATOM     13  O   UNL     1      49.380   8.360  11.935  0.00  0.00    +0.000 OA
ATOM     14  C   UNL     1      49.273   8.912  13.272  0.00  0.00    +0.000 C 
ENDBRANCH   8  11
ENDBRANCH   2   8
ENDBRANCH   1   6
BRANCH   1  15
ATOM     15  C   UNL     1      43.379   3.952  11.045  0.00  0.00    +0.000 C 
BRANCH  15  16
ATOM     16  N   UNL     1      43.860   2.618  10.657  0.00  0.00    +0.000 N 
ATOM     17  C   UNL     1      44.731   2.676   9.548  0.00  0.00    +0.000 A 
ATOM     18  C   UNL     1      45.283   1.498   9.050  0.00  0.00    +0.000 A 
ATOM     19  C   UNL     1      46.147   1.555   7.949  0.00  0.00    +0.000 A 
ATOM     20  C   UNL     1      46.442   2.785   7.360  0.00  0.00    +0.000 A 
ATOM     21  C   UNL     1      45.861   3.906   7.933  0.00  0.00    +0.000 A 
ATOM     22  N   UNL     1      45.031   3.869   8.999  0.00  0.00    +0.000 NA
ATOM     23  H   UNL     1      43.098   1.983  10.429  0.00  0.00    +0.000 HD
BRANCH  20  24
ATOM     24  C   UNL     1      47.337   2.850   6.179  0.00  0.00    +0.000 C 
ATOM     25  N   UNL     1      48.659   2.544   6.337  0.00  0.00    +0.000 N 
ATOM     26  O   UNL     1      46.905   3.178   5.084  0.00  0.00    +0.000 OA
ATOM     27  H   UNL     1      49.123   2.274   7.186  0.00  0.00    +0.000 HD
ATOM     28  H   UNL     1      49.236   2.615   5.502  0.00  0.00    +0.000 HD
ENDBRANCH  20  24
ENDBRANCH  15  16
ENDBRANCH   1  15
TORSDOF 6
ENDMDL
MODEL 5
REMARK VINA RESULT:    -6.731      3.013      7.216
REMARK INTER + INTRA:          -9.564
REMARK INTER:                  -8.510
REMARK INTRA:                  -1.054
REMARK UNBOUND:                -0.473
REMARK  Name = 
REMARK  7 active torsions:
REMARK  status: ('A' for Active; 'I' for Inactive)
REMARK    1  A    between atoms: C_1  and  C_2
REMARK    2  A    between atoms: C_2  and  N_3
REMARK    3  A    between atoms: N_3  and  C_4
REMARK    4  A    between atoms: C_8  and  C_9
REMARK    5  A    between atoms: C_9  and  C_10
REMARK    6  A    between atoms: C_10  and  N_11
REMARK    7  A    between atoms: C_15  and  C_16
REMARK                            x       y       z     vdW  Elec       q    Type
REMARK                         _______ _______ _______ _____ _____    ______ ____
ROOT
ATOM      1  C   UNL     1      48.677   8.864  12.589  0.00  0.00    +0.000 C 
ENDROOT
BRANCH   1   6
ATOM      2  C   UNL     1      45.456   7.091  11.479  0.00  0.00    +0.000 A 
ATOM      3  C   UNL     1      44.566   8.163  11.451  0.00  0.00    +0.000 A 
ATOM      4  C   UNL     1      44.996   9.454  11.773  0.00  0.00    +0.000 A 
ATOM      5  C   UNL     1      46.329   9.694  12.112  0.00  0.00    +0.000 A 
ATOM      6  C   UNL     1      47.246   8.639  12.144  0.00  0.00    +0.000 A 
ATOM      7  C   UNL     1      46.797   7.349  11.816  0.00  0.00    +0.000 A 
BRANCH   2   8
ATOM      8  N   UNL     1      45.108   5.785  11.086  0.00  0.00    +0.000 N 
ATOM      9  H   UNL     1      45.700   5.442  10.333  0.00  0.00    +0.000 HD
BRANCH   8  11
ATOM     10  C   UNL     1      42.856   4.921  11.585  0.00  0.00    +0.000 C 
ATOM     11  C   UNL     1      44.352   4.759  11.769  0.00  0.00    +0.000 C 
ATOM     12  C   UNL     1      44.914   3.324  11.657  0.00  0.00    +0.000 C 
ATOM     13  O   UNL     1      45.624   3.454  12.918  0.00  0.00    +0.000 OA
ATOM     14  C   UNL     1      44.842   4.633  13.240  0.00  0.00    +0.000 C 
ENDBRANCH   8  11
ENDBRANCH   2   8
ENDBRANCH   1   6
BRANCH   1  15
ATOM     15  C   UNL     1      49.332   7.542  13.002  0.00  0.00    +0.000 C 
BRANCH  15  16
ATOM     16  N   UNL     1      49.853   7.590  14.377  0.00  0.00    +0.000 N 
ATOM     17  C   UNL     1      49.258   6.607  15.198  0.00  0.00    +0.000 A 
ATOM     18  C   UNL     1      49.641   6.510  16.534  0.00  0.00    +0.000 A 
ATOM     19  C   UNL     1      49.051   5.535  17.348  0.00  0.00    +0.000 A 
ATOM     20  C   UNL     1      48.088   4.677  16.819  0.00  0.00    +0.000 A 
ATOM     21  C   UNL     1      47.783   4.835  15.476  0.00  0.00    +0.000 A 
ATOM     22  N   UNL     1      48.346   5.765  14.674  0.00  0.00    +0.000 NA
ATOM     23  H   UNL     1      49.709   8.497  14.814  0.00  0.00    +0.000 HD
BRANCH  20  24
ATOM     24  C   UNL     1      47.441   3.658  17.682  0.00  0.00    +0.000 C 
ATOM     25  N   UNL     1      47.991   3.385  18.904  0.00  0.00    +0.000 N 
ATOM     26  O   UNL     1      46.439   3.067  17.310  0.00  0.00    +0.000 OA
ATOM     27  H   UNL     1      48.814   3.799  19.305  0.00  0.00    +0.000 HD
ATOM     28  H   UNL     1      47.522   2.671  19.454  0.00  0.00    +0.000 HD
ENDBRANCH  20  24
ENDBRANCH  15  16
ENDBRANCH   1  15
TORSDOF 6
ENDMDL
MODEL 6
REMARK VINA RESULT:    -6.646      2.104      8.318
REMARK INTER + INTRA:          -9.449
REMARK INTER:                  -8.855
REMARK INTRA:                  -0.594
REMARK UNBOUND:                -0.473
REMARK  Name = 
REMARK  7 active torsions:
REMARK  status: ('A' for Active; 'I' for Inactive)
REMARK    1  A    between atoms: C_1  and  C_2
REMARK    2  A    between atoms: C_2  and  N_3
REMARK    3  A    between atoms: N_3  and  C_4
REMARK    4  A    between atoms: C_8  and  C_9
REMARK    5  A    between atoms: C_9  and  C_10
REMARK    6  A    between atoms: C_10  and  N_11
REMARK    7  A    between atoms: C_15  and  C_16
REMARK                            x       y       z     vdW  Elec       q    Type
REMARK                         _______ _______ _______ _____ _____    ______ ____
ROOT
ATOM      1  C   UNL     1      46.473   6.801  12.899  0.00  0.00    +0.000 C 
ENDROOT
BRANCH   1   6
ATOM      2  C   UNL     1      44.488   4.844  10.256  0.00  0.00    +0.000 A 
ATOM      3  C   UNL     1      43.309   4.588  10.953  0.00  0.00    +0.000 A 
ATOM      4  C   UNL     1      43.141   5.051  12.262  0.00  0.00    +0.000 A 
ATOM      5  C   UNL     1      44.146   5.793  12.886  0.00  0.00    +0.000 A 
ATOM      6  C   UNL     1      45.338   6.069  12.210  0.00  0.00    +0.000 A 
ATOM      7  C   UNL     1      45.489   5.598  10.895  0.00  0.00    +0.000 A 
BRANCH   2   8
ATOM      8  N   UNL     1      44.686   4.480   8.910  0.00  0.00    +0.000 N 
ATOM      9  H   UNL     1      44.522   5.258   8.276  0.00  0.00    +0.000 HD
BRANCH   8  11
ATOM     10  C   UNL     1      45.412   2.147   9.221  0.00  0.00    +0.000 C 
ATOM     11  C   UNL     1      45.404   3.370   8.325  0.00  0.00    +0.000 C 
ATOM     12  C   UNL     1      45.154   3.127   6.819  0.00  0.00    +0.000 C 
ATOM     13  O   UNL     1      46.323   3.905   6.452  0.00  0.00    +0.000 OA
ATOM     14  C   UNL     1      46.796   3.848   7.822  0.00  0.00    +0.000 C 
ENDBRANCH   8  11
ENDBRANCH   2   8
ENDBRANCH   1   6
BRANCH   1  15
ATOM     15  C   UNL     1      47.532   5.812  13.398  0.00  0.00    +0.000 C 
BRANCH  15  16
ATOM     16  N   UNL     1      46.943   4.735  14.208  0.00  0.00    +0.000 N 
ATOM     17  C   UNL     1      47.491   4.695  15.508  0.00  0.00    +0.000 A 
ATOM     18  C   UNL     1      47.041   3.735  16.411  0.00  0.00    +0.000 A 
ATOM     19  C   UNL     1      47.585   3.696  17.701  0.00  0.00    +0.000 A 
ATOM     20  C   UNL     1      48.571   4.612  18.067  0.00  0.00    +0.000 A 
ATOM     21  C   UNL     1      48.944   5.543  17.111  0.00  0.00    +0.000 A 
ATOM     22  N   UNL     1      48.425   5.598  15.864  0.00  0.00    +0.000 NA
ATOM     23  H   UNL     1      47.069   3.819  13.783  0.00  0.00    +0.000 HD
BRANCH  20  24
ATOM     24  C   UNL     1      49.169   4.560  19.424  0.00  0.00    +0.000 C 
ATOM     25  N   UNL     1      48.596   3.752  20.366  0.00  0.00    +0.000 N 
ATOM     26  O   UNL     1      50.151   5.231  19.701  0.00  0.00    +0.000 OA
ATOM     27  H   UNL     1      47.786   3.169  20.254  0.00  0.00    +0.000 HD
ATOM     28  H   UNL     1      49.033   3.759  21.285  0.00  0.00    +0.000 HD
ENDBRANCH  20  24
ENDBRANCH  15  16
ENDBRANCH   1  15
TORSDOF 6
ENDMDL
MODEL 7
REMARK VINA RESULT:    -6.635      3.653      5.533
REMARK INTER + INTRA:          -9.435
REMARK INTER:                  -9.180
REMARK INTRA:                  -0.255
REMARK UNBOUND:                -0.473
REMARK  Name = 
REMARK  7 active torsions:
REMARK  status: ('A' for Active; 'I' for Inactive)
REMARK    1  A    between atoms: C_1  and  C_2
REMARK    2  A    between atoms: C_2  and  N_3
REMARK    3  A    between atoms: N_3  and  C_4
REMARK    4  A    between atoms: C_8  and  C_9
REMARK    5  A    between atoms: C_9  and  C_10
REMARK    6  A    between atoms: C_10  and  N_11
REMARK    7  A    between atoms: C_15  and  C_16
REMARK                            x       y       z     vdW  Elec       q    Type
REMARK                         _______ _______ _______ _____ _____    ______ ____
ROOT
ATOM      1  C   UNL     1      45.352   5.742  11.868  0.00  0.00    +0.000 C 
ENDROOT
BRANCH   1   6
ATOM      2  C   UNL     1      45.205   9.580  11.897  0.00  0.00    +0.000 A 
ATOM      3  C   UNL     1      46.553   9.890  12.064  0.00  0.00    +0.000 A 
ATOM      4  C   UNL     1      47.512   8.876  12.154  0.00  0.00    +0.000 A 
ATOM      5  C   UNL     1      47.135   7.534  12.060  0.00  0.00    +0.000 A 
ATOM      6  C   UNL     1      45.791   7.193  11.888  0.00  0.00    +0.000 A 
ATOM      7  C   UNL     1      44.842   8.225  11.799  0.00  0.00    +0.000 A 
BRANCH   2   8
ATOM      8  N   UNL     1      44.204  10.553  11.716  0.00  0.00    +0.000 N 
ATOM      9  H   UNL     1      44.401  11.405  12.235  0.00  0.00    +0.000 HD
BRANCH   8  11
ATOM     10  C   UNL     1      43.774  11.176   9.372  0.00  0.00    +0.000 C 
ATOM     11  C   UNL     1      43.196  10.695  10.688  0.00  0.00    +0.000 C 
ATOM     12  C   UNL     1      42.148   9.562  10.615  0.00  0.00    +0.000 C 
ATOM     13  O   UNL     1      41.217  10.306  11.445  0.00  0.00    +0.000 OA
ATOM     14  C   UNL     1      41.993  11.514  11.238  0.00  0.00    +0.000 C 
ENDBRANCH   8  11
ENDBRANCH   2   8
ENDBRANCH   1   6
BRANCH   1  15
ATOM     15  C   UNL     1      44.222   5.531  10.853  0.00  0.00    +0.000 C 
BRANCH  15  16
ATOM     16  N   UNL     1      44.011   4.107  10.552  0.00  0.00    +0.000 N 
ATOM     17  C   UNL     1      44.839   3.665   9.497  0.00  0.00    +0.000 A 
ATOM     18  C   UNL     1      44.770   2.337   9.084  0.00  0.00    +0.000 A 
ATOM     19  C   UNL     1      45.591   1.899   8.038  0.00  0.00    +0.000 A 
ATOM     20  C   UNL     1      46.464   2.793   7.418  0.00  0.00    +0.000 A 
ATOM     21  C   UNL     1      46.478   4.090   7.906  0.00  0.00    +0.000 A 
ATOM     22  N   UNL     1      45.697   4.528   8.919  0.00  0.00    +0.000 NA
ATOM     23  H   UNL     1      43.046   3.903  10.303  0.00  0.00    +0.000 HD
BRANCH  20  24
ATOM     24  C   UNL     1      47.319   2.341   6.293  0.00  0.00    +0.000 C 
ATOM     25  N   UNL     1      47.427   3.138   5.187  0.00  0.00    +0.000 N 
ATOM     26  O   UNL     1      47.912   1.275   6.346  0.00  0.00    +0.000 OA
ATOM     27  H   UNL     1      46.979   4.023   5.030  0.00  0.00    +0.000 HD
ATOM     28  H   UNL     1      48.013   2.781   4.437  0.00  0.00    +0.000 HD
ENDBRANCH  20  24
ENDBRANCH  15  16
ENDBRANCH   1  15
TORSDOF 6
ENDMDL
MODEL 8
REMARK VINA RESULT:    -6.470      3.443      5.779
REMARK INTER + INTRA:          -9.212
REMARK INTER:                  -8.576
REMARK INTRA:                  -0.636
REMARK UNBOUND:                -0.473
REMARK  Name = 
REMARK  7 active torsions:
REMARK  status: ('A' for Active; 'I' for Inactive)
REMARK    1  A    between atoms: C_1  and  C_2
REMARK    2  A    between atoms: C_2  and  N_3
REMARK    3  A    between atoms: N_3  and  C_4
REMARK    4  A    between atoms: C_8  and  C_9
REMARK    5  A    between atoms: C_9  and  C_10
REMARK    6  A    between atoms: C_10  and  N_11
REMARK    7  A    between atoms: C_15  and  C_16
REMARK                            x       y       z     vdW  Elec       q    Type
REMARK                         _______ _______ _______ _____ _____    ______ ____
ROOT
ATOM      1  C   UNL     1      47.110   4.204  17.333  0.00  0.00    +0.000 C 
ENDROOT
BRANCH   1   6
ATOM      2  C   UNL     1      50.541   4.614  19.010  0.00  0.00    +0.000 A 
ATOM      3  C   UNL     1      50.472   5.944  19.421  0.00  0.00    +0.000 A 
ATOM      4  C   UNL     1      49.326   6.707  19.175  0.00  0.00    +0.000 A 
ATOM      5  C   UNL     1      48.224   6.143  18.529  0.00  0.00    +0.000 A 
ATOM      6  C   UNL     1      48.263   4.810  18.109  0.00  0.00    +0.000 A 
ATOM      7  C   UNL     1      49.421   4.058  18.366  0.00  0.00    +0.000 A 
BRANCH   2   8
ATOM      8  N   UNL     1      51.629   3.770  19.301  0.00  0.00    +0.000 N 
ATOM      9  H   UNL     1      51.416   3.116  20.051  0.00  0.00    +0.000 HD
BRANCH   8  11
ATOM     10  C   UNL     1      53.230   4.551  17.601  0.00  0.00    +0.000 C 
ATOM     11  C   UNL     1      52.797   3.427  18.520  0.00  0.00    +0.000 C 
ATOM     12  C   UNL     1      53.917   2.681  19.281  0.00  0.00    +0.000 C 
ATOM     13  O   UNL     1      53.414   1.389  18.848  0.00  0.00    +0.000 OA
ATOM     14  C   UNL     1      52.594   2.041  17.845  0.00  0.00    +0.000 C 
ENDBRANCH   8  11
ENDBRANCH   2   8
ENDBRANCH   1   6
BRANCH   1  15
ATOM     15  C   UNL     1      47.478   4.041  15.854  0.00  0.00    +0.000 C 
BRANCH  15  16
ATOM     16  N   UNL     1      47.120   5.227  15.062  0.00  0.00    +0.000 N 
ATOM     17  C   UNL     1      46.413   4.883  13.890  0.00  0.00    +0.000 A 
ATOM     18  C   UNL     1      45.993   5.889  13.024  0.00  0.00    +0.000 A 
ATOM     19  C   UNL     1      45.293   5.548  11.861  0.00  0.00    +0.000 A 
ATOM     20  C   UNL     1      45.027   4.208  11.578  0.00  0.00    +0.000 A 
ATOM     21  C   UNL     1      45.467   3.276  12.505  0.00  0.00    +0.000 A 
ATOM     22  N   UNL     1      46.138   3.589  13.635  0.00  0.00    +0.000 NA
ATOM     23  H   UNL     1      47.935   5.773  14.792  0.00  0.00    +0.000 HD
BRANCH  20  24
ATOM     24  C   UNL     1      44.306   3.837  10.335  0.00  0.00    +0.000 C 
ATOM     25  N   UNL     1      44.349   4.691   9.269  0.00  0.00    +0.000 N 
ATOM     26  O   UNL     1      43.680   2.791  10.264  0.00  0.00    +0.000 OA
ATOM     27  H   UNL     1      44.820   5.576   9.219  0.00  0.00    +0.000 HD
ATOM     28  H   UNL     1      43.830   4.401   8.444  0.00  0.00    +0.000 HD
ENDBRANCH  20  24
ENDBRANCH  15  16
ENDBRANCH   1  15
TORSDOF 6
ENDMDL
MODEL 9
REMARK VINA RESULT:    -6.440      3.617      5.205
REMARK INTER + INTRA:          -9.171
REMARK INTER:                  -8.093
REMARK INTRA:                  -1.079
REMARK UNBOUND:                -0.473
REMARK  Name = 
REMARK  7 active torsions:
REMARK  status: ('A' for Active; 'I' for Inactive)
REMARK    1  A    between atoms: C_1  and  C_2
REMARK    2  A    between atoms: C_2  and  N_3
REMARK    3  A    between atoms: N_3  and  C_4
REMARK    4  A    between atoms: C_8  and  C_9
REMARK    5  A    between atoms: C_9  and  C_10
REMARK    6  A    between atoms: C_10  and  N_11
REMARK    7  A    between atoms: C_15  and  C_16
REMARK                            x       y       z     vdW  Elec       q    Type
REMARK                         _______ _______ _______ _____ _____    ______ ____
ROOT
ATOM      1  C   UNL     1      49.463   8.441  13.921  0.00  0.00    +0.000 C 
ENDROOT
BRANCH   1   6
ATOM      2  C   UNL     1      49.314   6.212  17.046  0.00  0.00    +0.000 A 
ATOM      3  C   UNL     1      48.715   7.081  17.956  0.00  0.00    +0.000 A 
ATOM      4  C   UNL     1      48.347   8.374  17.570  0.00  0.00    +0.000 A 
ATOM      5  C   UNL     1      48.557   8.810  16.260  0.00  0.00    +0.000 A 
ATOM      6  C   UNL     1      49.151   7.959  15.324  0.00  0.00    +0.000 A 
ATOM      7  C   UNL     1      49.514   6.663  15.729  0.00  0.00    +0.000 A 
BRANCH   2   8
ATOM      8  N   UNL     1      49.631   4.874  17.347  0.00  0.00    +0.000 N 
ATOM      9  H   UNL     1      50.569   4.780  17.728  0.00  0.00    +0.000 HD
BRANCH   8  11
ATOM     10  C   UNL     1      48.463   3.493  19.019  0.00  0.00    +0.000 C 
ATOM     11  C   UNL     1      48.780   3.723  17.555  0.00  0.00    +0.000 C 
ATOM     12  C   UNL     1      47.611   3.564  16.557  0.00  0.00    +0.000 C 
ATOM     13  O   UNL     1      48.389   2.671  15.716  0.00  0.00    +0.000 OA
ATOM     14  C   UNL     1      49.353   2.498  16.786  0.00  0.00    +0.000 C 
ENDBRANCH   8  11
ENDBRANCH   2   8
ENDBRANCH   1   6
BRANCH   1  15
ATOM     15  C   UNL     1      49.331   7.295  12.911  0.00  0.00    +0.000 C 
BRANCH  15  16
ATOM     16  N   UNL     1      48.245   7.532  11.948  0.00  0.00    +0.000 N 
ATOM     17  C   UNL     1      47.142   6.683  12.181  0.00  0.00    +0.000 A 
ATOM     18  C   UNL     1      46.021   6.778  11.359  0.00  0.00    +0.000 A 
ATOM     19  C   UNL     1      44.927   5.935  11.590  0.00  0.00    +0.000 A 
ATOM     20  C   UNL     1      44.969   5.010  12.632  0.00  0.00    +0.000 A 
ATOM     21  C   UNL     1      46.117   4.999  13.409  0.00  0.00    +0.000 A 
ATOM     22  N   UNL     1      47.180   5.809  13.204  0.00  0.00    +0.000 NA
ATOM     23  H   UNL     1      48.547   7.402  10.985  0.00  0.00    +0.000 HD
BRANCH  20  24
ATOM     24  C   UNL     1      43.823   4.098  12.867  0.00  0.00    +0.000 C 
ATOM     25  N   UNL     1      43.964   2.772  12.565  0.00  0.00    +0.000 N 
ATOM     26  O   UNL     1      42.769   4.520  13.317  0.00  0.00    +0.000 OA
ATOM     27  H   UNL     1      44.775   2.319  12.184  0.00  0.00    +0.000 HD
ATOM     28  H   UNL     1      43.148   2.188  12.731  0.00  0.00    +0.000 HD
ENDBRANCH  20  24
ENDBRANCH  15  16
ENDBRANCH   1  15
TORSDOF 6
ENDMDL
