MODEL 1
REMARK VINA RESULT:    -7.540      0.000      0.000
REMARK INTER + INTRA:          -9.716
REMARK INTER:                  -9.303
REMARK INTRA:                  -0.413
REMARK UNBOUND:                -0.413
REMARK  Name = 
REMARK  6 active torsions:
REMARK  status: ('A' for Active; 'I' for Inactive)
REMARK    1  A    between atoms: C_1  and  O_2
REMARK    2  A    between atoms: O_2  and  C_3
REMARK    3  A    between atoms: C_5  and  C_6
REMARK    4  A    between atoms: N_13  and  C_14
REMARK    5  A    between atoms: C_14  and  C_15
REMARK    6  A    between atoms: C_18  and  C_19
REMARK                            x       y       z     vdW  Elec       q    Type
REMARK                         _______ _______ _______ _____ _____    ______ ____
ROOT
ATOM      1  C   UNL     1      45.450   4.239  13.194  0.00  0.00    +0.000 A 
ATOM      2  C   UNL     1      46.168   4.055  14.387  0.00  0.00    +0.000 A 
ATOM      3  C   UNL     1      47.236   4.874  14.757  0.00  0.00    +0.000 A 
ATOM      4  C   UNL     1      47.660   5.876  13.880  0.00  0.00    +0.000 A 
ATOM      5  C   UNL     1      47.008   6.047  12.640  0.00  0.00    +0.000 A 
ATOM      6  C   UNL     1      47.249   6.928  11.551  0.00  0.00    +0.000 A 
ATOM      7  C   UNL     1      46.310   6.664  10.587  0.00  0.00    +0.000 A 
ATOM      8  N   UNL     1      45.481   5.662  11.049  0.00  0.00    +0.000 N 
ATOM      9  C   UNL     1      45.903   5.240  12.306  0.00  0.00    +0.000 A 
ENDROOT
BRANCH   3  10
ATOM     10  C   UNL     1      47.839   4.637  16.101  0.00  0.00    +0.000 C 
ATOM     11  N   UNL     1      47.490   5.453  17.136  0.00  0.00    +0.000 N 
ATOM     12  O   UNL     1      48.613   3.702  16.300  0.00  0.00    +0.000 OA
ATOM     13  H   UNL     1      46.824   6.207  17.083  0.00  0.00    +0.000 HD
ATOM     14  H   UNL     1      47.867   5.217  18.044  0.00  0.00    +0.000 HD
ENDBRANCH   3  10
BRANCH   1  16
ATOM     15  C   UNL     1      43.093   4.084  13.208  0.00  0.00    +0.000 C 
ATOM     16  O   UNL     1      44.346   3.477  12.878  0.00  0.00    +0.000 OA
ENDBRANCH   1  16
BRANCH   8  17
ATOM     17  C   UNL     1      44.468   5.056  10.195  0.00  0.00    +0.000 C 
BRANCH  17  18
ATOM     18  C   UNL     1      45.009   4.056   9.196  0.00  0.00    +0.000 A 
ATOM     19  C   UNL     1      44.945   2.691   9.454  0.00  0.00    +0.000 A 
ATOM     20  C   UNL     1      45.715   1.819   8.687  0.00  0.00    +0.000 A 
ATOM     21  C   UNL     1      46.533   2.323   7.677  0.00  0.00    +0.000 A 
ATOM     22  C   UNL     1      47.505   1.454   6.945  0.00  0.00    +0.000 C 
ATOM     23  C   UNL     1      46.438   3.680   7.404  0.00  0.00    +0.000 A 
ATOM     24  N   UNL     1      45.711   4.552   8.140  0.00  0.00    +0.000 NA
ENDBRANCH  17  18
ENDBRANCH   8  17
TORSDOF 4
ENDMDL
MODEL 2
REMARK VINA RESULT:    -7.255      2.117      2.859
REMARK INTER + INTRA:          -9.365
REMARK INTER:                  -8.871
REMARK INTRA:                  -0.494
REMARK UNBOUND:                -0.413
REMARK  Name = 
REMARK  6 active torsions:
REMARK  status: ('A' for Active; 'I' for Inactive)
REMARK    1  A    between atoms: C_1  and  O_2
REMARK    2  A    between atoms: O_2  and  C_3
REMARK    3  A    between atoms: C_5  and  C_6
REMARK    4  A    between atoms: N_13  and  C_14
REMARK    5  A    between atoms: C_14  and  C_15
REMARK    6  A    between atoms: C_18  and  C_19
REMARK                            x       y       z     vdW  Elec       q    Type
REMARK                         _______ _______ _______ _____ _____    ______ ____
ROOT
ATOM      1  C   UNL     1      46.008   6.969  12.142  0.00  0.00    +0.000 A 
ATOM      2  C   UNL     1      46.707   7.882  12.948  0.00  0.00    +0.000 A 
ATOM      3  C   UNL     1      47.558   7.479  13.979  0.00  0.00    +0.000 A 
ATOM      4  C   UNL     1      47.671   6.116  14.273  0.00  0.00    +0.000 A 
ATOM      5  C   UNL     1      46.930   5.173  13.529  0.00  0.00    +0.000 A 
ATOM      6  C   UNL     1      46.808   3.761  13.635  0.00  0.00    +0.000 A 
ATOM      7  C   UNL     1      45.945   3.344  12.656  0.00  0.00    +0.000 A 
ATOM      8  N   UNL     1      45.541   4.446  11.931  0.00  0.00    +0.000 N 
ATOM      9  C   UNL     1      46.112   5.598  12.464  0.00  0.00    +0.000 A 
ENDROOT
BRANCH   3  10
ATOM     10  C   UNL     1      48.323   8.547  14.684  0.00  0.00    +0.000 C 
ATOM     11  N   UNL     1      47.693   9.291  15.638  0.00  0.00    +0.000 N 
ATOM     12  O   UNL     1      49.513   8.745  14.450  0.00  0.00    +0.000 OA
ATOM     13  H   UNL     1      46.739   9.167  15.937  0.00  0.00    +0.000 HD
ATOM     14  H   UNL     1      48.264   9.958  16.141  0.00  0.00    +0.000 HD
ENDBRANCH   3  10
BRANCH   1  16
ATOM     15  C   UNL     1      44.484   8.571  11.309  0.00  0.00    +0.000 C 
ATOM     16  O   UNL     1      45.235   7.376  11.075  0.00  0.00    +0.000 OA
ENDBRANCH   1  16
BRANCH   8  17
ATOM     17  C   UNL     1      44.508   4.351  10.908  0.00  0.00    +0.000 C 
BRANCH  17  18
ATOM     18  C   UNL     1      44.978   3.751   9.600  0.00  0.00    +0.000 A 
ATOM     19  C   UNL     1      45.019   2.371   9.428  0.00  0.00    +0.000 A 
ATOM     20  C   UNL     1      45.737   1.843   8.357  0.00  0.00    +0.000 A 
ATOM     21  C   UNL     1      46.398   2.699   7.477  0.00  0.00    +0.000 A 
ATOM     22  C   UNL     1      47.319   2.181   6.420  0.00  0.00    +0.000 C 
ATOM     23  C   UNL     1      46.197   4.061   7.648  0.00  0.00    +0.000 A 
ATOM     24  N   UNL     1      45.518   4.602   8.686  0.00  0.00    +0.000 NA
ENDBRANCH  17  18
ENDBRANCH   8  17
TORSDOF 4
ENDMDL
MODEL 3
REMARK VINA RESULT:    -6.897      2.118      2.744
REMARK INTER + INTRA:          -8.922
REMARK INTER:                  -8.551
REMARK INTRA:                  -0.372
REMARK UNBOUND:                -0.413
REMARK  Name = 
REMARK  6 active torsions:
REMARK  status: ('A' for Active; 'I' for Inactive)
REMARK    1  A    between atoms: C_1  and  O_2
REMARK    2  A    between atoms: O_2  and  C_3
REMARK    3  A    between atoms: C_5  and  C_6
REMARK    4  A    between atoms: N_13  and  C_14
REMARK    5  A    between atoms: C_14  and  C_15
REMARK    6  A    between atoms: C_18  and  C_19
REMARK                            x       y       z     vdW  Elec       q    Type
REMARK                         _______ _______ _______ _____ _____    ______ ____
ROOT
ATOM      1  C   UNL     1      46.210   5.221  12.651  0.00  0.00    +0.000 A 
ATOM      2  C   UNL     1      47.079   6.196  13.168  0.00  0.00    +0.000 A 
ATOM      3  C   UNL     1      46.754   7.553  13.197  0.00  0.00    +0.000 A 
ATOM      4  C   UNL     1      45.549   7.977  12.629  0.00  0.00    +0.000 A 
ATOM      5  C   UNL     1      44.681   7.033  12.037  0.00  0.00    +0.000 A 
ATOM      6  C   UNL     1      43.444   7.176  11.353  0.00  0.00    +0.000 A 
ATOM      7  C   UNL     1      43.029   5.925  10.978  0.00  0.00    +0.000 A 
ATOM      8  N   UNL     1      43.958   5.006  11.422  0.00  0.00    +0.000 N 
ATOM      9  C   UNL     1      45.007   5.663  12.059  0.00  0.00    +0.000 A 
ENDROOT
BRANCH   3  10
ATOM     10  C   UNL     1      47.719   8.467  13.873  0.00  0.00    +0.000 C 
ATOM     11  N   UNL     1      47.356   9.064  15.044  0.00  0.00    +0.000 N 
ATOM     12  O   UNL     1      48.844   8.664  13.416  0.00  0.00    +0.000 OA
ATOM     13  H   UNL     1      46.481   8.922  15.523  0.00  0.00    +0.000 HD
ATOM     14  H   UNL     1      48.063   9.622  15.505  0.00  0.00    +0.000 HD
ENDBRANCH   3  10
BRANCH   1  16
ATOM     15  C   UNL     1      47.002   3.426  13.966  0.00  0.00    +0.000 C 
ATOM     16  O   UNL     1      46.506   3.875  12.702  0.00  0.00    +0.000 OA
ENDBRANCH   1  16
BRANCH   8  17
ATOM     17  C   UNL     1      43.876   3.599  11.055  0.00  0.00    +0.000 C 
BRANCH  17  18
ATOM     18  C   UNL     1      44.556   3.253   9.748  0.00  0.00    +0.000 A 
ATOM     19  C   UNL     1      44.903   1.938   9.456  0.00  0.00    +0.000 A 
ATOM     20  C   UNL     1      45.794   1.688   8.414  0.00  0.00    +0.000 A 
ATOM     21  C   UNL     1      46.319   2.751   7.682  0.00  0.00    +0.000 A 
ATOM     22  C   UNL     1      47.405   2.550   6.673  0.00  0.00    +0.000 C 
ATOM     23  C   UNL     1      45.821   4.016   7.956  0.00  0.00    +0.000 A 
ATOM     24  N   UNL     1      44.968   4.291   8.970  0.00  0.00    +0.000 NA
ENDBRANCH  17  18
ENDBRANCH   8  17
TORSDOF 4
ENDMDL
MODEL 4
REMARK VINA RESULT:    -6.264      2.919      6.045
REMARK INTER + INTRA:          -8.142
REMARK INTER:                  -7.557
REMARK INTRA:                  -0.585
REMARK UNBOUND:                -0.413
REMARK  Name = 
REMARK  6 active torsions:
REMARK  status: ('A' for Active; 'I' for Inactive)
REMARK    1  A    between atoms: C_1  and  O_2
REMARK    2  A    between atoms: O_2  and  C_3
REMARK    3  A    between atoms: C_5  and  C_6
REMARK    4  A    between atoms: N_13  and  C_14
REMARK    5  A    between atoms: C_14  and  C_15
REMARK    6  A    between atoms: C_18  and  C_19
REMARK                            x       y       z     vdW  Elec       q    Type
REMARK                         _______ _______ _______ _____ _____    ______ ____
ROOT
ATOM      1  C   UNL     1      46.365   5.051  12.898  0.00  0.00    +0.000 A 
ATOM      2  C   UNL     1      45.631   3.932  12.473  0.00  0.00    +0.000 A 
ATOM      3  C   UNL     1      44.558   4.028  11.586  0.00  0.00    +0.000 A 
ATOM      4  C   UNL     1      44.144   5.291  11.153  0.00  0.00    +0.000 A 
ATOM      5  C   UNL     1      44.814   6.446  11.614  0.00  0.00    +0.000 A 
ATOM      6  C   UNL     1      44.587   7.830  11.389  0.00  0.00    +0.000 A 
ATOM      7  C   UNL     1      45.539   8.526  12.088  0.00  0.00    +0.000 A 
ATOM      8  N   UNL     1      46.362   7.620  12.724  0.00  0.00    +0.000 N 
ATOM      9  C   UNL     1      45.924   6.323  12.472  0.00  0.00    +0.000 A 
ENDROOT
BRANCH   3  10
ATOM     10  C   UNL     1      43.937   2.750  11.132  0.00  0.00    +0.000 C 
ATOM     11  N   UNL     1      44.420   2.141  10.012  0.00  0.00    +0.000 N 
ATOM     12  O   UNL     1      43.025   2.220  11.764  0.00  0.00    +0.000 OA
ATOM     13  H   UNL     1      45.198   2.469   9.461  0.00  0.00    +0.000 HD
ATOM     14  H   UNL     1      44.019   1.243   9.776  0.00  0.00    +0.000 HD
ENDBRANCH   3  10
BRANCH   1  16
ATOM     15  C   UNL     1      47.207   4.395  15.005  0.00  0.00    +0.000 C 
ATOM     16  O   UNL     1      47.475   4.936  13.708  0.00  0.00    +0.000 OA
ENDBRANCH   1  16
BRANCH   8  17
ATOM     17  C   UNL     1      47.388   8.050  13.665  0.00  0.00    +0.000 C 
BRANCH  17  18
ATOM     18  C   UNL     1      48.717   8.393  13.028  0.00  0.00    +0.000 A 
ATOM     19  C   UNL     1      49.077   7.845  11.801  0.00  0.00    +0.000 A 
ATOM     20  C   UNL     1      50.406   7.920  11.389  0.00  0.00    +0.000 A 
ATOM     21  C   UNL     1      51.350   8.541  12.205  0.00  0.00    +0.000 A 
ATOM     22  C   UNL     1      52.811   8.496  11.892  0.00  0.00    +0.000 C 
ATOM     23  C   UNL     1      50.881   9.173  13.348  0.00  0.00    +0.000 A 
ATOM     24  N   UNL     1      49.600   9.104  13.780  0.00  0.00    +0.000 NA
ENDBRANCH  17  18
ENDBRANCH   8  17
TORSDOF 4
ENDMDL
MODEL 5
REMARK VINA RESULT:    -5.980      2.929      7.443
REMARK INTER + INTRA:          -7.791
REMARK INTER:                  -7.197
REMARK INTRA:                  -0.594
REMARK UNBOUND:                -0.413
REMARK  Name = 
REMARK  6 active torsions:
REMARK  status: ('A' for Active; 'I' for Inactive)
REMARK    1  A    between atoms: C_1  and  O_2
REMARK    2  A    between atoms: O_2  and  C_3
REMARK    3  A    between atoms: C_5  and  C_6
REMARK    4  A    between atoms: N_13  and  C_14
REMARK    5  A    between atoms: C_14  and  C_15
REMARK    6  A    between atoms: C_18  and  C_19
REMARK                            x       y       z     vdW  Elec       q    Type
REMARK                         _______ _______ _______ _____ _____    ______ ____
ROOT
ATOM      1  C   UNL     1      47.211   4.931  14.005  0.00  0.00    +0.000 A 
ATOM      2  C   UNL     1      46.129   4.211  13.474  0.00  0.00    +0.000 A 
ATOM      3  C   UNL     1      45.476   4.592  12.300  0.00  0.00    +0.000 A 
ATOM      4  C   UNL     1      45.862   5.773  11.659  0.00  0.00    +0.000 A 
ATOM      5  C   UNL     1      46.901   6.560  12.202  0.00  0.00    +0.000 A 
ATOM      6  C   UNL     1      47.458   7.805  11.806  0.00  0.00    +0.000 A 
ATOM      7  C   UNL     1      48.449   8.121  12.699  0.00  0.00    +0.000 A 
ATOM      8  N   UNL     1      48.540   7.102  13.626  0.00  0.00    +0.000 N 
ATOM      9  C   UNL     1      47.577   6.133  13.362  0.00  0.00    +0.000 A 
ENDROOT
BRANCH   3  10
ATOM     10  C   UNL     1      44.414   3.679  11.787  0.00  0.00    +0.000 C 
ATOM     11  N   UNL     1      44.077   2.579  12.520  0.00  0.00    +0.000 N 
ATOM     12  O   UNL     1      43.815   3.916  10.740  0.00  0.00    +0.000 OA
ATOM     13  H   UNL     1      44.472   2.332  13.414  0.00  0.00    +0.000 HD
ATOM     14  H   UNL     1      43.307   2.023  12.173  0.00  0.00    +0.000 HD
ENDBRANCH   3  10
BRANCH   1  16
ATOM     15  C   UNL     1      47.070   4.087  16.207  0.00  0.00    +0.000 C 
ATOM     16  O   UNL     1      47.901   4.500  15.119  0.00  0.00    +0.000 OA
ENDBRANCH   1  16
BRANCH   8  17
ATOM     17  C   UNL     1      49.406   7.208  14.793  0.00  0.00    +0.000 C 
BRANCH  17  18
ATOM     18  C   UNL     1      48.739   7.805  16.014  0.00  0.00    +0.000 A 
ATOM     19  C   UNL     1      48.303   9.126  16.009  0.00  0.00    +0.000 A 
ATOM     20  C   UNL     1      47.986   9.739  17.220  0.00  0.00    +0.000 A 
ATOM     21  C   UNL     1      48.107   9.025  18.410  0.00  0.00    +0.000 A 
ATOM     22  C   UNL     1      47.947   9.685  19.743  0.00  0.00    +0.000 C 
ATOM     23  C   UNL     1      48.423   7.678  18.311  0.00  0.00    +0.000 A 
ATOM     24  N   UNL     1      48.750   7.060  17.153  0.00  0.00    +0.000 NA
ENDBRANCH  17  18
ENDBRANCH   8  17
TORSDOF 4
ENDMDL
MODEL 6
REMARK VINA RESULT:    -5.813      3.056      6.124
REMARK INTER + INTRA:          -7.585
REMARK INTER:                  -6.912
REMARK INTRA:                  -0.673
REMARK UNBOUND:                -0.413
REMARK  Name = 
REMARK  6 active torsions:
REMARK  status: ('A' for Active; 'I' for Inactive)
REMARK    1  A    between atoms: C_1  and  O_2
REMARK    2  A    between atoms: O_2  and  C_3
REMARK    3  A    between atoms: C_5  and  C_6
REMARK    4  A    between atoms: N_13  and  C_14
REMARK    5  A    between atoms: C_14  and  C_15
REMARK    6  A    between atoms: C_18  and  C_19
REMARK                            x       y       z     vdW  Elec       q    Type
REMARK                         _______ _______ _______ _____ _____    ______ ____
ROOT
ATOM      1  C   UNL     1      45.584   6.334  11.574  0.00  0.00    +0.000 A 
ATOM      2  C   UNL     1      44.929   5.234  10.997  0.00  0.00    +0.000 A 
ATOM      3  C   UNL     1      44.952   3.960  11.568  0.00  0.00    +0.000 A 
ATOM      4  C   UNL     1      45.712   3.746  12.722  0.00  0.00    +0.000 A 
ATOM      5  C   UNL     1      46.440   4.812  13.291  0.00  0.00    +0.000 A 
ATOM      6  C   UNL     1      47.319   4.875  14.406  0.00  0.00    +0.000 A 
ATOM      7  C   UNL     1      47.760   6.169  14.515  0.00  0.00    +0.000 A 
ATOM      8  N   UNL     1      47.168   6.916  13.517  0.00  0.00    +0.000 N 
ATOM      9  C   UNL     1      46.366   6.100  12.726  0.00  0.00    +0.000 A 
ENDROOT
BRANCH   3  10
ATOM     10  C   UNL     1      44.125   2.907  10.911  0.00  0.00    +0.000 C 
ATOM     11  N   UNL     1      44.640   2.229   9.846  0.00  0.00    +0.000 N 
ATOM     12  O   UNL     1      43.006   2.616  11.331  0.00  0.00    +0.000 OA
ATOM     13  H   UNL     1      45.565   2.358   9.467  0.00  0.00    +0.000 HD
ATOM     14  H   UNL     1      44.076   1.477   9.473  0.00  0.00    +0.000 HD
ENDBRANCH   3  10
BRANCH   1  16
ATOM     15  C   UNL     1      44.279   8.294  11.385  0.00  0.00    +0.000 C 
ATOM     16  O   UNL     1      45.485   7.604  11.046  0.00  0.00    +0.000 OA
ENDBRANCH   1  16
BRANCH   8  17
ATOM     17  C   UNL     1      47.546   8.303  13.277  0.00  0.00    +0.000 C 
BRANCH  17  18
ATOM     18  C   UNL     1      48.915   8.480  12.657  0.00  0.00    +0.000 A 
ATOM     19  C   UNL     1      49.277   7.763  11.521  0.00  0.00    +0.000 A 
ATOM     20  C   UNL     1      50.621   7.701  11.158  0.00  0.00    +0.000 A 
ATOM     21  C   UNL     1      51.578   8.357  11.931  0.00  0.00    +0.000 A 
ATOM     22  C   UNL     1      53.042   8.180  11.686  0.00  0.00    +0.000 C 
ATOM     23  C   UNL     1      51.116   9.152  12.969  0.00  0.00    +0.000 A 
ATOM     24  N   UNL     1      49.820   9.220  13.354  0.00  0.00    +0.000 NA
ENDBRANCH  17  18
ENDBRANCH   8  17
TORSDOF 4
ENDMDL
MODEL 7
REMARK VINA RESULT:    -5.484      3.028      7.722
REMARK INTER + INTRA:          -7.179
REMARK INTER:                  -6.724
REMARK INTRA:                  -0.456
REMARK UNBOUND:                -0.413
REMARK  Name = 
REMARK  6 active torsions:
REMARK  status: ('A' for Active; 'I' for Inactive)
REMARK    1  A    between atoms: C_1  and  O_2
REMARK    2  A    between atoms: O_2  and  C_3
REMARK    3  A    between atoms: C_5  and  C_6
REMARK    4  A    between atoms: N_13  and  C_14
REMARK    5  A    between atoms: C_14  and  C_15
REMARK    6  A    between atoms: C_18  and  C_19
REMARK                            x       y       z     vdW  Elec       q    Type
REMARK                         _______ _______ _______ _____ _____    ______ ____
ROOT
ATOM      1  C   UNL     1      46.775   6.569  12.133  0.00  0.00    +0.000 A 
ATOM      2  C   UNL     1      45.818   6.006  11.274  0.00  0.00    +0.000 A 
ATOM      3  C   UNL     1      45.085   4.866  11.608  0.00  0.00    +0.000 A 
ATOM      4  C   UNL     1      45.356   4.211  12.813  0.00  0.00    +0.000 A 
ATOM      5  C   UNL     1      46.361   4.708  13.671  0.00  0.00    +0.000 A 
ATOM      6  C   UNL     1      46.878   4.232  14.906  0.00  0.00    +0.000 A 
ATOM      7  C   UNL     1      47.857   5.103  15.310  0.00  0.00    +0.000 A 
ATOM      8  N   UNL     1      47.951   6.116  14.378  0.00  0.00    +0.000 N 
ATOM      9  C   UNL     1      47.057   5.886  13.336  0.00  0.00    +0.000 A 
ENDROOT
BRANCH   3  10
ATOM     10  C   UNL     1      44.023   4.438  10.652  0.00  0.00    +0.000 C 
ATOM     11  N   UNL     1      44.165   4.736   9.329  0.00  0.00    +0.000 N 
ATOM     12  O   UNL     1      43.045   3.793  11.026  0.00  0.00    +0.000 OA
ATOM     13  H   UNL     1      44.955   5.210   8.921  0.00  0.00    +0.000 HD
ATOM     14  H   UNL     1      43.459   4.370   8.704  0.00  0.00    +0.000 HD
ENDBRANCH   3  10
BRANCH   1  16
ATOM     15  C   UNL     1      46.740   8.929  12.222  0.00  0.00    +0.000 C 
ATOM     16  O   UNL     1      47.434   7.742  11.829  0.00  0.00    +0.000 OA
ENDBRANCH   1  16
BRANCH   8  17
ATOM     17  C   UNL     1      49.001   7.123  14.449  0.00  0.00    +0.000 C 
BRANCH  17  18
ATOM     18  C   UNL     1      48.986   7.953  15.714  0.00  0.00    +0.000 A 
ATOM     19  C   UNL     1      49.676   7.533  16.847  0.00  0.00    +0.000 A 
ATOM     20  C   UNL     1      49.397   8.134  18.072  0.00  0.00    +0.000 A 
ATOM     21  C   UNL     1      48.440   9.144  18.146  0.00  0.00    +0.000 A 
ATOM     22  C   UNL     1      47.982   9.699  19.457  0.00  0.00    +0.000 C 
ATOM     23  C   UNL     1      47.895   9.589  16.950  0.00  0.00    +0.000 A 
ATOM     24  N   UNL     1      48.135   9.015  15.749  0.00  0.00    +0.000 NA
ENDBRANCH  17  18
ENDBRANCH   8  17
TORSDOF 4
ENDMDL
MODEL 8
REMARK VINA RESULT:    -5.359      4.295      7.213
REMARK INTER + INTRA:          -7.025
REMARK INTER:                  -6.480
REMARK INTRA:                  -0.545
REMARK UNBOUND:                -0.413
REMARK  Name = 
REMARK  6 active torsions:
REMARK  status: ('A' for Active; 'I' for Inactive)
REMARK    1  A    between atoms: C_1  and  O_2
REMARK    2  A    between atoms: O_2  and  C_3
REMARK    3  A    between atoms: C_5  and  C_6
REMARK    4  A    between atoms: N_13  and  C_14
REMARK    5  A    between atoms: C_14  and  C_15
REMARK    6  A    between atoms: C_18  and  C_19
REMARK                            x       y       z     vdW  Elec       q    Type
REMARK                         _______ _______ _______ _____ _____    ______ ____
ROOT
ATOM      1  C   UNL     1      49.939   3.062  17.068  0.00  0.00    +0.000 A 
ATOM      2  C   UNL     1      50.758   1.923  17.143  0.00  0.00    +0.000 A 
ATOM      3  C   UNL     1      52.042   1.955  17.690  0.00  0.00    +0.000 A 
ATOM      4  C   UNL     1      52.569   3.177  18.119  0.00  0.00    +0.000 A 
ATOM      5  C   UNL     1      51.802   4.355  17.995  0.00  0.00    +0.000 A 
ATOM      6  C   UNL     1      52.091   5.714  18.291  0.00  0.00    +0.000 A 
ATOM      7  C   UNL     1      50.982   6.454  17.972  0.00  0.00    +0.000 A 
ATOM      8  N   UNL     1      50.006   5.598  17.507  0.00  0.00    +0.000 N 
ATOM      9  C   UNL     1      50.491   4.294  17.483  0.00  0.00    +0.000 A 
ENDROOT
BRANCH   3  10
ATOM     10  C   UNL     1      52.761   0.653  17.809  0.00  0.00    +0.000 C 
ATOM     11  N   UNL     1      52.166  -0.372  18.483  0.00  0.00    +0.000 N 
ATOM     12  O   UNL     1      53.858   0.476  17.283  0.00  0.00    +0.000 OA
ATOM     13  H   UNL     1      51.248  -0.340  18.899  0.00  0.00    +0.000 HD
ATOM     14  H   UNL     1      52.655  -1.258  18.482  0.00  0.00    +0.000 HD
ENDBRANCH   3  10
BRANCH   1  16
ATOM     15  C   UNL     1      47.662   2.743  17.612  0.00  0.00    +0.000 C 
ATOM     16  O   UNL     1      48.643   3.003  16.602  0.00  0.00    +0.000 OA
ENDBRANCH   1  16
BRANCH   8  17
ATOM     17  C   UNL     1      48.755   6.096  16.950  0.00  0.00    +0.000 C 
BRANCH  17  18
ATOM     18  C   UNL     1      48.756   6.246  15.444  0.00  0.00    +0.000 A 
ATOM     19  C   UNL     1      49.539   7.217  14.829  0.00  0.00    +0.000 A 
ATOM     20  C   UNL     1      49.292   7.543  13.496  0.00  0.00    +0.000 A 
ATOM     21  C   UNL     1      48.273   6.893  12.802  0.00  0.00    +0.000 A 
ATOM     22  C   UNL     1      47.855   7.324  11.433  0.00  0.00    +0.000 C 
ATOM     23  C   UNL     1      47.630   5.850  13.452  0.00  0.00    +0.000 A 
ATOM     24  N   UNL     1      47.838   5.521  14.748  0.00  0.00    +0.000 NA
ENDBRANCH  17  18
ENDBRANCH   8  17
TORSDOF 4
ENDMDL
MODEL 9
REMARK VINA RESULT:    -5.138      3.426      8.301
REMARK INTER + INTRA:          -6.753
REMARK INTER:                  -6.083
REMARK INTRA:                  -0.670
REMARK UNBOUND:                -0.413
REMARK  Name = 
REMARK  6 active torsions:
REMARK  status: ('A' for Active; 'I' for Inactive)
REMARK    1  A    between atoms: C_1  and  O_2
REMARK    2  A    between atoms: O_2  and  C_3
REMARK    3  A    between atoms: C_5  and  C_6
REMARK    4  A    between atoms: N_13  and  C_14
REMARK    5  A    between atoms: C_14  and  C_15
REMARK    6  A    between atoms: C_18  and  C_19
REMARK                            x       y       z     vdW  Elec       q    Type
REMARK                         _______ _______ _______ _____ _____    ______ ____
ROOT
ATOM      1  C   UNL     1      47.663   4.881  15.757  0.00  0.00    +0.000 A 
ATOM      2  C   UNL     1      46.696   4.418  14.849  0.00  0.00    +0.000 A 
ATOM      3  C   UNL     1      46.597   4.903  13.544  0.00  0.00    +0.000 A 
ATOM      4  C   UNL     1      47.443   5.940  13.137  0.00  0.00    +0.000 A 
ATOM      5  C   UNL     1      48.380   6.479  14.045  0.00  0.00    +0.000 A 
ATOM      6  C   UNL     1      49.311   7.546  13.929  0.00  0.00    +0.000 A 
ATOM      7  C   UNL     1      49.976   7.649  15.124  0.00  0.00    +0.000 A 
ATOM      8  N   UNL     1      49.503   6.668  15.971  0.00  0.00    +0.000 N 
ATOM      9  C   UNL     1      48.495   5.943  15.342  0.00  0.00    +0.000 A 
ENDROOT
BRANCH   3  10
ATOM     10  C   UNL     1      45.599   4.247  12.651  0.00  0.00    +0.000 C 
ATOM     11  N   UNL     1      45.475   2.890  12.682  0.00  0.00    +0.000 N 
ATOM     12  O   UNL     1      44.864   4.906  11.917  0.00  0.00    +0.000 OA
ATOM     13  H   UNL     1      45.992   2.272  13.287  0.00  0.00    +0.000 HD
ATOM     14  H   UNL     1      44.740   2.490  12.113  0.00  0.00    +0.000 HD
ENDBRANCH   3  10
BRANCH   1  16
ATOM     15  C   UNL     1      48.236   2.972  17.026  0.00  0.00    +0.000 C 
ATOM     16  O   UNL     1      47.805   4.337  17.016  0.00  0.00    +0.000 OA
ENDBRANCH   1  16
BRANCH   8  17
ATOM     17  C   UNL     1      49.910   6.606  17.369  0.00  0.00    +0.000 C 
BRANCH  17  18
ATOM     18  C   UNL     1      49.221   7.612  18.266  0.00  0.00    +0.000 A 
ATOM     19  C   UNL     1      47.920   7.392  18.709  0.00  0.00    +0.000 A 
ATOM     20  C   UNL     1      47.204   8.453  19.260  0.00  0.00    +0.000 A 
ATOM     21  C   UNL     1      47.797   9.710  19.362  0.00  0.00    +0.000 A 
ATOM     22  C   UNL     1      47.017  10.915  19.784  0.00  0.00    +0.000 C 
ATOM     23  C   UNL     1      49.137   9.808  19.017  0.00  0.00    +0.000 A 
ATOM     24  N   UNL     1      49.853   8.801  18.465  0.00  0.00    +0.000 NA
ENDBRANCH  17  18
ENDBRANCH   8  17
TORSDOF 4
ENDMDL
