MODEL 1
REMARK VINA RESULT:    -7.539      0.000      0.000
REMARK INTER + INTRA:         -11.473
REMARK INTER:                 -10.624
REMARK INTRA:                  -0.849
REMARK UNBOUND:                -0.849
REMARK  Name = 
REMARK  11 active torsions:
REMARK  status: ('A' for Active; 'I' for Inactive)
REMARK    1  A    between atoms: C_1  and  N_2
REMARK    2  A    between atoms: N_2  and  C_3
REMARK    3  A    between atoms: N_2  and  C_4
REMARK    4  A    between atoms: C_4  and  C_5
REMARK    5  A    between atoms: C_9  and  C_10
REMARK    6  A    between atoms: C_10  and  C_11
REMARK    7  A    between atoms: C_10  and  C_12
REMARK    8  A    between atoms: C_10  and  C_13
REMARK    9  A    between atoms: C_13  and  N_14
REMARK   10  A    between atoms: N_14  and  C_15
REMARK   11  A    between atoms: C_18  and  C_19
REMARK                            x       y       z     vdW  Elec       q    Type
REMARK                         _______ _______ _______ _____ _____    ______ ____
ROOT
ATOM      1  C   UNL     1      43.433   4.880  10.396  0.00  0.00    +0.000 C 
ENDROOT
BRANCH   1   2
ATOM      2  C   UNL     1      43.566   5.728  11.694  0.00  0.00    +0.000 C 
ATOM      3  C   UNL     1      42.719   5.058  12.801  0.00  0.00    +0.000 C 
ATOM      4  C   UNL     1      43.046   7.159  11.430  0.00  0.00    +0.000 C 
BRANCH   2   9
ATOM      5  C   UNL     1      46.811   5.029  13.685  0.00  0.00    +0.000 A 
ATOM      6  C   UNL     1      47.721   5.880  13.039  0.00  0.00    +0.000 A 
ATOM      7  C   UNL     1      47.327   6.621  11.928  0.00  0.00    +0.000 A 
ATOM      8  C   UNL     1      46.006   6.574  11.488  0.00  0.00    +0.000 A 
ATOM      9  C   UNL     1      45.038   5.809  12.166  0.00  0.00    +0.000 A 
ATOM     10  C   UNL     1      45.467   5.061  13.282  0.00  0.00    +0.000 A 
BRANCH   5  11
ATOM     11  C   UNL     1      47.279   4.032  14.742  0.00  0.00    +0.000 C 
BRANCH  11  13
ATOM     12  C   UNL     1      47.206   3.443  17.094  0.00  0.00    +0.000 C 
ATOM     13  N   UNL     1      47.229   4.549  16.132  0.00  0.00    +0.000 NA
ATOM     14  C   UNL     1      48.383   5.405  16.448  0.00  0.00    +0.000 C 
ENDBRANCH  11  13
ENDBRANCH   5  11
ENDBRANCH   2   9
ENDBRANCH   1   2
BRANCH   1  15
ATOM     15  N   UNL     1      44.035   3.543  10.491  0.00  0.00    +0.000 N 
ATOM     16  H   UNL     1      43.344   2.804  10.600  0.00  0.00    +0.000 HD
BRANCH  15  17
ATOM     17  C   UNL     1      44.949   3.233   9.475  0.00  0.00    +0.000 A 
ATOM     18  C   UNL     1      45.336   1.944   9.128  0.00  0.00    +0.000 A 
ATOM     19  N   UNL     1      46.179   1.630   8.124  0.00  0.00    +0.000 NA
ATOM     20  C   UNL     1      46.623   2.684   7.403  0.00  0.00    +0.000 A 
ATOM     21  N   UNL     1      46.312   3.976   7.615  0.00  0.00    +0.000 NA
ATOM     22  C   UNL     1      45.465   4.209   8.637  0.00  0.00    +0.000 A 
BRANCH  20  23
ATOM     23  C   UNL     1      47.521   2.369   6.227  0.00  0.00    +0.000 C 
ATOM     24  N   UNL     1      47.355   3.189   5.126  0.00  0.00    +0.000 N 
ATOM     25  O   UNL     1      48.347   1.477   6.216  0.00  0.00    +0.000 OA
ATOM     26  H   UNL     1      46.693   3.953   5.154  0.00  0.00    +0.000 HD
ATOM     27  H   UNL     1      47.963   3.056   4.331  0.00  0.00    +0.000 HD
ENDBRANCH  20  23
ENDBRANCH  15  17
ENDBRANCH   1  15
TORSDOF 7
ENDMDL
MODEL 2
REMARK VINA RESULT:    -7.347      2.229      4.011
REMARK INTER + INTRA:         -11.203
REMARK INTER:                 -10.485
REMARK INTRA:                  -0.718
REMARK UNBOUND:                -0.849
REMARK  Name = 
REMARK  11 active torsions:
REMARK  status: ('A' for Active; 'I' for Inactive)
REMARK    1  A    between atoms: C_1  and  N_2
REMARK    2  A    between atoms: N_2  and  C_3
REMARK    3  A    between atoms: N_2  and  C_4
REMARK    4  A    between atoms: C_4  and  C_5
REMARK    5  A    between atoms: C_9  and  C_10
REMARK    6  A    between atoms: C_10  and  C_11
REMARK    7  A    between atoms: C_10  and  C_12
REMARK    8  A    between atoms: C_10  and  C_13
REMARK    9  A    between atoms: C_13  and  N_14
REMARK   10  A    between atoms: N_14  and  C_15
REMARK   11  A    between atoms: C_18  and  C_19
REMARK                            x       y       z     vdW  Elec       q    Type
REMARK                         _______ _______ _______ _____ _____    ______ ____
ROOT
ATOM      1  C   UNL     1      43.736   4.668  10.689  0.00  0.00    +0.000 C 
ENDROOT
BRANCH   1   2
ATOM      2  C   UNL     1      44.358   4.902  12.097  0.00  0.00    +0.000 C 
ATOM      3  C   UNL     1      45.168   3.644  12.485  0.00  0.00    +0.000 C 
ATOM      4  C   UNL     1      43.231   5.138  13.126  0.00  0.00    +0.000 C 
BRANCH   2   9
ATOM      5  C   UNL     1      45.584   8.574  12.070  0.00  0.00    +0.000 A 
ATOM      6  C   UNL     1      46.974   8.403  12.148  0.00  0.00    +0.000 A 
ATOM      7  C   UNL     1      47.521   7.129  12.281  0.00  0.00    +0.000 A 
ATOM      8  C   UNL     1      46.695   6.008  12.272  0.00  0.00    +0.000 A 
ATOM      9  C   UNL     1      45.302   6.128  12.099  0.00  0.00    +0.000 A 
ATOM     10  C   UNL     1      44.775   7.431  11.976  0.00  0.00    +0.000 A 
BRANCH   5  11
ATOM     11  C   UNL     1      44.954   9.961  12.170  0.00  0.00    +0.000 C 
BRANCH  11  13
ATOM     12  C   UNL     1      42.888  10.913  11.327  0.00  0.00    +0.000 C 
ATOM     13  N   UNL     1      44.204  10.379  10.961  0.00  0.00    +0.000 NA
ATOM     14  C   UNL     1      44.917  11.410  10.192  0.00  0.00    +0.000 C 
ENDBRANCH  11  13
ENDBRANCH   5  11
ENDBRANCH   2   9
ENDBRANCH   1   2
BRANCH   1  15
ATOM     15  N   UNL     1      43.806   3.274  10.230  0.00  0.00    +0.000 N 
ATOM     16  H   UNL     1      42.891   2.880  10.023  0.00  0.00    +0.000 HD
BRANCH  15  17
ATOM     17  C   UNL     1      44.703   3.043   9.179  0.00  0.00    +0.000 A 
ATOM     18  C   UNL     1      45.167   4.020   8.307  0.00  0.00    +0.000 A 
ATOM     19  N   UNL     1      46.064   3.818   7.321  0.00  0.00    +0.000 NA
ATOM     20  C   UNL     1      46.549   2.559   7.242  0.00  0.00    +0.000 A 
ATOM     21  N   UNL     1      46.205   1.526   8.032  0.00  0.00    +0.000 NA
ATOM     22  C   UNL     1      45.303   1.807   8.993  0.00  0.00    +0.000 A 
BRANCH  20  23
ATOM     23  C   UNL     1      47.606   2.306   6.188  0.00  0.00    +0.000 C 
ATOM     24  N   UNL     1      47.612   3.203   5.136  0.00  0.00    +0.000 N 
ATOM     25  O   UNL     1      48.414   1.400   6.234  0.00  0.00    +0.000 OA
ATOM     26  H   UNL     1      46.962   3.978   5.122  0.00  0.00    +0.000 HD
ATOM     27  H   UNL     1      48.328   3.113   4.430  0.00  0.00    +0.000 HD
ENDBRANCH  20  23
ENDBRANCH  15  17
ENDBRANCH   1  15
TORSDOF 7
ENDMDL
MODEL 3
REMARK VINA RESULT:    -7.124      1.965      3.075
REMARK INTER + INTRA:         -10.888
REMARK INTER:                 -10.100
REMARK INTRA:                  -0.788
REMARK UNBOUND:                -0.849
REMARK  Name = 
REMARK  11 active torsions:
REMARK  status: ('A' for Active; 'I' for Inactive)
REMARK    1  A    between atoms: C_1  and  N_2
REMARK    2  A    between atoms: N_2  and  C_3
REMARK    3  A    between atoms: N_2  and  C_4
REMARK    4  A    between atoms: C_4  and  C_5
REMARK    5  A    between atoms: C_9  and  C_10
REMARK    6  A    between atoms: C_10  and  C_11
REMARK    7  A    between atoms: C_10  and  C_12
REMARK    8  A    between atoms: C_10  and  C_13
REMARK    9  A    between atoms: C_13  and  N_14
REMARK   10  A    between atoms: N_14  and  C_15
REMARK   11  A    between atoms: C_18  and  C_19
REMARK                            x       y       z     vdW  Elec       q    Type
REMARK                         _______ _______ _______ _____ _____    ______ ____
ROOT
ATOM      1  C   UNL     1      44.263   3.630  11.564  0.00  0.00    +0.000 C 
ENDROOT
BRANCH   1   2
ATOM      2  C   UNL     1      44.083   5.038  12.202  0.00  0.00    +0.000 C 
ATOM      3  C   UNL     1      43.027   4.930  13.326  0.00  0.00    +0.000 C 
ATOM      4  C   UNL     1      43.601   6.035  11.125  0.00  0.00    +0.000 C 
BRANCH   2   9
ATOM      5  C   UNL     1      46.923   7.443  13.266  0.00  0.00    +0.000 A 
ATOM      6  C   UNL     1      47.793   6.567  13.933  0.00  0.00    +0.000 A 
ATOM      7  C   UNL     1      47.448   5.230  14.109  0.00  0.00    +0.000 A 
ATOM      8  C   UNL     1      46.265   4.735  13.566  0.00  0.00    +0.000 A 
ATOM      9  C   UNL     1      45.410   5.557  12.807  0.00  0.00    +0.000 A 
ATOM     10  C   UNL     1      45.780   6.909  12.653  0.00  0.00    +0.000 A 
BRANCH   5  11
ATOM     11  C   UNL     1      47.164   8.950  13.275  0.00  0.00    +0.000 C 
BRANCH  11  13
ATOM     12  C   UNL     1      46.806  10.880  11.849  0.00  0.00    +0.000 C 
ATOM     13  N   UNL     1      47.393   9.540  11.933  0.00  0.00    +0.000 NA
ATOM     14  C   UNL     1      48.825   9.647  11.610  0.00  0.00    +0.000 C 
ENDBRANCH  11  13
ENDBRANCH   5  11
ENDBRANCH   2   9
ENDBRANCH   1   2
BRANCH   1  15
ATOM     15  N   UNL     1      43.807   3.543  10.170  0.00  0.00    +0.000 N 
ATOM     16  H   UNL     1      43.284   4.364   9.873  0.00  0.00    +0.000 HD
BRANCH  15  17
ATOM     17  C   UNL     1      44.804   3.218   9.241  0.00  0.00    +0.000 A 
ATOM     18  C   UNL     1      45.277   1.932   9.008  0.00  0.00    +0.000 A 
ATOM     19  N   UNL     1      46.204   1.601   8.087  0.00  0.00    +0.000 NA
ATOM     20  C   UNL     1      46.647   2.629   7.330  0.00  0.00    +0.000 A 
ATOM     21  N   UNL     1      46.261   3.914   7.434  0.00  0.00    +0.000 NA
ATOM     22  C   UNL     1      45.332   4.165   8.378  0.00  0.00    +0.000 A 
BRANCH  20  23
ATOM     23  C   UNL     1      47.641   2.288   6.241  0.00  0.00    +0.000 C 
ATOM     24  N   UNL     1      47.663   3.165   5.172  0.00  0.00    +0.000 N 
ATOM     25  O   UNL     1      48.389   1.331   6.272  0.00  0.00    +0.000 OA
ATOM     26  H   UNL     1      47.066   3.981   5.169  0.00  0.00    +0.000 HD
ATOM     27  H   UNL     1      48.343   3.015   4.440  0.00  0.00    +0.000 HD
ENDBRANCH  20  23
ENDBRANCH  15  17
ENDBRANCH   1  15
TORSDOF 7
ENDMDL
MODEL 4
REMARK VINA RESULT:    -7.066      1.550      2.378
REMARK INTER + INTRA:         -10.807
REMARK INTER:                 -10.482
REMARK INTRA:                  -0.326
REMARK UNBOUND:                -0.849
REMARK  Name = 
REMARK  11 active torsions:
REMARK  status: ('A' for Active; 'I' for Inactive)
REMARK    1  A    between atoms: C_1  and  N_2
REMARK    2  A    between atoms: N_2  and  C_3
REMARK    3  A    between atoms: N_2  and  C_4
REMARK    4  A    between atoms: C_4  and  C_5
REMARK    5  A    between atoms: C_9  and  C_10
REMARK    6  A    between atoms: C_10  and  C_11
REMARK    7  A    between atoms: C_10  and  C_12
REMARK    8  A    between atoms: C_10  and  C_13
REMARK    9  A    between atoms: C_13  and  N_14
REMARK   10  A    between atoms: N_14  and  C_15
REMARK   11  A    between atoms: C_18  and  C_19
REMARK                            x       y       z     vdW  Elec       q    Type
REMARK                         _______ _______ _______ _____ _____    ______ ____
ROOT
ATOM      1  C   UNL     1      43.916   4.888  10.720  0.00  0.00    +0.000 C 
ENDROOT
BRANCH   1   2
ATOM      2  C   UNL     1      44.313   4.996  12.221  0.00  0.00    +0.000 C 
ATOM      3  C   UNL     1      45.064   3.704  12.619  0.00  0.00    +0.000 C 
ATOM      4  C   UNL     1      43.039   5.147  13.082  0.00  0.00    +0.000 C 
BRANCH   2   9
ATOM      5  C   UNL     1      47.504   7.101  12.830  0.00  0.00    +0.000 A 
ATOM      6  C   UNL     1      46.973   8.398  12.888  0.00  0.00    +0.000 A 
ATOM      7  C   UNL     1      45.616   8.616  12.664  0.00  0.00    +0.000 A 
ATOM      8  C   UNL     1      44.762   7.538  12.444  0.00  0.00    +0.000 A 
ATOM      9  C   UNL     1      45.236   6.212  12.474  0.00  0.00    +0.000 A 
ATOM     10  C   UNL     1      46.616   6.023  12.694  0.00  0.00    +0.000 A 
BRANCH   5  11
ATOM     11  C   UNL     1      49.012   6.866  12.829  0.00  0.00    +0.000 C 
BRANCH  11  13
ATOM     12  C   UNL     1      50.431   8.003  14.436  0.00  0.00    +0.000 C 
ATOM     13  N   UNL     1      49.621   6.807  14.181  0.00  0.00    +0.000 NA
ATOM     14  C   UNL     1      48.609   6.706  15.243  0.00  0.00    +0.000 C 
ENDBRANCH  11  13
ENDBRANCH   5  11
ENDBRANCH   2   9
ENDBRANCH   1   2
BRANCH   1  15
ATOM     15  N   UNL     1      43.843   3.508  10.219  0.00  0.00    +0.000 N 
ATOM     16  H   UNL     1      42.894   3.221   9.988  0.00  0.00    +0.000 HD
BRANCH  15  17
ATOM     17  C   UNL     1      44.728   3.211   9.175  0.00  0.00    +0.000 A 
ATOM     18  C   UNL     1      45.264   4.151   8.303  0.00  0.00    +0.000 A 
ATOM     19  N   UNL     1      46.150   3.884   7.323  0.00  0.00    +0.000 NA
ATOM     20  C   UNL     1      46.546   2.593   7.250  0.00  0.00    +0.000 A 
ATOM     21  N   UNL     1      46.126   1.589   8.041  0.00  0.00    +0.000 NA
ATOM     22  C   UNL     1      45.240   1.936   8.996  0.00  0.00    +0.000 A 
BRANCH  20  23
ATOM     23  C   UNL     1      47.589   2.264   6.203  0.00  0.00    +0.000 C 
ATOM     24  N   UNL     1      47.528   3.028   5.053  0.00  0.00    +0.000 N 
ATOM     25  O   UNL     1      48.440   1.406   6.332  0.00  0.00    +0.000 OA
ATOM     26  H   UNL     1      46.842   3.766   4.967  0.00  0.00    +0.000 HD
ATOM     27  H   UNL     1      48.231   2.886   4.343  0.00  0.00    +0.000 HD
ENDBRANCH  20  23
ENDBRANCH  15  17
ENDBRANCH   1  15
TORSDOF 7
ENDMDL
MODEL 5
REMARK VINA RESULT:    -6.522      1.322      1.926
REMARK INTER + INTRA:         -10.039
REMARK INTER:                  -9.756
REMARK INTRA:                  -0.283
REMARK UNBOUND:                -0.849
REMARK  Name = 
REMARK  11 active torsions:
REMARK  status: ('A' for Active; 'I' for Inactive)
REMARK    1  A    between atoms: C_1  and  N_2
REMARK    2  A    between atoms: N_2  and  C_3
REMARK    3  A    between atoms: N_2  and  C_4
REMARK    4  A    between atoms: C_4  and  C_5
REMARK    5  A    between atoms: C_9  and  C_10
REMARK    6  A    between atoms: C_10  and  C_11
REMARK    7  A    between atoms: C_10  and  C_12
REMARK    8  A    between atoms: C_10  and  C_13
REMARK    9  A    between atoms: C_13  and  N_14
REMARK   10  A    between atoms: N_14  and  C_15
REMARK   11  A    between atoms: C_18  and  C_19
REMARK                            x       y       z     vdW  Elec       q    Type
REMARK                         _______ _______ _______ _____ _____    ______ ____
ROOT
ATOM      1  C   UNL     1      45.363   5.640  11.109  0.00  0.00    +0.000 C 
ENDROOT
BRANCH   1   2
ATOM      2  C   UNL     1      45.187   5.000  12.517  0.00  0.00    +0.000 C 
ATOM      3  C   UNL     1      45.219   3.462  12.358  0.00  0.00    +0.000 C 
ATOM      4  C   UNL     1      43.832   5.437  13.117  0.00  0.00    +0.000 C 
BRANCH   2   9
ATOM      5  C   UNL     1      47.571   5.059  15.567  0.00  0.00    +0.000 A 
ATOM      6  C   UNL     1      48.407   6.139  15.243  0.00  0.00    +0.000 A 
ATOM      7  C   UNL     1      48.263   6.804  14.028  0.00  0.00    +0.000 A 
ATOM      8  C   UNL     1      47.244   6.443  13.150  0.00  0.00    +0.000 A 
ATOM      9  C   UNL     1      46.322   5.430  13.477  0.00  0.00    +0.000 A 
ATOM     10  C   UNL     1      46.498   4.768  14.711  0.00  0.00    +0.000 A 
BRANCH   5  11
ATOM     11  C   UNL     1      47.865   4.168  16.770  0.00  0.00    +0.000 C 
BRANCH  11  13
ATOM     12  C   UNL     1      49.942   3.963  18.007  0.00  0.00    +0.000 C 
ATOM     13  N   UNL     1      49.230   3.588  16.781  0.00  0.00    +0.000 NA
ATOM     14  C   UNL     1      49.211   2.120  16.695  0.00  0.00    +0.000 C 
ENDBRANCH  11  13
ENDBRANCH   5  11
ENDBRANCH   2   9
ENDBRANCH   1   2
BRANCH   1  15
ATOM     15  N   UNL     1      44.560   5.001  10.058  0.00  0.00    +0.000 N 
ATOM     16  H   UNL     1      43.966   5.659   9.558  0.00  0.00    +0.000 HD
BRANCH  15  17
ATOM     17  C   UNL     1      45.285   4.200   9.166  0.00  0.00    +0.000 A 
ATOM     18  C   UNL     1      45.214   2.813   9.114  0.00  0.00    +0.000 A 
ATOM     19  N   UNL     1      45.873   2.034   8.232  0.00  0.00    +0.000 NA
ATOM     20  C   UNL     1      46.614   2.705   7.323  0.00  0.00    +0.000 A 
ATOM     21  N   UNL     1      46.754   4.042   7.245  0.00  0.00    +0.000 NA
ATOM     22  C   UNL     1      46.065   4.751   8.162  0.00  0.00    +0.000 A 
BRANCH  20  23
ATOM     23  C   UNL     1      47.318   1.871   6.275  0.00  0.00    +0.000 C 
ATOM     24  N   UNL     1      48.102   2.584   5.387  0.00  0.00    +0.000 N 
ATOM     25  O   UNL     1      47.234   0.662   6.193  0.00  0.00    +0.000 OA
ATOM     26  H   UNL     1      48.199   3.586   5.483  0.00  0.00    +0.000 HD
ATOM     27  H   UNL     1      48.635   2.073   4.698  0.00  0.00    +0.000 HD
ENDBRANCH  20  23
ENDBRANCH  15  17
ENDBRANCH   1  15
TORSDOF 7
ENDMDL
MODEL 6
REMARK VINA RESULT:    -6.309      2.971      7.881
REMARK INTER + INTRA:          -9.739
REMARK INTER:                  -9.069
REMARK INTRA:                  -0.671
REMARK UNBOUND:                -0.849
REMARK  Name = 
REMARK  11 active torsions:
REMARK  status: ('A' for Active; 'I' for Inactive)
REMARK    1  A    between atoms: C_1  and  N_2
REMARK    2  A    between atoms: N_2  and  C_3
REMARK    3  A    between atoms: N_2  and  C_4
REMARK    4  A    between atoms: C_4  and  C_5
REMARK    5  A    between atoms: C_9  and  C_10
REMARK    6  A    between atoms: C_10  and  C_11
REMARK    7  A    between atoms: C_10  and  C_12
REMARK    8  A    between atoms: C_10  and  C_13
REMARK    9  A    between atoms: C_13  and  N_14
REMARK   10  A    between atoms: N_14  and  C_15
REMARK   11  A    between atoms: C_18  and  C_19
REMARK                            x       y       z     vdW  Elec       q    Type
REMARK                         _______ _______ _______ _____ _____    ______ ____
ROOT
ATOM      1  C   UNL     1      46.428   5.235  12.851  0.00  0.00    +0.000 C 
ENDROOT
BRANCH   1   2
ATOM      2  C   UNL     1      45.187   5.578  11.976  0.00  0.00    +0.000 C 
ATOM      3  C   UNL     1      45.396   6.984  11.367  0.00  0.00    +0.000 C 
ATOM      4  C   UNL     1      43.918   5.572  12.857  0.00  0.00    +0.000 C 
BRANCH   2   9
ATOM      5  C   UNL     1      45.580   3.814   8.553  0.00  0.00    +0.000 A 
ATOM      6  C   UNL     1      44.749   2.696   8.720  0.00  0.00    +0.000 A 
ATOM      7  C   UNL     1      44.120   2.461   9.940  0.00  0.00    +0.000 A 
ATOM      8  C   UNL     1      44.259   3.371  10.985  0.00  0.00    +0.000 A 
ATOM      9  C   UNL     1      45.005   4.555  10.829  0.00  0.00    +0.000 A 
ATOM     10  C   UNL     1      45.639   4.762   9.586  0.00  0.00    +0.000 A 
BRANCH   5  11
ATOM     11  C   UNL     1      46.466   3.960   7.318  0.00  0.00    +0.000 C 
BRANCH  11  13
ATOM     12  C   UNL     1      46.879   2.970   5.141  0.00  0.00    +0.000 C 
ATOM     13  N   UNL     1      46.679   2.698   6.568  0.00  0.00    +0.000 NA
ATOM     14  C   UNL     1      47.848   1.951   7.058  0.00  0.00    +0.000 C 
ENDBRANCH  11  13
ENDBRANCH   5  11
ENDBRANCH   2   9
ENDBRANCH   1   2
BRANCH   1  15
ATOM     15  N   UNL     1      46.109   4.477  14.068  0.00  0.00    +0.000 N 
ATOM     16  H   UNL     1      45.828   3.518  13.875  0.00  0.00    +0.000 HD
BRANCH  15  17
ATOM     17  C   UNL     1      47.092   4.522  15.066  0.00  0.00    +0.000 A 
ATOM     18  C   UNL     1      47.335   3.504  15.981  0.00  0.00    +0.000 A 
ATOM     19  N   UNL     1      48.305   3.517  16.917  0.00  0.00    +0.000 NA
ATOM     20  C   UNL     1      49.102   4.609  16.896  0.00  0.00    +0.000 A 
ATOM     21  N   UNL     1      48.993   5.653  16.054  0.00  0.00    +0.000 NA
ATOM     22  C   UNL     1      47.999   5.567  15.148  0.00  0.00    +0.000 A 
BRANCH  20  23
ATOM     23  C   UNL     1      50.244   4.633  17.889  0.00  0.00    +0.000 C 
ATOM     24  N   UNL     1      49.929   4.176  19.155  0.00  0.00    +0.000 N 
ATOM     25  O   UNL     1      51.370   5.008  17.628  0.00  0.00    +0.000 OA
ATOM     26  H   UNL     1      49.001   3.830  19.356  0.00  0.00    +0.000 HD
ATOM     27  H   UNL     1      50.665   4.122  19.844  0.00  0.00    +0.000 HD
ENDBRANCH  20  23
ENDBRANCH  15  17
ENDBRANCH   1  15
TORSDOF 7
ENDMDL
MODEL 7
REMARK VINA RESULT:    -6.123      3.505      8.367
REMARK INTER + INTRA:          -9.477
REMARK INTER:                  -8.792
REMARK INTRA:                  -0.685
REMARK UNBOUND:                -0.849
REMARK  Name = 
REMARK  11 active torsions:
REMARK  status: ('A' for Active; 'I' for Inactive)
REMARK    1  A    between atoms: C_1  and  N_2
REMARK    2  A    between atoms: N_2  and  C_3
REMARK    3  A    between atoms: N_2  and  C_4
REMARK    4  A    between atoms: C_4  and  C_5
REMARK    5  A    between atoms: C_9  and  C_10
REMARK    6  A    between atoms: C_10  and  C_11
REMARK    7  A    between atoms: C_10  and  C_12
REMARK    8  A    between atoms: C_10  and  C_13
REMARK    9  A    between atoms: C_13  and  N_14
REMARK   10  A    between atoms: N_14  and  C_15
REMARK   11  A    between atoms: C_18  and  C_19
REMARK                            x       y       z     vdW  Elec       q    Type
REMARK                         _______ _______ _______ _____ _____    ______ ____
ROOT
ATOM      1  C   UNL     1      47.386   5.915  13.710  0.00  0.00    +0.000 C 
ENDROOT
BRANCH   1   2
ATOM      2  C   UNL     1      46.608   6.725  12.633  0.00  0.00    +0.000 C 
ATOM      3  C   UNL     1      47.572   7.028  11.462  0.00  0.00    +0.000 C 
ATOM      4  C   UNL     1      46.100   8.047  13.249  0.00  0.00    +0.000 C 
BRANCH   2   9
ATOM      5  C   UNL     1      44.324   4.725  10.231  0.00  0.00    +0.000 A 
ATOM      6  C   UNL     1      43.238   4.425  11.067  0.00  0.00    +0.000 A 
ATOM      7  C   UNL     1      43.258   4.794  12.410  0.00  0.00    +0.000 A 
ATOM      8  C   UNL     1      44.332   5.521  12.919  0.00  0.00    +0.000 A 
ATOM      9  C   UNL     1      45.397   5.927  12.092  0.00  0.00    +0.000 A 
ATOM     10  C   UNL     1      45.353   5.532  10.739  0.00  0.00    +0.000 A 
BRANCH   5  11
ATOM     11  C   UNL     1      44.431   4.124   8.832  0.00  0.00    +0.000 C 
BRANCH  11  13
ATOM     12  C   UNL     1      45.359   1.883   8.792  0.00  0.00    +0.000 C 
ATOM     13  N   UNL     1      45.650   3.309   8.610  0.00  0.00    +0.000 NA
ATOM     14  C   UNL     1      46.204   3.493   7.260  0.00  0.00    +0.000 C 
ENDBRANCH  11  13
ENDBRANCH   5  11
ENDBRANCH   2   9
ENDBRANCH   1   2
BRANCH   1  15
ATOM     15  N   UNL     1      48.166   6.747  14.636  0.00  0.00    +0.000 N 
ATOM     16  H   UNL     1      47.826   7.705  14.689  0.00  0.00    +0.000 HD
BRANCH  15  17
ATOM     17  C   UNL     1      48.342   6.203  15.915  0.00  0.00    +0.000 A 
ATOM     18  C   UNL     1      47.961   4.919  16.285  0.00  0.00    +0.000 A 
ATOM     19  N   UNL     1      48.165   4.369  17.499  0.00  0.00    +0.000 NA
ATOM     20  C   UNL     1      48.831   5.153  18.375  0.00  0.00    +0.000 A 
ATOM     21  N   UNL     1      49.275   6.402  18.142  0.00  0.00    +0.000 NA
ATOM     22  C   UNL     1      49.032   6.882  16.906  0.00  0.00    +0.000 A 
BRANCH  20  23
ATOM     23  C   UNL     1      49.136   4.549  19.729  0.00  0.00    +0.000 C 
ATOM     24  N   UNL     1      48.319   3.497  20.099  0.00  0.00    +0.000 N 
ATOM     25  O   UNL     1      50.031   4.925  20.460  0.00  0.00    +0.000 OA
ATOM     26  H   UNL     1      47.601   3.163  19.470  0.00  0.00    +0.000 HD
ATOM     27  H   UNL     1      48.509   3.022  20.970  0.00  0.00    +0.000 HD
ENDBRANCH  20  23
ENDBRANCH  15  17
ENDBRANCH   1  15
TORSDOF 7
ENDMDL
MODEL 8
REMARK VINA RESULT:    -6.080      3.113      5.135
REMARK INTER + INTRA:          -9.417
REMARK INTER:                  -8.538
REMARK INTRA:                  -0.878
REMARK UNBOUND:                -0.849
REMARK  Name = 
REMARK  11 active torsions:
REMARK  status: ('A' for Active; 'I' for Inactive)
REMARK    1  A    between atoms: C_1  and  N_2
REMARK    2  A    between atoms: N_2  and  C_3
REMARK    3  A    between atoms: N_2  and  C_4
REMARK    4  A    between atoms: C_4  and  C_5
REMARK    5  A    between atoms: C_9  and  C_10
REMARK    6  A    between atoms: C_10  and  C_11
REMARK    7  A    between atoms: C_10  and  C_12
REMARK    8  A    between atoms: C_10  and  C_13
REMARK    9  A    between atoms: C_13  and  N_14
REMARK   10  A    between atoms: N_14  and  C_15
REMARK   11  A    between atoms: C_18  and  C_19
REMARK                            x       y       z     vdW  Elec       q    Type
REMARK                         _______ _______ _______ _____ _____    ______ ____
ROOT
ATOM      1  C   UNL     1      47.073   8.214  12.436  0.00  0.00    +0.000 C 
ENDROOT
BRANCH   1   2
ATOM      2  C   UNL     1      48.526   8.182  12.992  0.00  0.00    +0.000 C 
ATOM      3  C   UNL     1      49.214   9.518  12.630  0.00  0.00    +0.000 C 
ATOM      4  C   UNL     1      49.297   7.006  12.353  0.00  0.00    +0.000 C 
BRANCH   2   9
ATOM      5  C   UNL     1      48.897   6.564  16.490  0.00  0.00    +0.000 A 
ATOM      6  C   UNL     1      48.620   7.654  17.329  0.00  0.00    +0.000 A 
ATOM      7  C   UNL     1      48.386   8.916  16.792  0.00  0.00    +0.000 A 
ATOM      8  C   UNL     1      48.360   9.096  15.411  0.00  0.00    +0.000 A 
ATOM      9  C   UNL     1      48.537   8.011  14.530  0.00  0.00    +0.000 A 
ATOM     10  C   UNL     1      48.782   6.745  15.103  0.00  0.00    +0.000 A 
BRANCH   5  11
ATOM     11  C   UNL     1      49.394   5.238  17.058  0.00  0.00    +0.000 C 
BRANCH  11  13
ATOM     12  C   UNL     1      49.185   2.822  17.159  0.00  0.00    +0.000 C 
ATOM     13  N   UNL     1      48.575   4.063  16.669  0.00  0.00    +0.000 NA
ATOM     14  C   UNL     1      47.205   4.139  17.199  0.00  0.00    +0.000 C 
ENDBRANCH  11  13
ENDBRANCH   5  11
ENDBRANCH   2   9
ENDBRANCH   1   2
BRANCH   1  15
ATOM     15  N   UNL     1      46.079   7.592  13.322  0.00  0.00    +0.000 N 
ATOM     16  H   UNL     1      45.383   8.253  13.661  0.00  0.00    +0.000 HD
BRANCH  15  17
ATOM     17  C   UNL     1      45.472   6.438  12.812  0.00  0.00    +0.000 A 
ATOM     18  C   UNL     1      44.806   6.368  11.594  0.00  0.00    +0.000 A 
ATOM     19  N   UNL     1      44.256   5.254  11.073  0.00  0.00    +0.000 NA
ATOM     20  C   UNL     1      44.428   4.135  11.811  0.00  0.00    +0.000 A 
ATOM     21  N   UNL     1      45.068   4.055  12.992  0.00  0.00    +0.000 NA
ATOM     22  C   UNL     1      45.589   5.212  13.448  0.00  0.00    +0.000 A 
BRANCH  20  23
ATOM     23  C   UNL     1      43.881   2.849  11.229  0.00  0.00    +0.000 C 
ATOM     24  N   UNL     1      44.543   2.384  10.108  0.00  0.00    +0.000 N 
ATOM     25  O   UNL     1      42.940   2.236  11.691  0.00  0.00    +0.000 OA
ATOM     26  H   UNL     1      45.350   2.879   9.751  0.00  0.00    +0.000 HD
ATOM     27  H   UNL     1      44.253   1.504   9.708  0.00  0.00    +0.000 HD
ENDBRANCH  20  23
ENDBRANCH  15  17
ENDBRANCH   1  15
TORSDOF 7
ENDMDL
MODEL 9
REMARK VINA RESULT:    -6.011      3.124      5.510
REMARK INTER + INTRA:          -9.320
REMARK INTER:                  -8.527
REMARK INTRA:                  -0.793
REMARK UNBOUND:                -0.849
REMARK  Name = 
REMARK  11 active torsions:
REMARK  status: ('A' for Active; 'I' for Inactive)
REMARK    1  A    between atoms: C_1  and  N_2
REMARK    2  A    between atoms: N_2  and  C_3
REMARK    3  A    between atoms: N_2  and  C_4
REMARK    4  A    between atoms: C_4  and  C_5
REMARK    5  A    between atoms: C_9  and  C_10
REMARK    6  A    between atoms: C_10  and  C_11
REMARK    7  A    between atoms: C_10  and  C_12
REMARK    8  A    between atoms: C_10  and  C_13
REMARK    9  A    between atoms: C_13  and  N_14
REMARK   10  A    between atoms: N_14  and  C_15
REMARK   11  A    between atoms: C_18  and  C_19
REMARK                            x       y       z     vdW  Elec       q    Type
REMARK                         _______ _______ _______ _____ _____    ______ ____
ROOT
ATOM      1  C   UNL     1      48.450   7.026  13.355  0.00  0.00    +0.000 C 
ENDROOT
BRANCH   1   2
ATOM      2  C   UNL     1      49.235   8.028  14.250  0.00  0.00    +0.000 C 
ATOM      3  C   UNL     1      48.213   8.914  14.999  0.00  0.00    +0.000 C 
ATOM      4  C   UNL     1      50.142   8.909  13.364  0.00  0.00    +0.000 C 
BRANCH   2   9
ATOM      5  C   UNL     1      50.312   5.579  17.049  0.00  0.00    +0.000 A 
ATOM      6  C   UNL     1      51.679   5.872  17.162  0.00  0.00    +0.000 A 
ATOM      7  C   UNL     1      52.277   6.793  16.306  0.00  0.00    +0.000 A 
ATOM      8  C   UNL     1      51.507   7.480  15.370  0.00  0.00    +0.000 A 
ATOM      9  C   UNL     1      50.114   7.288  15.287  0.00  0.00    +0.000 A 
ATOM     10  C   UNL     1      49.538   6.342  16.161  0.00  0.00    +0.000 A 
BRANCH   5  11
ATOM     11  C   UNL     1      49.692   4.407  17.805  0.00  0.00    +0.000 C 
BRANCH  11  13
ATOM     12  C   UNL     1      50.121   2.139  17.058  0.00  0.00    +0.000 C 
ATOM     13  N   UNL     1      49.230   3.297  16.936  0.00  0.00    +0.000 NA
ATOM     14  C   UNL     1      47.865   2.861  17.270  0.00  0.00    +0.000 C 
ENDBRANCH  11  13
ENDBRANCH   5  11
ENDBRANCH   2   9
ENDBRANCH   1   2
BRANCH   1  15
ATOM     15  N   UNL     1      47.016   6.943  13.666  0.00  0.00    +0.000 N 
ATOM     16  H   UNL     1      46.531   7.828  13.533  0.00  0.00    +0.000 HD
BRANCH  15  17
ATOM     17  C   UNL     1      46.334   5.894  13.037  0.00  0.00    +0.000 A 
ATOM     18  C   UNL     1      46.040   4.674  13.632  0.00  0.00    +0.000 A 
ATOM     19  N   UNL     1      45.346   3.674  13.052  0.00  0.00    +0.000 NA
ATOM     20  C   UNL     1      44.888   3.945  11.810  0.00  0.00    +0.000 A 
ATOM     21  N   UNL     1      45.081   5.088  11.126  0.00  0.00    +0.000 NA
ATOM     22  C   UNL     1      45.785   6.038  11.772  0.00  0.00    +0.000 A 
BRANCH  20  23
ATOM     23  C   UNL     1      44.050   2.872  11.148  0.00  0.00    +0.000 C 
ATOM     24  N   UNL     1      44.621   2.284  10.036  0.00  0.00    +0.000 N 
ATOM     25  O   UNL     1      42.956   2.519  11.542  0.00  0.00    +0.000 OA
ATOM     26  H   UNL     1      45.548   2.555   9.735  0.00  0.00    +0.000 HD
ATOM     27  H   UNL     1      44.128   1.527   9.584  0.00  0.00    +0.000 HD
ENDBRANCH  20  23
ENDBRANCH  15  17
ENDBRANCH   1  15
TORSDOF 7
ENDMDL
