MODEL 1
REMARK VINA RESULT:    -7.004      0.000      0.000
REMARK INTER + INTRA:         -10.817
REMARK INTER:                  -9.870
REMARK INTRA:                  -0.947
REMARK UNBOUND:                -0.947
REMARK  Name = 
REMARK  9 active torsions:
REMARK  status: ('A' for Active; 'I' for Inactive)
REMARK    1  A    between atoms: C_1  and  C_2
REMARK    2  A    between atoms: C_2  and  C_3
REMARK    3  A    between atoms: C_2  and  C_4
REMARK    4  A    between atoms: C_2  and  C_15
REMARK    5  A    between atoms: C_5  and  C_6
REMARK    6  A    between atoms: C_9  and  C_10
REMARK    7  A    between atoms: C_19  and  O_20
REMARK    8  A    between atoms: O_20  and  C_21
REMARK    9  A    between atoms: C_21  and  C_22
REMARK                            x       y       z     vdW  Elec       q    Type
REMARK                         _______ _______ _______ _____ _____    ______ ____
ROOT
ATOM      1  C   UNL     1      43.209   6.042  11.896  0.00  0.00    +0.000 C 
ATOM      2  C   UNL     1      44.695   5.731  11.597  0.00  0.00    +0.000 C 
ATOM      3  C   UNL     1      45.307   7.064  11.085  0.00  0.00    +0.000 C 
ENDROOT
BRANCH   2   4
ATOM      4  C   UNL     1      44.848   4.597  10.561  0.00  0.00    +0.000 A 
ATOM      5  C   UNL     1      44.204   3.357  10.717  0.00  0.00    +0.000 A 
ATOM      6  C   UNL     1      44.313   2.354   9.750  0.00  0.00    +0.000 A 
ATOM      7  C   UNL     1      45.048   2.570   8.587  0.00  0.00    +0.000 A 
ATOM      8  C   UNL     1      45.680   3.794   8.387  0.00  0.00    +0.000 A 
ATOM      9  C   UNL     1      45.589   4.784   9.373  0.00  0.00    +0.000 A 
BRANCH   8  10
ATOM     10  O   UNL     1      46.399   4.153   7.279  0.00  0.00    +0.000 OA
BRANCH  10  11
ATOM     11  C   UNL     1      46.658   3.123   6.324  0.00  0.00    +0.000 C 
BRANCH  11  12
ATOM     12  C   UNL     1      48.042   2.554   6.570  0.00  0.00    +0.000 C 
ATOM     13  F   UNL     1      47.937   1.448   7.353  0.00  0.00    +0.000 F 
ENDBRANCH  11  12
ENDBRANCH  10  11
ENDBRANCH   8  10
ENDBRANCH   2   4
BRANCH   2  14
ATOM     14  C   UNL     1      45.382   5.410  12.929  0.00  0.00    +0.000 C 
ATOM     15  C   UNL     1      46.700   5.392  13.197  0.00  0.00    +0.000 C 
BRANCH  15  16
ATOM     16  C   UNL     1      47.273   5.071  14.512  0.00  0.00    +0.000 A 
ATOM     17  C   UNL     1      46.921   3.927  15.240  0.00  0.00    +0.000 A 
ATOM     18  C   UNL     1      47.514   3.675  16.475  0.00  0.00    +0.000 A 
ATOM     19  C   UNL     1      48.464   4.569  16.944  0.00  0.00    +0.000 A 
ATOM     20  N   UNL     1      48.857   5.683  16.265  0.00  0.00    +0.000 NA
ATOM     21  C   UNL     1      48.251   5.897  15.070  0.00  0.00    +0.000 A 
BRANCH  19  22
ATOM     22  C   UNL     1      49.121   4.320  18.266  0.00  0.00    +0.000 C 
ATOM     23  N   UNL     1      48.573   3.312  19.012  0.00  0.00    +0.000 N 
ATOM     24  O   UNL     1      50.081   4.969  18.661  0.00  0.00    +0.000 OA
ATOM     25  H   UNL     1      47.777   2.799  18.651  0.00  0.00    +0.000 HD
ATOM     26  H   UNL     1      48.963   3.094  19.917  0.00  0.00    +0.000 HD
ENDBRANCH  19  22
ENDBRANCH  15  16
ENDBRANCH   2  14
TORSDOF 7
ENDMDL
MODEL 2
REMARK VINA RESULT:    -6.611      2.172      2.879
REMARK INTER + INTRA:         -10.264
REMARK INTER:                  -9.317
REMARK INTRA:                  -0.946
REMARK UNBOUND:                -0.947
REMARK  Name = 
REMARK  9 active torsions:
REMARK  status: ('A' for Active; 'I' for Inactive)
REMARK    1  A    between atoms: C_1  and  C_2
REMARK    2  A    between atoms: C_2  and  C_3
REMARK    3  A    between atoms: C_2  and  C_4
REMARK    4  A    between atoms: C_2  and  C_15
REMARK    5  A    between atoms: C_5  and  C_6
REMARK    6  A    between atoms: C_9  and  C_10
REMARK    7  A    between atoms: C_19  and  O_20
REMARK    8  A    between atoms: O_20  and  C_21
REMARK    9  A    between atoms: C_21  and  C_22
REMARK                            x       y       z     vdW  Elec       q    Type
REMARK                         _______ _______ _______ _____ _____    ______ ____
ROOT
ATOM      1  C   UNL     1      43.598   4.560  12.882  0.00  0.00    +0.000 C 
ATOM      2  C   UNL     1      44.272   5.200  11.644  0.00  0.00    +0.000 C 
ATOM      3  C   UNL     1      43.303   6.318  11.171  0.00  0.00    +0.000 C 
ENDROOT
BRANCH   2   4
ATOM      4  C   UNL     1      44.535   4.163  10.532  0.00  0.00    +0.000 A 
ATOM      5  C   UNL     1      43.997   2.866  10.584  0.00  0.00    +0.000 A 
ATOM      6  C   UNL     1      44.204   1.950   9.549  0.00  0.00    +0.000 A 
ATOM      7  C   UNL     1      44.934   2.313   8.419  0.00  0.00    +0.000 A 
ATOM      8  C   UNL     1      45.461   3.597   8.321  0.00  0.00    +0.000 A 
ATOM      9  C   UNL     1      45.273   4.499   9.375  0.00  0.00    +0.000 A 
BRANCH   8  10
ATOM     10  O   UNL     1      46.162   4.097   7.257  0.00  0.00    +0.000 OA
BRANCH  10  11
ATOM     11  C   UNL     1      46.629   3.148   6.298  0.00  0.00    +0.000 C 
BRANCH  11  12
ATOM     12  C   UNL     1      48.004   2.657   6.711  0.00  0.00    +0.000 C 
ATOM     13  F   UNL     1      47.888   1.422   7.266  0.00  0.00    +0.000 F 
ENDBRANCH  11  12
ENDBRANCH  10  11
ENDBRANCH   8  10
ENDBRANCH   2   4
BRANCH   2  14
ATOM     14  C   UNL     1      45.554   5.895  12.117  0.00  0.00    +0.000 C 
ATOM     15  C   UNL     1      46.497   5.415  12.949  0.00  0.00    +0.000 C 
BRANCH  15  16
ATOM     16  C   UNL     1      47.701   6.156  13.350  0.00  0.00    +0.000 A 
ATOM     17  C   UNL     1      48.374   7.039  12.496  0.00  0.00    +0.000 A 
ATOM     18  C   UNL     1      49.503   7.722  12.945  0.00  0.00    +0.000 A 
ATOM     19  C   UNL     1      49.917   7.518  14.252  0.00  0.00    +0.000 A 
ATOM     20  N   UNL     1      49.284   6.689  15.129  0.00  0.00    +0.000 NA
ATOM     21  C   UNL     1      48.195   6.037  14.650  0.00  0.00    +0.000 A 
BRANCH  19  22
ATOM     22  C   UNL     1      51.123   8.243  14.764  0.00  0.00    +0.000 C 
ATOM     23  N   UNL     1      52.182   7.447  15.111  0.00  0.00    +0.000 N 
ATOM     24  O   UNL     1      51.169   9.461  14.869  0.00  0.00    +0.000 OA
ATOM     25  H   UNL     1      52.104   6.441  15.012  0.00  0.00    +0.000 HD
ATOM     26  H   UNL     1      53.025   7.869  15.470  0.00  0.00    +0.000 HD
ENDBRANCH  19  22
ENDBRANCH  15  16
ENDBRANCH   2  14
TORSDOF 7
ENDMDL
MODEL 3
REMARK VINA RESULT:    -6.303      3.979      8.213
REMARK INTER + INTRA:          -9.828
REMARK INTER:                  -8.917
REMARK INTRA:                  -0.911
REMARK UNBOUND:                -0.947
REMARK  Name = 
REMARK  9 active torsions:
REMARK  status: ('A' for Active; 'I' for Inactive)
REMARK    1  A    between atoms: C_1  and  C_2
REMARK    2  A    between atoms: C_2  and  C_3
REMARK    3  A    between atoms: C_2  and  C_4
REMARK    4  A    between atoms: C_2  and  C_15
REMARK    5  A    between atoms: C_5  and  C_6
REMARK    6  A    between atoms: C_9  and  C_10
REMARK    7  A    between atoms: C_19  and  O_20
REMARK    8  A    between atoms: O_20  and  C_21
REMARK    9  A    between atoms: C_21  and  C_22
REMARK                            x       y       z     vdW  Elec       q    Type
REMARK                         _______ _______ _______ _____ _____    ______ ____
ROOT
ATOM      1  C   UNL     1      44.527   7.994  11.400  0.00  0.00    +0.000 C 
ATOM      2  C   UNL     1      45.276   6.851  12.128  0.00  0.00    +0.000 C 
ATOM      3  C   UNL     1      44.197   6.108  12.961  0.00  0.00    +0.000 C 
ENDROOT
BRANCH   2   4
ATOM      4  C   UNL     1      46.417   7.387  13.019  0.00  0.00    +0.000 A 
ATOM      5  C   UNL     1      46.617   8.764  13.220  0.00  0.00    +0.000 A 
ATOM      6  C   UNL     1      47.625   9.236  14.065  0.00  0.00    +0.000 A 
ATOM      7  C   UNL     1      48.445   8.346  14.755  0.00  0.00    +0.000 A 
ATOM      8  C   UNL     1      48.260   6.976  14.600  0.00  0.00    +0.000 A 
ATOM      9  C   UNL     1      47.266   6.510  13.729  0.00  0.00    +0.000 A 
BRANCH   8  10
ATOM     10  O   UNL     1      48.964   5.993  15.242  0.00  0.00    +0.000 OA
BRANCH  10  11
ATOM     11  C   UNL     1      48.588   5.717  16.592  0.00  0.00    +0.000 C 
BRANCH  11  12
ATOM     12  C   UNL     1      48.047   4.303  16.679  0.00  0.00    +0.000 C 
ATOM     13  F   UNL     1      46.781   4.278  16.183  0.00  0.00    +0.000 F 
ENDBRANCH  11  12
ENDBRANCH  10  11
ENDBRANCH   8  10
ENDBRANCH   2   4
BRANCH   2  14
ATOM     14  C   UNL     1      45.773   5.866  11.064  0.00  0.00    +0.000 C 
ATOM     15  C   UNL     1      45.037   5.112  10.227  0.00  0.00    +0.000 C 
BRANCH  15  16
ATOM     16  C   UNL     1      45.601   4.190   9.232  0.00  0.00    +0.000 A 
ATOM     17  C   UNL     1      46.307   4.623   8.102  0.00  0.00    +0.000 A 
ATOM     18  C   UNL     1      46.830   3.694   7.205  0.00  0.00    +0.000 A 
ATOM     19  C   UNL     1      46.649   2.346   7.475  0.00  0.00    +0.000 A 
ATOM     20  N   UNL     1      45.990   1.873   8.570  0.00  0.00    +0.000 NA
ATOM     21  C   UNL     1      45.490   2.810   9.414  0.00  0.00    +0.000 A 
BRANCH  19  22
ATOM     22  C   UNL     1      47.204   1.325   6.531  0.00  0.00    +0.000 C 
ATOM     23  N   UNL     1      48.118   1.797   5.628  0.00  0.00    +0.000 N 
ATOM     24  O   UNL     1      46.870   0.148   6.556  0.00  0.00    +0.000 OA
ATOM     25  H   UNL     1      48.368   2.779   5.638  0.00  0.00    +0.000 HD
ATOM     26  H   UNL     1      48.529   1.165   4.958  0.00  0.00    +0.000 HD
ENDBRANCH  19  22
ENDBRANCH  15  16
ENDBRANCH   2  14
TORSDOF 7
ENDMDL
MODEL 4
REMARK VINA RESULT:    -6.275      1.486      2.295
REMARK INTER + INTRA:          -9.789
REMARK INTER:                  -9.283
REMARK INTRA:                  -0.506
REMARK UNBOUND:                -0.947
REMARK  Name = 
REMARK  9 active torsions:
REMARK  status: ('A' for Active; 'I' for Inactive)
REMARK    1  A    between atoms: C_1  and  C_2
REMARK    2  A    between atoms: C_2  and  C_3
REMARK    3  A    between atoms: C_2  and  C_4
REMARK    4  A    between atoms: C_2  and  C_15
REMARK    5  A    between atoms: C_5  and  C_6
REMARK    6  A    between atoms: C_9  and  C_10
REMARK    7  A    between atoms: C_19  and  O_20
REMARK    8  A    between atoms: O_20  and  C_21
REMARK    9  A    between atoms: C_21  and  C_22
REMARK                            x       y       z     vdW  Elec       q    Type
REMARK                         _______ _______ _______ _____ _____    ______ ____
ROOT
ATOM      1  C   UNL     1      43.556   2.817  12.407  0.00  0.00    +0.000 C 
ATOM      2  C   UNL     1      44.070   4.190  11.910  0.00  0.00    +0.000 C 
ATOM      3  C   UNL     1      42.827   5.120  11.889  0.00  0.00    +0.000 C 
ENDROOT
BRANCH   2   4
ATOM      4  C   UNL     1      44.730   4.087  10.518  0.00  0.00    +0.000 A 
ATOM      5  C   UNL     1      45.290   5.206   9.877  0.00  0.00    +0.000 A 
ATOM      6  C   UNL     1      45.925   5.093   8.638  0.00  0.00    +0.000 A 
ATOM      7  C   UNL     1      46.043   3.852   8.015  0.00  0.00    +0.000 A 
ATOM      8  C   UNL     1      45.524   2.718   8.631  0.00  0.00    +0.000 A 
ATOM      9  C   UNL     1      44.863   2.845   9.860  0.00  0.00    +0.000 A 
BRANCH   8  10
ATOM     10  O   UNL     1      45.603   1.438   8.153  0.00  0.00    +0.000 OA
BRANCH  10  11
ATOM     11  C   UNL     1      46.896   0.985   7.752  0.00  0.00    +0.000 C 
BRANCH  11  12
ATOM     12  C   UNL     1      47.196   1.504   6.358  0.00  0.00    +0.000 C 
ATOM     13  F   UNL     1      48.379   2.172   6.376  0.00  0.00    +0.000 F 
ENDBRANCH  11  12
ENDBRANCH  10  11
ENDBRANCH   8  10
ENDBRANCH   2   4
BRANCH   2  14
ATOM     14  C   UNL     1      45.023   4.745  12.974  0.00  0.00    +0.000 C 
ATOM     15  C   UNL     1      46.267   4.327  13.271  0.00  0.00    +0.000 C 
BRANCH  15  16
ATOM     16  C   UNL     1      47.113   4.923  14.314  0.00  0.00    +0.000 A 
ATOM     17  C   UNL     1      47.817   6.120  14.136  0.00  0.00    +0.000 A 
ATOM     18  C   UNL     1      48.590   6.639  15.173  0.00  0.00    +0.000 A 
ATOM     19  C   UNL     1      48.623   5.950  16.375  0.00  0.00    +0.000 A 
ATOM     20  N   UNL     1      47.939   4.794  16.607  0.00  0.00    +0.000 NA
ATOM     21  C   UNL     1      47.205   4.319  15.570  0.00  0.00    +0.000 A 
BRANCH  19  22
ATOM     22  C   UNL     1      49.441   6.486  17.509  0.00  0.00    +0.000 C 
ATOM     23  N   UNL     1      50.756   6.732  17.218  0.00  0.00    +0.000 N 
ATOM     24  O   UNL     1      48.976   6.692  18.622  0.00  0.00    +0.000 OA
ATOM     25  H   UNL     1      51.103   6.546  16.284  0.00  0.00    +0.000 HD
ATOM     26  H   UNL     1      51.367   7.088  17.937  0.00  0.00    +0.000 HD
ENDBRANCH  19  22
ENDBRANCH  15  16
ENDBRANCH   2  14
TORSDOF 7
ENDMDL
MODEL 5
REMARK VINA RESULT:    -6.152      1.473      2.298
REMARK INTER + INTRA:          -9.616
REMARK INTER:                  -8.775
REMARK INTRA:                  -0.841
REMARK UNBOUND:                -0.947
REMARK  Name = 
REMARK  9 active torsions:
REMARK  status: ('A' for Active; 'I' for Inactive)
REMARK    1  A    between atoms: C_1  and  C_2
REMARK    2  A    between atoms: C_2  and  C_3
REMARK    3  A    between atoms: C_2  and  C_4
REMARK    4  A    between atoms: C_2  and  C_15
REMARK    5  A    between atoms: C_5  and  C_6
REMARK    6  A    between atoms: C_9  and  C_10
REMARK    7  A    between atoms: C_19  and  O_20
REMARK    8  A    between atoms: O_20  and  C_21
REMARK    9  A    between atoms: C_21  and  C_22
REMARK                            x       y       z     vdW  Elec       q    Type
REMARK                         _______ _______ _______ _____ _____    ______ ____
ROOT
ATOM      1  C   UNL     1      46.096   8.455  12.451  0.00  0.00    +0.000 C 
ATOM      2  C   UNL     1      46.495   6.960  12.387  0.00  0.00    +0.000 C 
ATOM      3  C   UNL     1      47.698   6.890  11.408  0.00  0.00    +0.000 C 
ENDROOT
BRANCH   2   4
ATOM      4  C   UNL     1      45.324   6.071  11.919  0.00  0.00    +0.000 A 
ATOM      5  C   UNL     1      44.186   5.861  12.717  0.00  0.00    +0.000 A 
ATOM      6  C   UNL     1      43.111   5.091  12.263  0.00  0.00    +0.000 A 
ATOM      7  C   UNL     1      43.132   4.531  10.988  0.00  0.00    +0.000 A 
ATOM      8  C   UNL     1      44.230   4.738  10.160  0.00  0.00    +0.000 A 
ATOM      9  C   UNL     1      45.315   5.487  10.633  0.00  0.00    +0.000 A 
BRANCH   8  10
ATOM     10  O   UNL     1      44.365   4.282   8.877  0.00  0.00    +0.000 OA
BRANCH  10  11
ATOM     11  C   UNL     1      45.172   3.118   8.695  0.00  0.00    +0.000 C 
BRANCH  11  12
ATOM     12  C   UNL     1      46.053   3.308   7.474  0.00  0.00    +0.000 C 
ATOM     13  F   UNL     1      46.816   4.421   7.643  0.00  0.00    +0.000 F 
ENDBRANCH  11  12
ENDBRANCH  10  11
ENDBRANCH   8  10
ENDBRANCH   2   4
BRANCH   2  14
ATOM     14  C   UNL     1      47.023   6.559  13.769  0.00  0.00    +0.000 C 
ATOM     15  C   UNL     1      47.203   5.318  14.258  0.00  0.00    +0.000 C 
BRANCH  15  16
ATOM     16  C   UNL     1      47.718   5.026  15.603  0.00  0.00    +0.000 A 
ATOM     17  C   UNL     1      47.485   3.813  16.263  0.00  0.00    +0.000 A 
ATOM     18  C   UNL     1      48.016   3.594  17.533  0.00  0.00    +0.000 A 
ATOM     19  C   UNL     1      48.789   4.594  18.103  0.00  0.00    +0.000 A 
ATOM     20  N   UNL     1      49.064   5.781  17.494  0.00  0.00    +0.000 NA
ATOM     21  C   UNL     1      48.522   5.958  16.262  0.00  0.00    +0.000 A 
BRANCH  19  22
ATOM     22  C   UNL     1      49.377   4.385  19.464  0.00  0.00    +0.000 C 
ATOM     23  N   UNL     1      48.581   3.709  20.349  0.00  0.00    +0.000 N 
ATOM     24  O   UNL     1      50.490   4.788  19.774  0.00  0.00    +0.000 OA
ATOM     25  H   UNL     1      47.664   3.394  20.055  0.00  0.00    +0.000 HD
ATOM     26  H   UNL     1      48.912   3.538  21.287  0.00  0.00    +0.000 HD
ENDBRANCH  19  22
ENDBRANCH  15  16
ENDBRANCH   2  14
TORSDOF 7
ENDMDL
MODEL 6
REMARK VINA RESULT:    -6.136      4.111      5.122
REMARK INTER + INTRA:          -9.594
REMARK INTER:                  -8.751
REMARK INTRA:                  -0.843
REMARK UNBOUND:                -0.947
REMARK  Name = 
REMARK  9 active torsions:
REMARK  status: ('A' for Active; 'I' for Inactive)
REMARK    1  A    between atoms: C_1  and  C_2
REMARK    2  A    between atoms: C_2  and  C_3
REMARK    3  A    between atoms: C_2  and  C_4
REMARK    4  A    between atoms: C_2  and  C_15
REMARK    5  A    between atoms: C_5  and  C_6
REMARK    6  A    between atoms: C_9  and  C_10
REMARK    7  A    between atoms: C_19  and  O_20
REMARK    8  A    between atoms: O_20  and  C_21
REMARK    9  A    between atoms: C_21  and  C_22
REMARK                            x       y       z     vdW  Elec       q    Type
REMARK                         _______ _______ _______ _____ _____    ______ ____
ROOT
ATOM      1  C   UNL     1      45.357   5.835  13.150  0.00  0.00    +0.000 C 
ATOM      2  C   UNL     1      45.439   6.160  11.638  0.00  0.00    +0.000 C 
ATOM      3  C   UNL     1      44.408   7.296  11.398  0.00  0.00    +0.000 C 
ENDROOT
BRANCH   2   4
ATOM      4  C   UNL     1      45.138   4.922  10.766  0.00  0.00    +0.000 A 
ATOM      5  C   UNL     1      44.389   3.836  11.253  0.00  0.00    +0.000 A 
ATOM      6  C   UNL     1      44.083   2.741  10.440  0.00  0.00    +0.000 A 
ATOM      7  C   UNL     1      44.495   2.711   9.110  0.00  0.00    +0.000 A 
ATOM      8  C   UNL     1      45.217   3.779   8.586  0.00  0.00    +0.000 A 
ATOM      9  C   UNL     1      45.543   4.860   9.415  0.00  0.00    +0.000 A 
BRANCH   8  10
ATOM     10  O   UNL     1      45.649   3.899   7.293  0.00  0.00    +0.000 OA
BRANCH  10  11
ATOM     11  C   UNL     1      47.019   3.582   7.046  0.00  0.00    +0.000 C 
BRANCH  11  12
ATOM     12  C   UNL     1      47.120   2.148   6.562  0.00  0.00    +0.000 C 
ATOM     13  F   UNL     1      48.046   1.489   7.308  0.00  0.00    +0.000 F 
ENDBRANCH  11  12
ENDBRANCH  10  11
ENDBRANCH   8  10
ENDBRANCH   2   4
BRANCH   2  14
ATOM     14  C   UNL     1      46.825   6.751  11.362  0.00  0.00    +0.000 C 
ATOM     15  C   UNL     1      47.441   7.757  12.012  0.00  0.00    +0.000 C 
BRANCH  15  16
ATOM     16  C   UNL     1      48.779   8.262  11.676  0.00  0.00    +0.000 A 
ATOM     17  C   UNL     1      49.885   7.424  11.485  0.00  0.00    +0.000 A 
ATOM     18  C   UNL     1      51.125   7.968  11.153  0.00  0.00    +0.000 A 
ATOM     19  C   UNL     1      51.220   9.342  11.002  0.00  0.00    +0.000 A 
ATOM     20  N   UNL     1      50.171  10.198  11.155  0.00  0.00    +0.000 NA
ATOM     21  C   UNL     1      48.983   9.629  11.485  0.00  0.00    +0.000 A 
BRANCH  19  22
ATOM     22  C   UNL     1      52.538   9.954  10.641  0.00  0.00    +0.000 C 
ATOM     23  N   UNL     1      53.184  10.599  11.661  0.00  0.00    +0.000 N 
ATOM     24  O   UNL     1      53.013   9.889   9.514  0.00  0.00    +0.000 OA
ATOM     25  H   UNL     1      52.757  10.633  12.580  0.00  0.00    +0.000 HD
ATOM     26  H   UNL     1      54.075  11.040  11.487  0.00  0.00    +0.000 HD
ENDBRANCH  19  22
ENDBRANCH  15  16
ENDBRANCH   2  14
TORSDOF 7
ENDMDL
MODEL 7
REMARK VINA RESULT:    -5.784      3.595      8.369
REMARK INTER + INTRA:          -9.098
REMARK INTER:                  -8.127
REMARK INTRA:                  -0.971
REMARK UNBOUND:                -0.947
REMARK  Name = 
REMARK  9 active torsions:
REMARK  status: ('A' for Active; 'I' for Inactive)
REMARK    1  A    between atoms: C_1  and  C_2
REMARK    2  A    between atoms: C_2  and  C_3
REMARK    3  A    between atoms: C_2  and  C_4
REMARK    4  A    between atoms: C_2  and  C_15
REMARK    5  A    between atoms: C_5  and  C_6
REMARK    6  A    between atoms: C_9  and  C_10
REMARK    7  A    between atoms: C_19  and  O_20
REMARK    8  A    between atoms: O_20  and  C_21
REMARK    9  A    between atoms: C_21  and  C_22
REMARK                            x       y       z     vdW  Elec       q    Type
REMARK                         _______ _______ _______ _____ _____    ______ ____
ROOT
ATOM      1  C   UNL     1      50.325   7.942  13.988  0.00  0.00    +0.000 C 
ATOM      2  C   UNL     1      49.224   7.554  15.005  0.00  0.00    +0.000 C 
ATOM      3  C   UNL     1      48.431   8.860  15.282  0.00  0.00    +0.000 C 
ENDROOT
BRANCH   2   4
ATOM      4  C   UNL     1      49.821   6.961  16.300  0.00  0.00    +0.000 A 
ATOM      5  C   UNL     1      50.824   7.625  17.026  0.00  0.00    +0.000 A 
ATOM      6  C   UNL     1      51.324   7.102  18.222  0.00  0.00    +0.000 A 
ATOM      7  C   UNL     1      50.816   5.912  18.739  0.00  0.00    +0.000 A 
ATOM      8  C   UNL     1      49.805   5.240  18.060  0.00  0.00    +0.000 A 
ATOM      9  C   UNL     1      49.329   5.756  16.848  0.00  0.00    +0.000 A 
BRANCH   8  10
ATOM     10  O   UNL     1      49.191   4.087  18.472  0.00  0.00    +0.000 OA
BRANCH  10  11
ATOM     11  C   UNL     1      48.813   3.165  17.450  0.00  0.00    +0.000 C 
BRANCH  11  12
ATOM     12  C   UNL     1      47.315   2.935  17.515  0.00  0.00    +0.000 C 
ATOM     13  F   UNL     1      46.694   3.801  16.671  0.00  0.00    +0.000 F 
ENDBRANCH  11  12
ENDBRANCH  10  11
ENDBRANCH   8  10
ENDBRANCH   2   4
BRANCH   2  14
ATOM     14  C   UNL     1      48.261   6.589  14.304  0.00  0.00    +0.000 C 
ATOM     15  C   UNL     1      47.402   6.858  13.304  0.00  0.00    +0.000 C 
BRANCH  15  16
ATOM     16  C   UNL     1      46.511   5.864  12.689  0.00  0.00    +0.000 A 
ATOM     17  C   UNL     1      45.869   6.070  11.461  0.00  0.00    +0.000 A 
ATOM     18  C   UNL     1      45.048   5.079  10.927  0.00  0.00    +0.000 A 
ATOM     19  C   UNL     1      44.908   3.893  11.629  0.00  0.00    +0.000 A 
ATOM     20  N   UNL     1      45.528   3.634  12.814  0.00  0.00    +0.000 NA
ATOM     21  C   UNL     1      46.312   4.627  13.304  0.00  0.00    +0.000 A 
BRANCH  19  22
ATOM     22  C   UNL     1      44.036   2.808  11.076  0.00  0.00    +0.000 C 
ATOM     23  N   UNL     1      44.517   2.184   9.956  0.00  0.00    +0.000 N 
ATOM     24  O   UNL     1      42.967   2.494  11.582  0.00  0.00    +0.000 OA
ATOM     25  H   UNL     1      45.406   2.473   9.566  0.00  0.00    +0.000 HD
ATOM     26  H   UNL     1      43.978   1.447   9.527  0.00  0.00    +0.000 HD
ENDBRANCH  19  22
ENDBRANCH  15  16
ENDBRANCH   2  14
TORSDOF 7
ENDMDL
MODEL 8
REMARK VINA RESULT:    -5.677      4.061      8.088
REMARK INTER + INTRA:          -8.946
REMARK INTER:                  -8.101
REMARK INTRA:                  -0.845
REMARK UNBOUND:                -0.947
REMARK  Name = 
REMARK  9 active torsions:
REMARK  status: ('A' for Active; 'I' for Inactive)
REMARK    1  A    between atoms: C_1  and  C_2
REMARK    2  A    between atoms: C_2  and  C_3
REMARK    3  A    between atoms: C_2  and  C_4
REMARK    4  A    between atoms: C_2  and  C_15
REMARK    5  A    between atoms: C_5  and  C_6
REMARK    6  A    between atoms: C_9  and  C_10
REMARK    7  A    between atoms: C_19  and  O_20
REMARK    8  A    between atoms: O_20  and  C_21
REMARK    9  A    between atoms: C_21  and  C_22
REMARK                            x       y       z     vdW  Elec       q    Type
REMARK                         _______ _______ _______ _____ _____    ______ ____
ROOT
ATOM      1  C   UNL     1      50.624   8.402  11.368  0.00  0.00    +0.000 C 
ATOM      2  C   UNL     1      49.366   8.503  12.266  0.00  0.00    +0.000 C 
ATOM      3  C   UNL     1      48.661   9.823  11.850  0.00  0.00    +0.000 C 
ENDROOT
BRANCH   2   4
ATOM      4  C   UNL     1      49.728   8.495  13.766  0.00  0.00    +0.000 A 
ATOM      5  C   UNL     1      49.857   9.685  14.504  0.00  0.00    +0.000 A 
ATOM      6  C   UNL     1      50.139   9.664  15.873  0.00  0.00    +0.000 A 
ATOM      7  C   UNL     1      50.276   8.453  16.548  0.00  0.00    +0.000 A 
ATOM      8  C   UNL     1      50.130   7.256  15.855  0.00  0.00    +0.000 A 
ATOM      9  C   UNL     1      49.875   7.285  14.479  0.00  0.00    +0.000 A 
BRANCH   8  10
ATOM     10  O   UNL     1      50.199   6.001  16.399  0.00  0.00    +0.000 OA
BRANCH  10  11
ATOM     11  C   UNL     1      48.956   5.366  16.697  0.00  0.00    +0.000 C 
BRANCH  11  12
ATOM     12  C   UNL     1      49.210   4.178  17.606  0.00  0.00    +0.000 C 
ATOM     13  F   UNL     1      48.700   3.058  17.029  0.00  0.00    +0.000 F 
ENDBRANCH  11  12
ENDBRANCH  10  11
ENDBRANCH   8  10
ENDBRANCH   2   4
BRANCH   2  14
ATOM     14  C   UNL     1      48.425   7.356  11.880  0.00  0.00    +0.000 C 
ATOM     15  C   UNL     1      47.124   7.213  12.191  0.00  0.00    +0.000 C 
BRANCH  15  16
ATOM     16  C   UNL     1      46.294   6.074  11.776  0.00  0.00    +0.000 A 
ATOM     17  C   UNL     1      45.848   5.893  10.461  0.00  0.00    +0.000 A 
ATOM     18  C   UNL     1      45.076   4.780  10.131  0.00  0.00    +0.000 A 
ATOM     19  C   UNL     1      44.786   3.863  11.128  0.00  0.00    +0.000 A 
ATOM     20  N   UNL     1      45.215   3.980  12.416  0.00  0.00    +0.000 NA
ATOM     21  C   UNL     1      45.957   5.081  12.698  0.00  0.00    +0.000 A 
BRANCH  19  22
ATOM     22  C   UNL     1      43.963   2.655  10.802  0.00  0.00    +0.000 C 
ATOM     23  N   UNL     1      44.361   1.957   9.693  0.00  0.00    +0.000 N 
ATOM     24  O   UNL     1      43.000   2.308  11.473  0.00  0.00    +0.000 OA
ATOM     25  H   UNL     1      45.163   2.277   9.163  0.00  0.00    +0.000 HD
ATOM     26  H   UNL     1      43.848   1.136   9.411  0.00  0.00    +0.000 HD
ENDBRANCH  19  22
ENDBRANCH  15  16
ENDBRANCH   2  14
TORSDOF 7
ENDMDL
MODEL 9
REMARK VINA RESULT:    -5.477      3.887      6.459
REMARK INTER + INTRA:          -8.665
REMARK INTER:                  -7.908
REMARK INTRA:                  -0.757
REMARK UNBOUND:                -0.947
REMARK  Name = 
REMARK  9 active torsions:
REMARK  status: ('A' for Active; 'I' for Inactive)
REMARK    1  A    between atoms: C_1  and  C_2
REMARK    2  A    between atoms: C_2  and  C_3
REMARK    3  A    between atoms: C_2  and  C_4
REMARK    4  A    between atoms: C_2  and  C_15
REMARK    5  A    between atoms: C_5  and  C_6
REMARK    6  A    between atoms: C_9  and  C_10
REMARK    7  A    between atoms: C_19  and  O_20
REMARK    8  A    between atoms: O_20  and  C_21
REMARK    9  A    between atoms: C_21  and  C_22
REMARK                            x       y       z     vdW  Elec       q    Type
REMARK                         _______ _______ _______ _____ _____    ______ ____
ROOT
ATOM      1  C   UNL     1      47.104   4.966  18.125  0.00  0.00    +0.000 C 
ATOM      2  C   UNL     1      48.316   5.255  17.207  0.00  0.00    +0.000 C 
ATOM      3  C   UNL     1      48.975   6.542  17.776  0.00  0.00    +0.000 C 
ENDROOT
BRANCH   2   4
ATOM      4  C   UNL     1      47.893   5.434  15.733  0.00  0.00    +0.000 A 
ATOM      5  C   UNL     1      48.406   6.469  14.933  0.00  0.00    +0.000 A 
ATOM      6  C   UNL     1      48.051   6.593  13.588  0.00  0.00    +0.000 A 
ATOM      7  C   UNL     1      47.191   5.671  12.996  0.00  0.00    +0.000 A 
ATOM      8  C   UNL     1      46.682   4.618  13.750  0.00  0.00    +0.000 A 
ATOM      9  C   UNL     1      47.021   4.517  15.105  0.00  0.00    +0.000 A 
BRANCH   8  10
ATOM     10  O   UNL     1      45.862   3.623  13.289  0.00  0.00    +0.000 OA
BRANCH  10  11
ATOM     11  C   UNL     1      44.591   4.029  12.781  0.00  0.00    +0.000 C 
BRANCH  11  12
ATOM     12  C   UNL     1      44.302   3.269  11.500  0.00  0.00    +0.000 C 
ATOM     13  F   UNL     1      43.165   2.541  11.660  0.00  0.00    +0.000 F 
ENDBRANCH  11  12
ENDBRANCH  10  11
ENDBRANCH   8  10
ENDBRANCH   2   4
BRANCH   2  14
ATOM     14  C   UNL     1      49.327   4.118  17.396  0.00  0.00    +0.000 C 
ATOM     15  C   UNL     1      50.666   4.208  17.493  0.00  0.00    +0.000 C 
BRANCH  15  16
ATOM     16  C   UNL     1      51.562   3.057  17.675  0.00  0.00    +0.000 A 
ATOM     17  C   UNL     1      52.858   3.173  18.193  0.00  0.00    +0.000 A 
ATOM     18  C   UNL     1      53.650   2.037  18.354  0.00  0.00    +0.000 A 
ATOM     19  C   UNL     1      53.113   0.807  18.009  0.00  0.00    +0.000 A 
ATOM     20  N   UNL     1      51.851   0.639  17.523  0.00  0.00    +0.000 NA
ATOM     21  C   UNL     1      51.115   1.769  17.374  0.00  0.00    +0.000 A 
BRANCH  19  22
ATOM     22  C   UNL     1      53.939  -0.430  18.176  0.00  0.00    +0.000 C 
ATOM     23  N   UNL     1      54.286  -1.064  17.013  0.00  0.00    +0.000 N 
ATOM     24  O   UNL     1      54.284  -0.854  19.271  0.00  0.00    +0.000 OA
ATOM     25  H   UNL     1      53.979  -0.683  16.126  0.00  0.00    +0.000 HD
ATOM     26  H   UNL     1      54.838  -1.908  17.052  0.00  0.00    +0.000 HD
ENDBRANCH  19  22
ENDBRANCH  15  16
ENDBRANCH   2  14
TORSDOF 7
ENDMDL
