MODEL 1
REMARK VINA RESULT:    -6.957      0.000      0.000
REMARK INTER + INTRA:          -8.654
REMARK INTER:                  -8.177
REMARK INTRA:                  -0.477
REMARK UNBOUND:                -0.477
REMARK  Name = 
REMARK  3 active torsions:
REMARK  status: ('A' for Active; 'I' for Inactive)
REMARK    1  A    between atoms: C_2  and  C_3
REMARK    2  A    between atoms: N_5  and  C_6
REMARK    3  A    between atoms: C_6  and  C_7
REMARK                            x       y       z     vdW  Elec       q    Type
REMARK                         _______ _______ _______ _____ _____    ______ ____
ROOT
ATOM      1  C   UNL     1      45.987   5.934  11.107  0.00  0.00    +0.000 A 
ATOM      2  C   UNL     1      45.968   5.685   9.747  0.00  0.00    +0.000 A 
ATOM      3  N   UNL     1      45.104   4.638   9.523  0.00  0.00    +0.000 N 
ATOM      4  C   UNL     1      44.523   4.257  10.708  0.00  0.00    +0.000 A 
ATOM      5  N   UNL     1      43.598   3.285  10.842  0.00  0.00    +0.000 NA
ATOM      6  C   UNL     1      43.196   3.106  12.122  0.00  0.00    +0.000 A 
ATOM      7  C   UNL     1      43.659   3.811  13.224  0.00  0.00    +0.000 A 
ATOM      8  C   UNL     1      44.620   4.804  13.036  0.00  0.00    +0.000 A 
ATOM      9  C   UNL     1      45.067   5.042  11.724  0.00  0.00    +0.000 A 
ENDROOT
BRANCH   1  11
ATOM     10  N   UNL     1      47.439   7.727  12.284  0.00  0.00    +0.000 NA
ATOM     11  C   UNL     1      46.786   6.926  11.758  0.00  0.00    +0.000 C 
ENDBRANCH   1  11
BRANCH   3  12
ATOM     12  C   UNL     1      44.823   4.036   8.226  0.00  0.00    +0.000 C 
BRANCH  12  13
ATOM     13  C   UNL     1      45.821   2.973   7.896  0.00  0.00    +0.000 A 
ATOM     14  C   UNL     1      46.896   3.203   7.061  0.00  0.00    +0.000 A 
ATOM     15  N   UNL     1      47.781   2.251   6.699  0.00  0.00    +0.000 NA
ATOM     16  C   UNL     1      47.555   1.027   7.195  0.00  0.00    +0.000 A 
ATOM     17  N   UNL     1      46.559   0.685   8.027  0.00  0.00    +0.000 NA
ATOM     18  C   UNL     1      45.710   1.677   8.359  0.00  0.00    +0.000 A 
ENDBRANCH  12  13
ENDBRANCH   3  12
TORSDOF 3
ENDMDL
MODEL 2
REMARK VINA RESULT:    -6.850      1.997      3.097
REMARK INTER + INTRA:          -8.529
REMARK INTER:                  -8.068
REMARK INTRA:                  -0.461
REMARK UNBOUND:                -0.477
REMARK  Name = 
REMARK  3 active torsions:
REMARK  status: ('A' for Active; 'I' for Inactive)
REMARK    1  A    between atoms: C_2  and  C_3
REMARK    2  A    between atoms: N_5  and  C_6
REMARK    3  A    between atoms: C_6  and  C_7
REMARK                            x       y       z     vdW  Elec       q    Type
REMARK                         _______ _______ _______ _____ _____    ______ ____
ROOT
ATOM      1  C   UNL     1      46.180   4.144  13.237  0.00  0.00    +0.000 A 
ATOM      2  C   UNL     1      45.611   3.272  12.328  0.00  0.00    +0.000 A 
ATOM      3  N   UNL     1      44.921   4.022  11.404  0.00  0.00    +0.000 N 
ATOM      4  C   UNL     1      45.092   5.358  11.670  0.00  0.00    +0.000 A 
ATOM      5  N   UNL     1      44.584   6.368  10.937  0.00  0.00    +0.000 NA
ATOM      6  C   UNL     1      44.898   7.591  11.425  0.00  0.00    +0.000 A 
ATOM      7  C   UNL     1      45.652   7.842  12.563  0.00  0.00    +0.000 A 
ATOM      8  C   UNL     1      46.153   6.763  13.292  0.00  0.00    +0.000 A 
ATOM      9  C   UNL     1      45.867   5.468  12.825  0.00  0.00    +0.000 A 
ENDROOT
BRANCH   1  11
ATOM     10  N   UNL     1      47.582   3.447  15.301  0.00  0.00    +0.000 NA
ATOM     11  C   UNL     1      46.955   3.762  14.378  0.00  0.00    +0.000 C 
ENDBRANCH   1  11
BRANCH   3  12
ATOM     12  C   UNL     1      44.144   3.488  10.291  0.00  0.00    +0.000 C 
BRANCH  12  13
ATOM     13  C   UNL     1      45.021   3.176   9.122  0.00  0.00    +0.000 A 
ATOM     14  C   UNL     1      45.484   1.900   8.864  0.00  0.00    +0.000 A 
ATOM     15  N   UNL     1      46.321   1.597   7.852  0.00  0.00    +0.000 NA
ATOM     16  C   UNL     1      46.707   2.627   7.086  0.00  0.00    +0.000 A 
ATOM     17  N   UNL     1      46.314   3.902   7.224  0.00  0.00    +0.000 NA
ATOM     18  C   UNL     1      45.472   4.145   8.248  0.00  0.00    +0.000 A 
ENDBRANCH  12  13
ENDBRANCH   3  12
TORSDOF 3
ENDMDL
MODEL 3
REMARK VINA RESULT:    -6.481      1.882      2.549
REMARK INTER + INTRA:          -8.096
REMARK INTER:                  -7.694
REMARK INTRA:                  -0.402
REMARK UNBOUND:                -0.477
REMARK  Name = 
REMARK  3 active torsions:
REMARK  status: ('A' for Active; 'I' for Inactive)
REMARK    1  A    between atoms: C_2  and  C_3
REMARK    2  A    between atoms: N_5  and  C_6
REMARK    3  A    between atoms: C_6  and  C_7
REMARK                            x       y       z     vdW  Elec       q    Type
REMARK                         _______ _______ _______ _____ _____    ______ ____
ROOT
ATOM      1  C   UNL     1      45.138   6.770  12.179  0.00  0.00    +0.000 A 
ATOM      2  C   UNL     1      44.315   6.174  11.241  0.00  0.00    +0.000 A 
ATOM      3  N   UNL     1      44.511   4.815  11.313  0.00  0.00    +0.000 N 
ATOM      4  C   UNL     1      45.397   4.528  12.322  0.00  0.00    +0.000 A 
ATOM      5  N   UNL     1      45.783   3.290  12.689  0.00  0.00    +0.000 NA
ATOM      6  C   UNL     1      46.672   3.289  13.710  0.00  0.00    +0.000 A 
ATOM      7  C   UNL     1      47.179   4.414  14.345  0.00  0.00    +0.000 A 
ATOM      8  C   UNL     1      46.754   5.675  13.926  0.00  0.00    +0.000 A 
ATOM      9  C   UNL     1      45.820   5.736  12.877  0.00  0.00    +0.000 A 
ENDROOT
BRANCH   1  11
ATOM     10  N   UNL     1      45.351   9.319  12.586  0.00  0.00    +0.000 NA
ATOM     11  C   UNL     1      45.258   8.178  12.402  0.00  0.00    +0.000 C 
ENDBRANCH   1  11
BRANCH   3  12
ATOM     12  C   UNL     1      43.862   3.820  10.467  0.00  0.00    +0.000 C 
BRANCH  12  13
ATOM     13  C   UNL     1      44.764   3.384   9.358  0.00  0.00    +0.000 A 
ATOM     14  C   UNL     1      45.186   2.076   9.220  0.00  0.00    +0.000 A 
ATOM     15  N   UNL     1      46.044   1.662   8.265  0.00  0.00    +0.000 NA
ATOM     16  C   UNL     1      46.494   2.613   7.434  0.00  0.00    +0.000 A 
ATOM     17  N   UNL     1      46.145   3.908   7.456  0.00  0.00    +0.000 NA
ATOM     18  C   UNL     1      45.281   4.263   8.427  0.00  0.00    +0.000 A 
ENDBRANCH  12  13
ENDBRANCH   3  12
TORSDOF 3
ENDMDL
MODEL 4
REMARK VINA RESULT:    -6.053      2.329      4.218
REMARK INTER + INTRA:          -7.592
REMARK INTER:                  -7.121
REMARK INTRA:                  -0.471
REMARK UNBOUND:                -0.477
REMARK  Name = 
REMARK  3 active torsions:
REMARK  status: ('A' for Active; 'I' for Inactive)
REMARK    1  A    between atoms: C_2  and  C_3
REMARK    2  A    between atoms: N_5  and  C_6
REMARK    3  A    between atoms: C_6  and  C_7
REMARK                            x       y       z     vdW  Elec       q    Type
REMARK                         _______ _______ _______ _____ _____    ______ ____
ROOT
ATOM      1  C   UNL     1      46.737   4.775  14.185  0.00  0.00    +0.000 A 
ATOM      2  C   UNL     1      45.641   4.507  13.386  0.00  0.00    +0.000 A 
ATOM      3  N   UNL     1      45.585   5.477  12.412  0.00  0.00    +0.000 N 
ATOM      4  C   UNL     1      46.660   6.323  12.537  0.00  0.00    +0.000 A 
ATOM      5  N   UNL     1      46.931   7.360  11.722  0.00  0.00    +0.000 NA
ATOM      6  C   UNL     1      48.049   8.037  12.074  0.00  0.00    +0.000 A 
ATOM      7  C   UNL     1      48.866   7.745  13.157  0.00  0.00    +0.000 A 
ATOM      8  C   UNL     1      48.541   6.664  13.976  0.00  0.00    +0.000 A 
ATOM      9  C   UNL     1      47.395   5.917  13.651  0.00  0.00    +0.000 A 
ENDROOT
BRANCH   1  11
ATOM     10  N   UNL     1      47.448   3.411  16.269  0.00  0.00    +0.000 NA
ATOM     11  C   UNL     1      47.131   4.019  15.334  0.00  0.00    +0.000 C 
ENDBRANCH   1  11
BRANCH   3  12
ATOM     12  C   UNL     1      44.557   5.584  11.383  0.00  0.00    +0.000 C 
BRANCH  12  13
ATOM     13  C   UNL     1      44.871   4.707  10.214  0.00  0.00    +0.000 A 
ATOM     14  C   UNL     1      45.673   5.126   9.171  0.00  0.00    +0.000 A 
ATOM     15  N   UNL     1      45.928   4.381   8.076  0.00  0.00    +0.000 NA
ATOM     16  C   UNL     1      45.339   3.177   8.039  0.00  0.00    +0.000 A 
ATOM     17  N   UNL     1      44.556   2.654   8.995  0.00  0.00    +0.000 NA
ATOM     18  C   UNL     1      44.341   3.440  10.068  0.00  0.00    +0.000 A 
ENDBRANCH  12  13
ENDBRANCH   3  12
TORSDOF 3
ENDMDL
MODEL 5
REMARK VINA RESULT:    -5.611      2.117      3.971
REMARK INTER + INTRA:          -7.073
REMARK INTER:                  -6.810
REMARK INTRA:                  -0.262
REMARK UNBOUND:                -0.477
REMARK  Name = 
REMARK  3 active torsions:
REMARK  status: ('A' for Active; 'I' for Inactive)
REMARK    1  A    between atoms: C_2  and  C_3
REMARK    2  A    between atoms: N_5  and  C_6
REMARK    3  A    between atoms: C_6  and  C_7
REMARK                            x       y       z     vdW  Elec       q    Type
REMARK                         _______ _______ _______ _____ _____    ______ ____
ROOT
ATOM      1  C   UNL     1      47.287   6.840  12.952  0.00  0.00    +0.000 A 
ATOM      2  C   UNL     1      46.626   5.671  12.622  0.00  0.00    +0.000 A 
ATOM      3  N   UNL     1      45.445   6.017  12.007  0.00  0.00    +0.000 N 
ATOM      4  C   UNL     1      45.370   7.383  11.883  0.00  0.00    +0.000 A 
ATOM      5  N   UNL     1      44.362   8.055  11.292  0.00  0.00    +0.000 NA
ATOM      6  C   UNL     1      44.533   9.398  11.312  0.00  0.00    +0.000 A 
ATOM      7  C   UNL     1      45.609  10.070  11.875  0.00  0.00    +0.000 A 
ATOM      8  C   UNL     1      46.626   9.331  12.480  0.00  0.00    +0.000 A 
ATOM      9  C   UNL     1      46.506   7.930  12.480  0.00  0.00    +0.000 A 
ENDROOT
BRANCH   1  11
ATOM     10  N   UNL     1      49.556   6.986  14.194  0.00  0.00    +0.000 NA
ATOM     11  C   UNL     1      48.542   6.918  13.636  0.00  0.00    +0.000 C 
ENDBRANCH   1  11
BRANCH   3  12
ATOM     12  C   UNL     1      44.432   5.081  11.534  0.00  0.00    +0.000 C 
BRANCH  12  13
ATOM     13  C   UNL     1      44.796   4.525  10.195  0.00  0.00    +0.000 A 
ATOM     14  C   UNL     1      44.376   3.279   9.774  0.00  0.00    +0.000 A 
ATOM     15  N   UNL     1      44.733   2.726   8.597  0.00  0.00    +0.000 NA
ATOM     16  C   UNL     1      45.552   3.461   7.832  0.00  0.00    +0.000 A 
ATOM     17  N   UNL     1      46.011   4.687   8.122  0.00  0.00    +0.000 NA
ATOM     18  C   UNL     1      45.617   5.192   9.308  0.00  0.00    +0.000 A 
ENDBRANCH  12  13
ENDBRANCH   3  12
TORSDOF 3
ENDMDL
MODEL 6
REMARK VINA RESULT:    -5.402      2.204      3.190
REMARK INTER + INTRA:          -6.826
REMARK INTER:                  -6.674
REMARK INTRA:                  -0.153
REMARK UNBOUND:                -0.477
REMARK  Name = 
REMARK  3 active torsions:
REMARK  status: ('A' for Active; 'I' for Inactive)
REMARK    1  A    between atoms: C_2  and  C_3
REMARK    2  A    between atoms: N_5  and  C_6
REMARK    3  A    between atoms: C_6  and  C_7
REMARK                            x       y       z     vdW  Elec       q    Type
REMARK                         _______ _______ _______ _____ _____    ______ ____
ROOT
ATOM      1  C   UNL     1      47.202   7.308  12.267  0.00  0.00    +0.000 A 
ATOM      2  C   UNL     1      46.148   6.887  11.478  0.00  0.00    +0.000 A 
ATOM      3  N   UNL     1      45.652   5.727  12.025  0.00  0.00    +0.000 N 
ATOM      4  C   UNL     1      46.328   5.435  13.184  0.00  0.00    +0.000 A 
ATOM      5  N   UNL     1      46.070   4.387  13.991  0.00  0.00    +0.000 NA
ATOM      6  C   UNL     1      46.891   4.327  15.066  0.00  0.00    +0.000 A 
ATOM      7  C   UNL     1      47.916   5.217  15.354  0.00  0.00    +0.000 A 
ATOM      8  C   UNL     1      48.149   6.283  14.485  0.00  0.00    +0.000 A 
ATOM      9  C   UNL     1      47.319   6.402  13.357  0.00  0.00    +0.000 A 
ENDROOT
BRANCH   1  11
ATOM     10  N   UNL     1      48.663   9.401  11.826  0.00  0.00    +0.000 NA
ATOM     11  C   UNL     1      48.012   8.463  12.023  0.00  0.00    +0.000 C 
ENDBRANCH   1  11
BRANCH   3  12
ATOM     12  C   UNL     1      44.557   4.935  11.478  0.00  0.00    +0.000 C 
BRANCH  12  13
ATOM     13  C   UNL     1      44.991   4.179  10.263  0.00  0.00    +0.000 A 
ATOM     14  C   UNL     1      45.445   4.812   9.123  0.00  0.00    +0.000 A 
ATOM     15  N   UNL     1      45.790   4.162   7.992  0.00  0.00    +0.000 NA
ATOM     16  C   UNL     1      45.658   2.829   8.022  0.00  0.00    +0.000 A 
ATOM     17  N   UNL     1      45.246   2.102   9.072  0.00  0.00    +0.000 NA
ATOM     18  C   UNL     1      44.921   2.803  10.176  0.00  0.00    +0.000 A 
ENDBRANCH  12  13
ENDBRANCH   3  12
TORSDOF 3
ENDMDL
MODEL 7
REMARK VINA RESULT:    -5.363      3.348      5.485
REMARK INTER + INTRA:          -6.780
REMARK INTER:                  -6.300
REMARK INTRA:                  -0.481
REMARK UNBOUND:                -0.477
REMARK  Name = 
REMARK  3 active torsions:
REMARK  status: ('A' for Active; 'I' for Inactive)
REMARK    1  A    between atoms: C_2  and  C_3
REMARK    2  A    between atoms: N_5  and  C_6
REMARK    3  A    between atoms: C_6  and  C_7
REMARK                            x       y       z     vdW  Elec       q    Type
REMARK                         _______ _______ _______ _____ _____    ______ ____
ROOT
ATOM      1  C   UNL     1      48.242   6.543  14.019  0.00  0.00    +0.000 A 
ATOM      2  C   UNL     1      47.515   5.868  13.057  0.00  0.00    +0.000 A 
ATOM      3  N   UNL     1      46.984   4.743  13.644  0.00  0.00    +0.000 N 
ATOM      4  C   UNL     1      47.307   4.721  14.979  0.00  0.00    +0.000 A 
ATOM      5  N   UNL     1      46.914   3.778  15.858  0.00  0.00    +0.000 NA
ATOM      6  C   UNL     1      47.379   3.991  17.111  0.00  0.00    +0.000 A 
ATOM      7  C   UNL     1      48.187   5.047  17.508  0.00  0.00    +0.000 A 
ATOM      8  C   UNL     1      48.572   5.996  16.560  0.00  0.00    +0.000 A 
ATOM      9  C   UNL     1      48.109   5.831  15.243  0.00  0.00    +0.000 A 
ENDROOT
BRANCH   1  11
ATOM     10  N   UNL     1      49.584   8.725  13.635  0.00  0.00    +0.000 NA
ATOM     11  C   UNL     1      48.981   7.750  13.806  0.00  0.00    +0.000 C 
ENDBRANCH   1  11
BRANCH   3  12
ATOM     12  C   UNL     1      46.178   3.734  12.966  0.00  0.00    +0.000 C 
BRANCH  12  13
ATOM     13  C   UNL     1      44.919   4.327  12.420  0.00  0.00    +0.000 A 
ATOM     14  C   UNL     1      43.904   4.785  13.236  0.00  0.00    +0.000 A 
ATOM     15  N   UNL     1      42.734   5.272  12.775  0.00  0.00    +0.000 NA
ATOM     16  C   UNL     1      42.591   5.282  11.443  0.00  0.00    +0.000 A 
ATOM     17  N   UNL     1      43.508   4.882  10.549  0.00  0.00    +0.000 NA
ATOM     18  C   UNL     1      44.660   4.411  11.067  0.00  0.00    +0.000 A 
ENDBRANCH  12  13
ENDBRANCH   3  12
TORSDOF 3
ENDMDL
MODEL 8
REMARK VINA RESULT:    -5.261      4.329      6.518
REMARK INTER + INTRA:          -6.662
REMARK INTER:                  -6.244
REMARK INTRA:                  -0.418
REMARK UNBOUND:                -0.477
REMARK  Name = 
REMARK  3 active torsions:
REMARK  status: ('A' for Active; 'I' for Inactive)
REMARK    1  A    between atoms: C_2  and  C_3
REMARK    2  A    between atoms: N_5  and  C_6
REMARK    3  A    between atoms: C_6  and  C_7
REMARK                            x       y       z     vdW  Elec       q    Type
REMARK                         _______ _______ _______ _____ _____    ______ ____
ROOT
ATOM      1  C   UNL     1      47.942   6.326  13.241  0.00  0.00    +0.000 A 
ATOM      2  C   UNL     1      48.150   5.901  14.540  0.00  0.00    +0.000 A 
ATOM      3  N   UNL     1      47.127   5.043  14.870  0.00  0.00    +0.000 N 
ATOM      4  C   UNL     1      46.304   4.864  13.784  0.00  0.00    +0.000 A 
ATOM      5  N   UNL     1      45.227   4.055  13.750  0.00  0.00    +0.000 NA
ATOM      6  C   UNL     1      44.587   4.069  12.557  0.00  0.00    +0.000 A 
ATOM      7  C   UNL     1      44.950   4.824  11.451  0.00  0.00    +0.000 A 
ATOM      8  C   UNL     1      46.071   5.651  11.536  0.00  0.00    +0.000 A 
ATOM      9  C   UNL     1      46.782   5.668  12.749  0.00  0.00    +0.000 A 
ENDROOT
BRANCH   1  11
ATOM     10  N   UNL     1      49.433   8.005  11.949  0.00  0.00    +0.000 NA
ATOM     11  C   UNL     1      48.766   7.255  12.530  0.00  0.00    +0.000 C 
ENDBRANCH   1  11
BRANCH   3  12
ATOM     12  C   UNL     1      46.948   4.397  16.164  0.00  0.00    +0.000 C 
BRANCH  12  13
ATOM     13  C   UNL     1      48.158   3.605  16.543  0.00  0.00    +0.000 A 
ATOM     14  C   UNL     1      49.093   4.071  17.446  0.00  0.00    +0.000 A 
ATOM     15  N   UNL     1      50.223   3.407  17.765  0.00  0.00    +0.000 NA
ATOM     16  C   UNL     1      50.408   2.237  17.137  0.00  0.00    +0.000 A 
ATOM     17  N   UNL     1      49.566   1.673  16.258  0.00  0.00    +0.000 NA
ATOM     18  C   UNL     1      48.452   2.379  15.982  0.00  0.00    +0.000 A 
ENDBRANCH  12  13
ENDBRANCH   3  12
TORSDOF 3
ENDMDL
MODEL 9
REMARK VINA RESULT:    -5.110      4.008      6.326
REMARK INTER + INTRA:          -6.484
REMARK INTER:                  -6.218
REMARK INTRA:                  -0.266
REMARK UNBOUND:                -0.477
REMARK  Name = 
REMARK  3 active torsions:
REMARK  status: ('A' for Active; 'I' for Inactive)
REMARK    1  A    between atoms: C_2  and  C_3
REMARK    2  A    between atoms: N_5  and  C_6
REMARK    3  A    between atoms: C_6  and  C_7
REMARK                            x       y       z     vdW  Elec       q    Type
REMARK                         _______ _______ _______ _____ _____    ______ ____
ROOT
ATOM      1  C   UNL     1      45.514   7.087  12.655  0.00  0.00    +0.000 A 
ATOM      2  C   UNL     1      46.631   6.581  13.292  0.00  0.00    +0.000 A 
ATOM      3  N   UNL     1      46.425   5.236  13.495  0.00  0.00    +0.000 N 
ATOM      4  C   UNL     1      45.225   4.863  12.941  0.00  0.00    +0.000 A 
ATOM      5  N   UNL     1      44.733   3.608  12.926  0.00  0.00    +0.000 NA
ATOM      6  C   UNL     1      43.524   3.517  12.323  0.00  0.00    +0.000 A 
ATOM      7  C   UNL     1      42.813   4.571  11.768  0.00  0.00    +0.000 A 
ATOM      8  C   UNL     1      43.361   5.853  11.813  0.00  0.00    +0.000 A 
ATOM      9  C   UNL     1      44.621   6.007  12.418  0.00  0.00    +0.000 A 
ENDROOT
BRANCH   1  11
ATOM     10  N   UNL     1      45.159   9.568  11.998  0.00  0.00    +0.000 NA
ATOM     11  C   UNL     1      45.315   8.458  12.293  0.00  0.00    +0.000 C 
ENDBRANCH   1  11
BRANCH   3  12
ATOM     12  C   UNL     1      47.347   4.331  14.170  0.00  0.00    +0.000 C 
BRANCH  12  13
ATOM     13  C   UNL     1      47.522   4.711  15.605  0.00  0.00    +0.000 A 
ATOM     14  C   UNL     1      48.398   5.701  16.007  0.00  0.00    +0.000 A 
ATOM     15  N   UNL     1      48.620   6.027  17.296  0.00  0.00    +0.000 NA
ATOM     16  C   UNL     1      47.936   5.316  18.204  0.00  0.00    +0.000 A 
ATOM     17  N   UNL     1      47.047   4.346  17.938  0.00  0.00    +0.000 NA
ATOM     18  C   UNL     1      46.862   4.067  16.633  0.00  0.00    +0.000 A 
ENDBRANCH  12  13
ENDBRANCH   3  12
TORSDOF 3
ENDMDL
