MODEL 1
REMARK VINA RESULT:    -9.378      0.000      0.000
REMARK INTER + INTRA:         -13.064
REMARK INTER:                 -12.119
REMARK INTRA:                  -0.946
REMARK UNBOUND:                -0.946
REMARK  Name = 
REMARK  5 active torsions:
REMARK  status: ('A' for Active; 'I' for Inactive)
REMARK    1  A    between atoms: C_2  and  C_4
REMARK    2  A    between atoms: C_7  and  O_8
REMARK    3  A    between atoms: O_8  and  C_9
REMARK    4  A    between atoms: C_9  and  C_10
REMARK    5  A    between atoms: C_14  and  C_15
REMARK                            x       y       z     vdW  Elec       q    Type
REMARK                         _______ _______ _______ _____ _____    ______ ____
ROOT
ATOM      1  C   UNL     1      43.959   4.813  11.427  0.00  0.00    +0.000 C 
ATOM      2  C   UNL     1      42.701   4.896  12.280  0.00  0.00    +0.000 C 
ATOM      3  C   UNL     1      42.961   5.940  11.249  0.00  0.00    +0.000 C 
ENDROOT
BRANCH   1   4
ATOM      4  C   UNL     1      45.330   5.112  12.008  0.00  0.00    +0.000 A 
ATOM      5  C   UNL     1      46.072   6.210  11.553  0.00  0.00    +0.000 A 
ATOM      6  C   UNL     1      47.235   6.617  12.202  0.00  0.00    +0.000 A 
ATOM      7  C   UNL     1      47.668   5.943  13.345  0.00  0.00    +0.000 A 
ATOM      8  C   UNL     1      46.967   4.838  13.848  0.00  0.00    +0.000 A 
ATOM      9  C   UNL     1      45.833   4.410  13.126  0.00  0.00    +0.000 A 
BRANCH   8  10
ATOM     10  C   UNL     1      47.337   4.200  15.131  0.00  0.00    +0.000 A 
ATOM     11  C   UNL     1      47.095   4.824  16.359  0.00  0.00    +0.000 A 
ATOM     12  C   UNL     1      47.428   4.174  17.543  0.00  0.00    +0.000 A 
ATOM     13  C   UNL     1      47.996   2.908  17.480  0.00  0.00    +0.000 A 
ATOM     14  C   UNL     1      48.193   2.348  16.230  0.00  0.00    +0.000 A 
ATOM     15  N   UNL     1      47.873   2.954  15.065  0.00  0.00    +0.000 NA
ENDBRANCH   8  10
ENDBRANCH   1   4
BRANCH   1  16
ATOM     16  O   UNL     1      43.889   3.625  10.605  0.00  0.00    +0.000 OA
BRANCH  16  20
ATOM     17  C   UNL     1      46.467   2.678   7.487  0.00  0.00    +0.000 A 
ATOM     18  C   UNL     1      46.146   4.024   7.692  0.00  0.00    +0.000 A 
ATOM     19  C   UNL     1      45.311   4.391   8.757  0.00  0.00    +0.000 A 
ATOM     20  C   UNL     1      44.792   3.417   9.603  0.00  0.00    +0.000 A 
ATOM     21  C   UNL     1      45.151   2.078   9.424  0.00  0.00    +0.000 A 
ATOM     22  C   UNL     1      45.975   1.705   8.363  0.00  0.00    +0.000 A 
BRANCH  17  24
ATOM     23  N   UNL     1      47.245   3.030   5.209  0.00  0.00    +0.000 N 
ATOM     24  C   UNL     1      47.265   2.235   6.318  0.00  0.00    +0.000 C 
ATOM     25  O   UNL     1      47.927   1.206   6.342  0.00  0.00    +0.000 OA
ATOM     26  H   UNL     1      47.841   2.750   4.445  0.00  0.00    +0.000 HD
ATOM     27  H   UNL     1      46.899   3.980   5.221  0.00  0.00    +0.000 HD
ENDBRANCH  17  24
ENDBRANCH  16  20
ENDBRANCH   1  16
TORSDOF 5
ENDMDL
MODEL 2
REMARK VINA RESULT:    -9.203      1.880      3.144
REMARK INTER + INTRA:         -12.838
REMARK INTER:                 -11.538
REMARK INTRA:                  -1.300
REMARK UNBOUND:                -0.946
REMARK  Name = 
REMARK  5 active torsions:
REMARK  status: ('A' for Active; 'I' for Inactive)
REMARK    1  A    between atoms: C_2  and  C_4
REMARK    2  A    between atoms: C_7  and  O_8
REMARK    3  A    between atoms: O_8  and  C_9
REMARK    4  A    between atoms: C_9  and  C_10
REMARK    5  A    between atoms: C_14  and  C_15
REMARK                            x       y       z     vdW  Elec       q    Type
REMARK                         _______ _______ _______ _____ _____    ______ ____
ROOT
ATOM      1  C   UNL     1      43.664   5.072  11.220  0.00  0.00    +0.000 C 
ATOM      2  C   UNL     1      42.303   5.451  11.786  0.00  0.00    +0.000 C 
ATOM      3  C   UNL     1      43.087   6.459  11.018  0.00  0.00    +0.000 C 
ENDROOT
BRANCH   1   4
ATOM      4  C   UNL     1      44.872   4.887  12.120  0.00  0.00    +0.000 A 
ATOM      5  C   UNL     1      45.132   3.645  12.716  0.00  0.00    +0.000 A 
ATOM      6  C   UNL     1      46.330   3.397  13.380  0.00  0.00    +0.000 A 
ATOM      7  C   UNL     1      47.313   4.387  13.440  0.00  0.00    +0.000 A 
ATOM      8  C   UNL     1      47.111   5.648  12.861  0.00  0.00    +0.000 A 
ATOM      9  C   UNL     1      45.859   5.889  12.258  0.00  0.00    +0.000 A 
BRANCH   8  10
ATOM     10  C   UNL     1      48.192   6.658  12.799  0.00  0.00    +0.000 A 
ATOM     11  C   UNL     1      48.307   7.544  11.723  0.00  0.00    +0.000 A 
ATOM     12  C   UNL     1      49.319   8.500  11.720  0.00  0.00    +0.000 A 
ATOM     13  C   UNL     1      50.197   8.555  12.796  0.00  0.00    +0.000 A 
ATOM     14  C   UNL     1      50.011   7.655  13.830  0.00  0.00    +0.000 A 
ATOM     15  N   UNL     1      49.035   6.721  13.861  0.00  0.00    +0.000 NA
ENDBRANCH   8  10
ENDBRANCH   1   4
BRANCH   1  16
ATOM     16  O   UNL     1      43.484   4.042  10.220  0.00  0.00    +0.000 OA
BRANCH  16  20
ATOM     17  C   UNL     1      46.472   2.517   7.768  0.00  0.00    +0.000 A 
ATOM     18  C   UNL     1      46.277   3.902   7.787  0.00  0.00    +0.000 A 
ATOM     19  C   UNL     1      45.306   4.462   8.630  0.00  0.00    +0.000 A 
ATOM     20  C   UNL     1      44.529   3.641   9.438  0.00  0.00    +0.000 A 
ATOM     21  C   UNL     1      44.756   2.261   9.450  0.00  0.00    +0.000 A 
ATOM     22  C   UNL     1      45.714   1.697   8.610  0.00  0.00    +0.000 A 
BRANCH  17  24
ATOM     23  N   UNL     1      48.483   2.616   6.402  0.00  0.00    +0.000 N 
ATOM     24  C   UNL     1      47.418   1.875   6.823  0.00  0.00    +0.000 C 
ATOM     25  O   UNL     1      47.263   0.723   6.441  0.00  0.00    +0.000 OA
ATOM     26  H   UNL     1      49.151   2.147   5.810  0.00  0.00    +0.000 HD
ATOM     27  H   UNL     1      48.767   3.475   6.854  0.00  0.00    +0.000 HD
ENDBRANCH  17  24
ENDBRANCH  16  20
ENDBRANCH   1  16
TORSDOF 5
ENDMDL
MODEL 3
REMARK VINA RESULT:    -7.562      2.623      7.658
REMARK INTER + INTRA:         -10.717
REMARK INTER:                  -9.731
REMARK INTRA:                  -0.986
REMARK UNBOUND:                -0.946
REMARK  Name = 
REMARK  5 active torsions:
REMARK  status: ('A' for Active; 'I' for Inactive)
REMARK    1  A    between atoms: C_2  and  C_4
REMARK    2  A    between atoms: C_7  and  O_8
REMARK    3  A    between atoms: O_8  and  C_9
REMARK    4  A    between atoms: C_9  and  C_10
REMARK    5  A    between atoms: C_14  and  C_15
REMARK                            x       y       z     vdW  Elec       q    Type
REMARK                         _______ _______ _______ _____ _____    ______ ____
ROOT
ATOM      1  C   UNL     1      46.267   7.335  12.483  0.00  0.00    +0.000 C 
ATOM      2  C   UNL     1      46.456   8.733  11.913  0.00  0.00    +0.000 C 
ATOM      3  C   UNL     1      45.668   8.548  13.165  0.00  0.00    +0.000 C 
ENDROOT
BRANCH   1   4
ATOM      4  C   UNL     1      45.353   6.323  11.815  0.00  0.00    +0.000 A 
ATOM      5  C   UNL     1      43.962   6.425  11.948  0.00  0.00    +0.000 A 
ATOM      6  C   UNL     1      43.102   5.634  11.189  0.00  0.00    +0.000 A 
ATOM      7  C   UNL     1      43.623   4.737  10.254  0.00  0.00    +0.000 A 
ATOM      8  C   UNL     1      45.006   4.592  10.076  0.00  0.00    +0.000 A 
ATOM      9  C   UNL     1      45.848   5.357  10.910  0.00  0.00    +0.000 A 
BRANCH   8  10
ATOM     10  C   UNL     1      45.567   3.747   8.999  0.00  0.00    +0.000 A 
ATOM     11  C   UNL     1      45.545   2.350   9.075  0.00  0.00    +0.000 A 
ATOM     12  C   UNL     1      46.054   1.592   8.024  0.00  0.00    +0.000 A 
ATOM     13  C   UNL     1      46.573   2.245   6.913  0.00  0.00    +0.000 A 
ATOM     14  C   UNL     1      46.548   3.628   6.903  0.00  0.00    +0.000 A 
ATOM     15  N   UNL     1      46.055   4.388   7.907  0.00  0.00    +0.000 NA
ENDBRANCH   8  10
ENDBRANCH   1   4
BRANCH   1  16
ATOM     16  O   UNL     1      47.557   6.818  12.889  0.00  0.00    +0.000 OA
BRANCH  16  20
ATOM     17  C   UNL     1      47.937   4.784  16.493  0.00  0.00    +0.000 A 
ATOM     18  C   UNL     1      47.149   4.209  15.490  0.00  0.00    +0.000 A 
ATOM     19  C   UNL     1      47.026   4.842  14.245  0.00  0.00    +0.000 A 
ATOM     20  C   UNL     1      47.677   6.048  14.010  0.00  0.00    +0.000 A 
ATOM     21  C   UNL     1      48.499   6.598  14.998  0.00  0.00    +0.000 A 
ATOM     22  C   UNL     1      48.620   5.978  16.240  0.00  0.00    +0.000 A 
BRANCH  17  24
ATOM     23  N   UNL     1      47.267   3.089  18.104  0.00  0.00    +0.000 N 
ATOM     24  C   UNL     1      48.017   4.202  17.854  0.00  0.00    +0.000 C 
ATOM     25  O   UNL     1      48.732   4.685  18.721  0.00  0.00    +0.000 OA
ATOM     26  H   UNL     1      47.379   2.666  19.013  0.00  0.00    +0.000 HD
ATOM     27  H   UNL     1      46.843   2.536  17.370  0.00  0.00    +0.000 HD
ENDBRANCH  17  24
ENDBRANCH  16  20
ENDBRANCH   1  16
TORSDOF 5
ENDMDL
MODEL 4
REMARK VINA RESULT:    -6.854      2.849      4.512
REMARK INTER + INTRA:          -9.803
REMARK INTER:                  -8.811
REMARK INTRA:                  -0.992
REMARK UNBOUND:                -0.946
REMARK  Name = 
REMARK  5 active torsions:
REMARK  status: ('A' for Active; 'I' for Inactive)
REMARK    1  A    between atoms: C_2  and  C_4
REMARK    2  A    between atoms: C_7  and  O_8
REMARK    3  A    between atoms: O_8  and  C_9
REMARK    4  A    between atoms: C_9  and  C_10
REMARK    5  A    between atoms: C_14  and  C_15
REMARK                            x       y       z     vdW  Elec       q    Type
REMARK                         _______ _______ _______ _____ _____    ______ ____
ROOT
ATOM      1  C   UNL     1      47.925   8.019  12.647  0.00  0.00    +0.000 C 
ATOM      2  C   UNL     1      48.462   9.144  11.773  0.00  0.00    +0.000 C 
ATOM      3  C   UNL     1      48.955   7.752  11.567  0.00  0.00    +0.000 C 
ENDROOT
BRANCH   1   4
ATOM      4  C   UNL     1      48.322   7.893  14.107  0.00  0.00    +0.000 A 
ATOM      5  C   UNL     1      48.286   9.010  14.953  0.00  0.00    +0.000 A 
ATOM      6  C   UNL     1      48.452   8.881  16.329  0.00  0.00    +0.000 A 
ATOM      7  C   UNL     1      48.633   7.617  16.895  0.00  0.00    +0.000 A 
ATOM      8  C   UNL     1      48.676   6.464  16.100  0.00  0.00    +0.000 A 
ATOM      9  C   UNL     1      48.575   6.637  14.704  0.00  0.00    +0.000 A 
BRANCH   8  10
ATOM     10  C   UNL     1      48.732   5.110  16.696  0.00  0.00    +0.000 A 
ATOM     11  C   UNL     1      47.581   4.333  16.860  0.00  0.00    +0.000 A 
ATOM     12  C   UNL     1      47.682   3.051  17.394  0.00  0.00    +0.000 A 
ATOM     13  C   UNL     1      48.934   2.567  17.752  0.00  0.00    +0.000 A 
ATOM     14  C   UNL     1      50.029   3.388  17.547  0.00  0.00    +0.000 A 
ATOM     15  N   UNL     1      49.959   4.634  17.025  0.00  0.00    +0.000 NA
ENDBRANCH   8  10
ENDBRANCH   1   4
BRANCH   1  16
ATOM     16  O   UNL     1      46.513   7.854  12.380  0.00  0.00    +0.000 OA
BRANCH  16  20
ATOM     17  C   UNL     1      44.783   4.231  11.307  0.00  0.00    +0.000 A 
ATOM     18  C   UNL     1      45.258   5.064  10.288  0.00  0.00    +0.000 A 
ATOM     19  C   UNL     1      45.884   6.277  10.608  0.00  0.00    +0.000 A 
ATOM     20  C   UNL     1      46.023   6.659  11.937  0.00  0.00    +0.000 A 
ATOM     21  C   UNL     1      45.588   5.805  12.955  0.00  0.00    +0.000 A 
ATOM     22  C   UNL     1      44.958   4.601  12.644  0.00  0.00    +0.000 A 
BRANCH  17  24
ATOM     23  N   UNL     1      44.501   2.192  10.010  0.00  0.00    +0.000 N 
ATOM     24  C   UNL     1      44.028   2.989  11.012  0.00  0.00    +0.000 C 
ATOM     25  O   UNL     1      43.028   2.677  11.645  0.00  0.00    +0.000 OA
ATOM     26  H   UNL     1      44.016   1.320   9.863  0.00  0.00    +0.000 HD
ATOM     27  H   UNL     1      45.428   2.294   9.619  0.00  0.00    +0.000 HD
ENDBRANCH  17  24
ENDBRANCH  16  20
ENDBRANCH   1  16
TORSDOF 5
ENDMDL
MODEL 5
REMARK VINA RESULT:    -6.581      3.640      8.463
REMARK INTER + INTRA:          -9.450
REMARK INTER:                  -8.285
REMARK INTRA:                  -1.165
REMARK UNBOUND:                -0.946
REMARK  Name = 
REMARK  5 active torsions:
REMARK  status: ('A' for Active; 'I' for Inactive)
REMARK    1  A    between atoms: C_2  and  C_4
REMARK    2  A    between atoms: C_7  and  O_8
REMARK    3  A    between atoms: O_8  and  C_9
REMARK    4  A    between atoms: C_9  and  C_10
REMARK    5  A    between atoms: C_14  and  C_15
REMARK                            x       y       z     vdW  Elec       q    Type
REMARK                         _______ _______ _______ _____ _____    ______ ____
ROOT
ATOM      1  C   UNL     1      48.897   7.576  13.100  0.00  0.00    +0.000 C 
ATOM      2  C   UNL     1      49.974   7.731  12.036  0.00  0.00    +0.000 C 
ATOM      3  C   UNL     1      49.594   8.903  12.875  0.00  0.00    +0.000 C 
ENDROOT
BRANCH   1   4
ATOM      4  C   UNL     1      47.433   7.425  12.728  0.00  0.00    +0.000 A 
ATOM      5  C   UNL     1      46.541   8.492  12.903  0.00  0.00    +0.000 A 
ATOM      6  C   UNL     1      45.247   8.446  12.390  0.00  0.00    +0.000 A 
ATOM      7  C   UNL     1      44.825   7.332  11.663  0.00  0.00    +0.000 A 
ATOM      8  C   UNL     1      45.672   6.235  11.454  0.00  0.00    +0.000 A 
ATOM      9  C   UNL     1      46.951   6.285  12.047  0.00  0.00    +0.000 A 
BRANCH   8  10
ATOM     10  C   UNL     1      45.286   5.110  10.574  0.00  0.00    +0.000 A 
ATOM     11  C   UNL     1      45.677   5.060   9.232  0.00  0.00    +0.000 A 
ATOM     12  C   UNL     1      45.320   3.966   8.448  0.00  0.00    +0.000 A 
ATOM     13  C   UNL     1      44.579   2.940   9.021  0.00  0.00    +0.000 A 
ATOM     14  C   UNL     1      44.241   3.052  10.357  0.00  0.00    +0.000 A 
ATOM     15  N   UNL     1      44.579   4.100  11.143  0.00  0.00    +0.000 NA
ENDBRANCH   8  10
ENDBRANCH   1   4
BRANCH   1  16
ATOM     16  O   UNL     1      49.369   6.653  14.110  0.00  0.00    +0.000 OA
BRANCH  16  20
ATOM     17  C   UNL     1      48.192   6.630  18.096  0.00  0.00    +0.000 A 
ATOM     18  C   UNL     1      48.584   7.848  17.530  0.00  0.00    +0.000 A 
ATOM     19  C   UNL     1      48.951   7.908  16.178  0.00  0.00    +0.000 A 
ATOM     20  C   UNL     1      48.937   6.755  15.402  0.00  0.00    +0.000 A 
ATOM     21  C   UNL     1      48.502   5.548  15.956  0.00  0.00    +0.000 A 
ATOM     22  C   UNL     1      48.143   5.479  17.301  0.00  0.00    +0.000 A 
BRANCH  17  24
ATOM     23  N   UNL     1      47.624   5.249  20.017  0.00  0.00    +0.000 N 
ATOM     24  C   UNL     1      47.892   6.501  19.542  0.00  0.00    +0.000 C 
ATOM     25  O   UNL     1      47.892   7.469  20.289  0.00  0.00    +0.000 OA
ATOM     26  H   UNL     1      47.484   5.167  21.012  0.00  0.00    +0.000 HD
ATOM     27  H   UNL     1      47.827   4.409  19.493  0.00  0.00    +0.000 HD
ENDBRANCH  17  24
ENDBRANCH  16  20
ENDBRANCH   1  16
TORSDOF 5
ENDMDL
MODEL 6
REMARK VINA RESULT:    -6.404      3.280      7.032
REMARK INTER + INTRA:          -9.222
REMARK INTER:                  -8.081
REMARK INTRA:                  -1.141
REMARK UNBOUND:                -0.946
REMARK  Name = 
REMARK  5 active torsions:
REMARK  status: ('A' for Active; 'I' for Inactive)
REMARK    1  A    between atoms: C_2  and  C_4
REMARK    2  A    between atoms: C_7  and  O_8
REMARK    3  A    between atoms: O_8  and  C_9
REMARK    4  A    between atoms: C_9  and  C_10
REMARK    5  A    between atoms: C_14  and  C_15
REMARK                            x       y       z     vdW  Elec       q    Type
REMARK                         _______ _______ _______ _____ _____    ______ ____
ROOT
ATOM      1  C   UNL     1      46.215   4.919  13.396  0.00  0.00    +0.000 C 
ATOM      2  C   UNL     1      45.999   4.276  14.758  0.00  0.00    +0.000 C 
ATOM      3  C   UNL     1      47.155   3.852  13.918  0.00  0.00    +0.000 C 
ENDROOT
BRANCH   1   4
ATOM      4  C   UNL     1      45.306   4.608  12.220  0.00  0.00    +0.000 A 
ATOM      5  C   UNL     1      44.062   5.241  12.095  0.00  0.00    +0.000 A 
ATOM      6  C   UNL     1      43.302   5.122  10.934  0.00  0.00    +0.000 A 
ATOM      7  C   UNL     1      43.789   4.382   9.855  0.00  0.00    +0.000 A 
ATOM      8  C   UNL     1      45.027   3.727   9.921  0.00  0.00    +0.000 A 
ATOM      9  C   UNL     1      45.737   3.810  11.137  0.00  0.00    +0.000 A 
BRANCH   8  10
ATOM     10  C   UNL     1      45.615   3.054   8.742  0.00  0.00    +0.000 A 
ATOM     11  C   UNL     1      45.975   3.766   7.593  0.00  0.00    +0.000 A 
ATOM     12  C   UNL     1      46.556   3.099   6.519  0.00  0.00    +0.000 A 
ATOM     13  C   UNL     1      46.769   1.729   6.612  0.00  0.00    +0.000 A 
ATOM     14  C   UNL     1      46.400   1.094   7.785  0.00  0.00    +0.000 A 
ATOM     15  N   UNL     1      45.840   1.719   8.845  0.00  0.00    +0.000 NA
ENDBRANCH   8  10
ENDBRANCH   1   4
BRANCH   1  16
ATOM     16  O   UNL     1      46.510   6.323  13.584  0.00  0.00    +0.000 OA
BRANCH  16  20
ATOM     17  C   UNL     1      50.024   8.080  12.230  0.00  0.00    +0.000 A 
ATOM     18  C   UNL     1      49.928   7.758  13.588  0.00  0.00    +0.000 A 
ATOM     19  C   UNL     1      48.776   7.128  14.080  0.00  0.00    +0.000 A 
ATOM     20  C   UNL     1      47.723   6.834  13.221  0.00  0.00    +0.000 A 
ATOM     21  C   UNL     1      47.840   7.115  11.856  0.00  0.00    +0.000 A 
ATOM     22  C   UNL     1      48.979   7.748  11.362  0.00  0.00    +0.000 A 
BRANCH  17  24
ATOM     23  N   UNL     1      51.061  10.190  11.605  0.00  0.00    +0.000 N 
ATOM     24  C   UNL     1      51.180   8.833  11.686  0.00  0.00    +0.000 C 
ATOM     25  O   UNL     1      52.207   8.270  11.332  0.00  0.00    +0.000 OA
ATOM     26  H   UNL     1      51.877  10.695  11.293  0.00  0.00    +0.000 HD
ATOM     27  H   UNL     1      50.334  10.707  12.082  0.00  0.00    +0.000 HD
ENDBRANCH  17  24
ENDBRANCH  16  20
ENDBRANCH   1  16
TORSDOF 5
ENDMDL
