MODEL 1
REMARK VINA RESULT:    -8.620      0.000      0.000
REMARK INTER + INTRA:         -12.642
REMARK INTER:                 -11.644
REMARK INTRA:                  -0.998
REMARK UNBOUND:                -0.998
REMARK  Name = 
REMARK  7 active torsions:
REMARK  status: ('A' for Active; 'I' for Inactive)
REMARK    1  A    between atoms: C_1  and  C_2
REMARK    2  A    between atoms: C_2  and  N_3
REMARK    3  A    between atoms: C_2  and  C_20
REMARK    4  A    between atoms: C_4  and  C_6
REMARK    5  A    between atoms: C_9  and  C_10
REMARK    6  A    between atoms: C_10  and  N_11
REMARK    7  A    between atoms: C_12  and  C_14
REMARK                            x       y       z     vdW  Elec       q    Type
REMARK                         _______ _______ _______ _____ _____    ______ ____
ROOT
ATOM      1  N   UNL     1      46.858   5.056  14.798  0.00  0.00    +0.000 N 
ATOM      2  C   UNL     1      46.571   4.167  13.788  0.00  0.00    +0.000 C 
ATOM      3  O   UNL     1      47.154   3.093  13.666  0.00  0.00    +0.000 OA
ATOM      4  H   UNL     1      46.144   5.749  14.996  0.00  0.00    +0.000 HD
ENDROOT
BRANCH   2   5
ATOM      5  C   UNL     1      45.569   4.670  12.749  0.00  0.00    +0.000 C 
ATOM      6  C   UNL     1      44.507   5.652  13.234  0.00  0.00    +0.000 C 
ATOM      7  C   UNL     1      43.349   5.526  12.237  0.00  0.00    +0.000 C 
ATOM      8  C   UNL     1      43.549   4.199  11.483  0.00  0.00    +0.000 C 
ATOM      9  C   UNL     1      44.717   3.522  12.204  0.00  0.00    +0.000 C 
BRANCH   8  10
ATOM     10  C   UNL     1      43.827   4.438   9.990  0.00  0.00    +0.000 C 
BRANCH  10  11
ATOM     11  N   UNL     1      44.660   3.405   9.408  0.00  0.00    +0.000 N 
ATOM     12  C   UNL     1      45.602   3.671   8.441  0.00  0.00    +0.000 C 
ATOM     13  O   UNL     1      45.833   4.811   8.037  0.00  0.00    +0.000 OA
ATOM     14  H   UNL     1      44.475   2.444   9.656  0.00  0.00    +0.000 HD
BRANCH  12  15
ATOM     15  C   UNL     1      46.307   2.523   7.931  0.00  0.00    +0.000 A 
ATOM     16  C   UNL     1      46.158   1.155   8.091  0.00  0.00    +0.000 A 
ATOM     17  C   UNL     1      47.185   0.581   7.313  0.00  0.00    +0.000 A 
ATOM     18  N   UNL     1      47.935   1.500   6.711  0.00  0.00    +0.000 NA
ATOM     19  N   UNL     1      47.387   2.664   7.099  0.00  0.00    +0.000 N 
ATOM     20  H   UNL     1      47.790   3.536   6.768  0.00  0.00    +0.000 HD
ENDBRANCH  12  15
ENDBRANCH  10  11
ENDBRANCH   8  10
ENDBRANCH   2   5
BRANCH   1  22
ATOM     21  C   UNL     1      47.113   3.940  17.014  0.00  0.00    +0.000 C 
ATOM     22  C   UNL     1      47.778   4.719  15.872  0.00  0.00    +0.000 C 
BRANCH  22  23
ATOM     23  C   UNL     1      48.444   5.966  16.432  0.00  0.00    +0.000 A 
ATOM     24  C   UNL     1      48.463   6.251  17.791  0.00  0.00    +0.000 A 
ATOM     25  S   UNL     1      49.110   7.790  18.155  0.00  0.00    +0.000 S 
ATOM     26  C   UNL     1      49.398   8.125  16.512  0.00  0.00    +0.000 A 
ATOM     27  N   UNL     1      49.926   9.316  16.117  0.00  0.00    +0.000 NA
ATOM     28  C   UNL     1      50.079   9.433  14.840  0.00  0.00    +0.000 A 
ATOM     29  N   UNL     1      49.761   8.467  13.920  0.00  0.00    +0.000 N 
ATOM     30  C   UNL     1      49.254   7.241  14.275  0.00  0.00    +0.000 A 
ATOM     31  O   UNL     1      49.062   6.369  13.436  0.00  0.00    +0.000 OA
ATOM     32  C   UNL     1      49.029   7.069  15.699  0.00  0.00    +0.000 A 
ATOM     33  H   UNL     1      49.944   8.606  12.938  0.00  0.00    +0.000 HD
ENDBRANCH  22  23
ENDBRANCH   1  22
TORSDOF 6
ENDMDL
MODEL 2
REMARK VINA RESULT:    -8.351      2.435      2.949
REMARK INTER + INTRA:         -12.278
REMARK INTER:                 -11.351
REMARK INTRA:                  -0.926
REMARK UNBOUND:                -0.998
REMARK  Name = 
REMARK  7 active torsions:
REMARK  status: ('A' for Active; 'I' for Inactive)
REMARK    1  A    between atoms: C_1  and  C_2
REMARK    2  A    between atoms: C_2  and  N_3
REMARK    3  A    between atoms: C_2  and  C_20
REMARK    4  A    between atoms: C_4  and  C_6
REMARK    5  A    between atoms: C_9  and  C_10
REMARK    6  A    between atoms: C_10  and  N_11
REMARK    7  A    between atoms: C_12  and  C_14
REMARK                            x       y       z     vdW  Elec       q    Type
REMARK                         _______ _______ _______ _____ _____    ______ ____
ROOT
ATOM      1  N   UNL     1      47.147   5.059  15.033  0.00  0.00    +0.000 N 
ATOM      2  C   UNL     1      46.838   4.212  13.994  0.00  0.00    +0.000 C 
ATOM      3  O   UNL     1      47.232   3.049  13.949  0.00  0.00    +0.000 OA
ATOM      4  H   UNL     1      46.547   5.871  15.138  0.00  0.00    +0.000 HD
ENDROOT
BRANCH   2   5
ATOM      5  C   UNL     1      46.080   4.859  12.835  0.00  0.00    +0.000 C 
ATOM      6  C   UNL     1      46.705   6.103  12.211  0.00  0.00    +0.000 C 
ATOM      7  C   UNL     1      45.544   6.854  11.550  0.00  0.00    +0.000 C 
ATOM      8  C   UNL     1      44.245   6.303  12.163  0.00  0.00    +0.000 C 
ATOM      9  C   UNL     1      44.716   5.381  13.290  0.00  0.00    +0.000 C 
BRANCH   8  10
ATOM     10  C   UNL     1      43.393   5.573  11.112  0.00  0.00    +0.000 C 
BRANCH  10  11
ATOM     11  N   UNL     1      44.199   4.908  10.108  0.00  0.00    +0.000 N 
ATOM     12  C   UNL     1      44.234   3.538   9.975  0.00  0.00    +0.000 C 
ATOM     13  O   UNL     1      43.551   2.788  10.671  0.00  0.00    +0.000 OA
ATOM     14  H   UNL     1      44.826   5.467   9.549  0.00  0.00    +0.000 HD
BRANCH  12  15
ATOM     15  C   UNL     1      45.127   3.038   8.962  0.00  0.00    +0.000 A 
ATOM     16  C   UNL     1      45.715   3.595   7.838  0.00  0.00    +0.000 A 
ATOM     17  C   UNL     1      46.486   2.558   7.275  0.00  0.00    +0.000 A 
ATOM     18  N   UNL     1      46.395   1.427   7.970  0.00  0.00    +0.000 NA
ATOM     19  N   UNL     1      45.570   1.741   8.983  0.00  0.00    +0.000 N 
ATOM     20  H   UNL     1      45.336   1.029   9.669  0.00  0.00    +0.000 HD
ENDBRANCH  12  15
ENDBRANCH  10  11
ENDBRANCH   8  10
ENDBRANCH   2   5
BRANCH   1  22
ATOM     21  C   UNL     1      46.932   4.426  17.436  0.00  0.00    +0.000 C 
ATOM     22  C   UNL     1      47.848   4.590  16.217  0.00  0.00    +0.000 C 
BRANCH  22  23
ATOM     23  C   UNL     1      49.000   5.517  16.571  0.00  0.00    +0.000 A 
ATOM     24  C   UNL     1      48.978   6.874  16.280  0.00  0.00    +0.000 A 
ATOM     25  S   UNL     1      50.455   7.667  16.613  0.00  0.00    +0.000 S 
ATOM     26  C   UNL     1      51.172   6.227  17.169  0.00  0.00    +0.000 A 
ATOM     27  N   UNL     1      52.467   6.200  17.587  0.00  0.00    +0.000 NA
ATOM     28  C   UNL     1      52.879   5.038  17.972  0.00  0.00    +0.000 A 
ATOM     29  N   UNL     1      52.114   3.900  17.984  0.00  0.00    +0.000 N 
ATOM     30  C   UNL     1      50.796   3.887  17.600  0.00  0.00    +0.000 A 
ATOM     31  O   UNL     1      50.116   2.872  17.705  0.00  0.00    +0.000 OA
ATOM     32  C   UNL     1      50.291   5.162  17.124  0.00  0.00    +0.000 A 
ATOM     33  H   UNL     1      52.484   3.030  18.336  0.00  0.00    +0.000 HD
ENDBRANCH  22  23
ENDBRANCH   1  22
TORSDOF 6
ENDMDL
MODEL 3
REMARK VINA RESULT:    -7.608      2.224      2.816
REMARK INTER + INTRA:         -11.274
REMARK INTER:                 -10.196
REMARK INTRA:                  -1.078
REMARK UNBOUND:                -0.998
REMARK  Name = 
REMARK  7 active torsions:
REMARK  status: ('A' for Active; 'I' for Inactive)
REMARK    1  A    between atoms: C_1  and  C_2
REMARK    2  A    between atoms: C_2  and  N_3
REMARK    3  A    between atoms: C_2  and  C_20
REMARK    4  A    between atoms: C_4  and  C_6
REMARK    5  A    between atoms: C_9  and  C_10
REMARK    6  A    between atoms: C_10  and  N_11
REMARK    7  A    between atoms: C_12  and  C_14
REMARK                            x       y       z     vdW  Elec       q    Type
REMARK                         _______ _______ _______ _____ _____    ______ ____
ROOT
ATOM      1  N   UNL     1      47.259   5.043  15.592  0.00  0.00    +0.000 N 
ATOM      2  C   UNL     1      47.049   4.298  14.454  0.00  0.00    +0.000 C 
ATOM      3  O   UNL     1      47.291   3.095  14.397  0.00  0.00    +0.000 OA
ATOM      4  H   UNL     1      46.760   5.925  15.643  0.00  0.00    +0.000 HD
ENDROOT
BRANCH   2   5
ATOM      5  C   UNL     1      46.620   5.100  13.225  0.00  0.00    +0.000 C 
ATOM      6  C   UNL     1      47.682   5.977  12.568  0.00  0.00    +0.000 C 
ATOM      7  C   UNL     1      46.905   7.059  11.811  0.00  0.00    +0.000 C 
ATOM      8  C   UNL     1      45.478   7.073  12.386  0.00  0.00    +0.000 C 
ATOM      9  C   UNL     1      45.539   6.121  13.583  0.00  0.00    +0.000 C 
BRANCH   8  10
ATOM     10  C   UNL     1      44.443   6.643  11.334  0.00  0.00    +0.000 C 
BRANCH  10  11
ATOM     11  N   UNL     1      44.973   5.670  10.399  0.00  0.00    +0.000 N 
ATOM     12  C   UNL     1      44.391   4.438  10.204  0.00  0.00    +0.000 C 
ATOM     13  O   UNL     1      43.357   4.095  10.778  0.00  0.00    +0.000 OA
ATOM     14  H   UNL     1      45.852   5.871   9.945  0.00  0.00    +0.000 HD
BRANCH  12  15
ATOM     15  C   UNL     1      45.074   3.571   9.279  0.00  0.00    +0.000 A 
ATOM     16  C   UNL     1      45.705   3.770   8.062  0.00  0.00    +0.000 A 
ATOM     17  C   UNL     1      46.171   2.496   7.677  0.00  0.00    +0.000 A 
ATOM     18  N   UNL     1      45.860   1.555   8.565  0.00  0.00    +0.000 NA
ATOM     19  N   UNL     1      45.197   2.228   9.523  0.00  0.00    +0.000 N 
ATOM     20  H   UNL     1      44.846   1.721  10.330  0.00  0.00    +0.000 HD
ENDBRANCH  12  15
ENDBRANCH  10  11
ENDBRANCH   8  10
ENDBRANCH   2   5
BRANCH   1  22
ATOM     21  C   UNL     1      46.985   5.064  18.070  0.00  0.00    +0.000 C 
ATOM     22  C   UNL     1      47.651   4.424  16.847  0.00  0.00    +0.000 C 
BRANCH  22  23
ATOM     23  C   UNL     1      49.162   4.453  17.021  0.00  0.00    +0.000 A 
ATOM     24  C   UNL     1      49.886   3.337  17.418  0.00  0.00    +0.000 A 
ATOM     25  S   UNL     1      51.537   3.666  17.714  0.00  0.00    +0.000 S 
ATOM     26  C   UNL     1      51.345   5.308  17.312  0.00  0.00    +0.000 A 
ATOM     27  N   UNL     1      52.388   6.178  17.383  0.00  0.00    +0.000 NA
ATOM     28  C   UNL     1      52.093   7.393  17.057  0.00  0.00    +0.000 A 
ATOM     29  N   UNL     1      50.851   7.818  16.660  0.00  0.00    +0.000 N 
ATOM     30  C   UNL     1      49.778   6.969  16.545  0.00  0.00    +0.000 A 
ATOM     31  O   UNL     1      48.704   7.364  16.103  0.00  0.00    +0.000 OA
ATOM     32  C   UNL     1      50.046   5.597  16.933  0.00  0.00    +0.000 A 
ATOM     33  H   UNL     1      50.696   8.774  16.379  0.00  0.00    +0.000 HD
ENDBRANCH  22  23
ENDBRANCH   1  22
TORSDOF 6
ENDMDL
MODEL 4
REMARK VINA RESULT:    -7.138      3.760      8.364
REMARK INTER + INTRA:         -10.639
REMARK INTER:                  -9.520
REMARK INTRA:                  -1.119
REMARK UNBOUND:                -0.998
REMARK  Name = 
REMARK  7 active torsions:
REMARK  status: ('A' for Active; 'I' for Inactive)
REMARK    1  A    between atoms: C_1  and  C_2
REMARK    2  A    between atoms: C_2  and  N_3
REMARK    3  A    between atoms: C_2  and  C_20
REMARK    4  A    between atoms: C_4  and  C_6
REMARK    5  A    between atoms: C_9  and  C_10
REMARK    6  A    between atoms: C_10  and  N_11
REMARK    7  A    between atoms: C_12  and  C_14
REMARK                            x       y       z     vdW  Elec       q    Type
REMARK                         _______ _______ _______ _____ _____    ______ ____
ROOT
ATOM      1  N   UNL     1      47.413   6.461  14.421  0.00  0.00    +0.000 N 
ATOM      2  C   UNL     1      48.653   6.449  15.016  0.00  0.00    +0.000 C 
ATOM      3  O   UNL     1      49.660   6.873  14.454  0.00  0.00    +0.000 OA
ATOM      4  H   UNL     1      46.619   6.383  15.048  0.00  0.00    +0.000 HD
ENDROOT
BRANCH   2   5
ATOM      5  C   UNL     1      48.713   5.750  16.374  0.00  0.00    +0.000 C 
ATOM      6  C   UNL     1      47.699   4.637  16.622  0.00  0.00    +0.000 C 
ATOM      7  C   UNL     1      47.570   4.536  18.146  0.00  0.00    +0.000 C 
ATOM      8  C   UNL     1      48.135   5.841  18.732  0.00  0.00    +0.000 C 
ATOM      9  C   UNL     1      48.402   6.725  17.511  0.00  0.00    +0.000 C 
BRANCH   8  10
ATOM     10  C   UNL     1      49.399   5.581  19.567  0.00  0.00    +0.000 C 
BRANCH  10  11
ATOM     11  N   UNL     1      50.046   4.331  19.222  0.00  0.00    +0.000 N 
ATOM     12  C   UNL     1      51.187   4.275  18.456  0.00  0.00    +0.000 C 
ATOM     13  O   UNL     1      51.761   5.284  18.047  0.00  0.00    +0.000 OA
ATOM     14  H   UNL     1      49.588   3.468  19.479  0.00  0.00    +0.000 HD
BRANCH  12  15
ATOM     15  C   UNL     1      51.670   2.950  18.162  0.00  0.00    +0.000 A 
ATOM     16  C   UNL     1      51.254   1.943  17.307  0.00  0.00    +0.000 A 
ATOM     17  C   UNL     1      52.171   0.890  17.505  0.00  0.00    +0.000 A 
ATOM     18  N   UNL     1      53.093   1.190  18.416  0.00  0.00    +0.000 NA
ATOM     19  N   UNL     1      52.770   2.437  18.799  0.00  0.00    +0.000 N 
ATOM     20  H   UNL     1      53.335   2.900  19.505  0.00  0.00    +0.000 HD
ENDBRANCH  12  15
ENDBRANCH  10  11
ENDBRANCH   8  10
ENDBRANCH   2   5
BRANCH   1  22
ATOM     21  C   UNL     1      47.122   8.634  13.232  0.00  0.00    +0.000 C 
ATOM     22  C   UNL     1      47.189   7.104  13.137  0.00  0.00    +0.000 C 
BRANCH  22  23
ATOM     23  C   UNL     1      45.921   6.583  12.478  0.00  0.00    +0.000 A 
ATOM     24  C   UNL     1      44.978   7.428  11.908  0.00  0.00    +0.000 A 
ATOM     25  S   UNL     1      43.563   6.621  11.394  0.00  0.00    +0.000 S 
ATOM     26  C   UNL     1      44.164   5.113  11.904  0.00  0.00    +0.000 A 
ATOM     27  N   UNL     1      43.422   3.979  11.778  0.00  0.00    +0.000 NA
ATOM     28  C   UNL     1      44.003   2.911  12.216  0.00  0.00    +0.000 A 
ATOM     29  N   UNL     1      45.259   2.870  12.763  0.00  0.00    +0.000 N 
ATOM     30  C   UNL     1      46.054   3.984  12.882  0.00  0.00    +0.000 A 
ATOM     31  O   UNL     1      47.205   3.898  13.296  0.00  0.00    +0.000 OA
ATOM     32  C   UNL     1      45.436   5.219  12.436  0.00  0.00    +0.000 A 
ATOM     33  H   UNL     1      45.672   1.995  13.049  0.00  0.00    +0.000 HD
ENDBRANCH  22  23
ENDBRANCH   1  22
TORSDOF 6
ENDMDL
MODEL 5
REMARK VINA RESULT:    -7.029      3.320      8.365
REMARK INTER + INTRA:         -10.493
REMARK INTER:                  -9.659
REMARK INTRA:                  -0.834
REMARK UNBOUND:                -0.998
REMARK  Name = 
REMARK  7 active torsions:
REMARK  status: ('A' for Active; 'I' for Inactive)
REMARK    1  A    between atoms: C_1  and  C_2
REMARK    2  A    between atoms: C_2  and  N_3
REMARK    3  A    between atoms: C_2  and  C_20
REMARK    4  A    between atoms: C_4  and  C_6
REMARK    5  A    between atoms: C_9  and  C_10
REMARK    6  A    between atoms: C_10  and  N_11
REMARK    7  A    between atoms: C_12  and  C_14
REMARK                            x       y       z     vdW  Elec       q    Type
REMARK                         _______ _______ _______ _____ _____    ______ ____
ROOT
ATOM      1  N   UNL     1      46.221   7.090  13.029  0.00  0.00    +0.000 N 
ATOM      2  C   UNL     1      47.552   7.412  13.158  0.00  0.00    +0.000 C 
ATOM      3  O   UNL     1      48.319   7.452  12.200  0.00  0.00    +0.000 OA
ATOM      4  H   UNL     1      45.619   7.374  13.795  0.00  0.00    +0.000 HD
ENDROOT
BRANCH   2   5
ATOM      5  C   UNL     1      48.039   7.588  14.596  0.00  0.00    +0.000 C 
ATOM      6  C   UNL     1      48.258   9.018  15.081  0.00  0.00    +0.000 C 
ATOM      7  C   UNL     1      49.256   8.908  16.239  0.00  0.00    +0.000 C 
ATOM      8  C   UNL     1      49.930   7.530  16.121  0.00  0.00    +0.000 C 
ATOM      9  C   UNL     1      49.425   6.970  14.789  0.00  0.00    +0.000 C 
BRANCH   8  10
ATOM     10  C   UNL     1      49.581   6.630  17.317  0.00  0.00    +0.000 C 
BRANCH  10  11
ATOM     11  N   UNL     1      50.381   5.421  17.355  0.00  0.00    +0.000 N 
ATOM     12  C   UNL     1      49.822   4.166  17.430  0.00  0.00    +0.000 C 
ATOM     13  O   UNL     1      48.606   3.981  17.426  0.00  0.00    +0.000 OA
ATOM     14  H   UNL     1      51.384   5.513  17.422  0.00  0.00    +0.000 HD
BRANCH  12  15
ATOM     15  C   UNL     1      50.760   3.076  17.513  0.00  0.00    +0.000 A 
ATOM     16  C   UNL     1      52.070   2.966  17.949  0.00  0.00    +0.000 A 
ATOM     17  C   UNL     1      52.407   1.610  17.760  0.00  0.00    +0.000 A 
ATOM     18  N   UNL     1      51.404   0.908  17.238  0.00  0.00    +0.000 NA
ATOM     19  N   UNL     1      50.421   1.814  17.098  0.00  0.00    +0.000 N 
ATOM     20  H   UNL     1      49.530   1.520  16.709  0.00  0.00    +0.000 HD
ENDBRANCH  12  15
ENDBRANCH  10  11
ENDBRANCH   8  10
ENDBRANCH   2   5
BRANCH   1  22
ATOM     21  C   UNL     1      44.687   8.072  11.325  0.00  0.00    +0.000 C 
ATOM     22  C   UNL     1      45.603   6.908  11.726  0.00  0.00    +0.000 C 
BRANCH  22  23
ATOM     23  C   UNL     1      44.820   5.606  11.670  0.00  0.00    +0.000 A 
ATOM     24  C   UNL     1      44.063   5.147  12.740  0.00  0.00    +0.000 A 
ATOM     25  S   UNL     1      43.424   3.581  12.501  0.00  0.00    +0.000 S 
ATOM     26  C   UNL     1      44.126   3.464  10.955  0.00  0.00    +0.000 A 
ATOM     27  N   UNL     1      43.987   2.340  10.200  0.00  0.00    +0.000 NA
ATOM     28  C   UNL     1      44.581   2.391   9.055  0.00  0.00    +0.000 A 
ATOM     29  N   UNL     1      45.296   3.464   8.589  0.00  0.00    +0.000 N 
ATOM     30  C   UNL     1      45.438   4.629   9.303  0.00  0.00    +0.000 A 
ATOM     31  O   UNL     1      46.010   5.601   8.822  0.00  0.00    +0.000 OA
ATOM     32  C   UNL     1      44.818   4.613  10.616  0.00  0.00    +0.000 A 
ATOM     33  H   UNL     1      45.703   3.456   7.666  0.00  0.00    +0.000 HD
ENDBRANCH  22  23
ENDBRANCH   1  22
TORSDOF 6
ENDMDL
MODEL 6
REMARK VINA RESULT:    -6.814      3.813      8.284
REMARK INTER + INTRA:         -10.202
REMARK INTER:                  -8.523
REMARK INTRA:                  -1.679
REMARK UNBOUND:                -0.998
REMARK  Name = 
REMARK  7 active torsions:
REMARK  status: ('A' for Active; 'I' for Inactive)
REMARK    1  A    between atoms: C_1  and  C_2
REMARK    2  A    between atoms: C_2  and  N_3
REMARK    3  A    between atoms: C_2  and  C_20
REMARK    4  A    between atoms: C_4  and  C_6
REMARK    5  A    between atoms: C_9  and  C_10
REMARK    6  A    between atoms: C_10  and  N_11
REMARK    7  A    between atoms: C_12  and  C_14
REMARK                            x       y       z     vdW  Elec       q    Type
REMARK                         _______ _______ _______ _____ _____    ______ ____
ROOT
ATOM      1  N   UNL     1      47.141   8.850  14.326  0.00  0.00    +0.000 N 
ATOM      2  C   UNL     1      48.279   9.233  14.998  0.00  0.00    +0.000 C 
ATOM      3  O   UNL     1      49.362   9.376  14.437  0.00  0.00    +0.000 OA
ATOM      4  H   UNL     1      46.262   9.051  14.792  0.00  0.00    +0.000 HD
ENDROOT
BRANCH   2   5
ATOM      5  C   UNL     1      48.130   9.340  16.516  0.00  0.00    +0.000 C 
ATOM      6  C   UNL     1      48.265  10.731  17.127  0.00  0.00    +0.000 C 
ATOM      7  C   UNL     1      48.667  10.498  18.587  0.00  0.00    +0.000 C 
ATOM      8  C   UNL     1      49.187   9.053  18.684  0.00  0.00    +0.000 C 
ATOM      9  C   UNL     1      49.237   8.566  17.234  0.00  0.00    +0.000 C 
BRANCH   8  10
ATOM     10  C   UNL     1      48.279   8.187  19.573  0.00  0.00    +0.000 C 
BRANCH  10  11
ATOM     11  N   UNL     1      47.895   6.945  18.933  0.00  0.00    +0.000 N 
ATOM     12  C   UNL     1      48.520   5.749  19.202  0.00  0.00    +0.000 C 
ATOM     13  O   UNL     1      49.418   5.645  20.037  0.00  0.00    +0.000 OA
ATOM     14  H   UNL     1      47.205   6.979  18.196  0.00  0.00    +0.000 HD
BRANCH  12  15
ATOM     15  C   UNL     1      48.051   4.621  18.440  0.00  0.00    +0.000 A 
ATOM     16  C   UNL     1      48.400   3.281  18.391  0.00  0.00    +0.000 A 
ATOM     17  C   UNL     1      47.546   2.714  17.423  0.00  0.00    +0.000 A 
ATOM     18  N   UNL     1      46.724   3.612  16.888  0.00  0.00    +0.000 NA
ATOM     19  N   UNL     1      47.047   4.756  17.516  0.00  0.00    +0.000 N 
ATOM     20  H   UNL     1      46.550   5.609  17.277  0.00  0.00    +0.000 HD
ENDBRANCH  12  15
ENDBRANCH  10  11
ENDBRANCH   8  10
ENDBRANCH   2   5
BRANCH   1  22
ATOM     21  C   UNL     1      46.691  10.012  12.166  0.00  0.00    +0.000 C 
ATOM     22  C   UNL     1      47.117   8.722  12.878  0.00  0.00    +0.000 C 
BRANCH  22  23
ATOM     23  C   UNL     1      46.208   7.582  12.446  0.00  0.00    +0.000 A 
ATOM     24  C   UNL     1      45.040   7.795  11.726  0.00  0.00    +0.000 A 
ATOM     25  S   UNL     1      44.102   6.383  11.515  0.00  0.00    +0.000 S 
ATOM     26  C   UNL     1      45.228   5.434  12.368  0.00  0.00    +0.000 A 
ATOM     27  N   UNL     1      45.016   4.107  12.580  0.00  0.00    +0.000 NA
ATOM     28  C   UNL     1      45.950   3.518  13.250  0.00  0.00    +0.000 A 
ATOM     29  N   UNL     1      47.082   4.131  13.721  0.00  0.00    +0.000 N 
ATOM     30  C   UNL     1      47.352   5.460  13.505  0.00  0.00    +0.000 A 
ATOM     31  O   UNL     1      48.414   5.956  13.866  0.00  0.00    +0.000 OA
ATOM     32  C   UNL     1      46.316   6.179  12.786  0.00  0.00    +0.000 A 
ATOM     33  H   UNL     1      47.794   3.604  14.203  0.00  0.00    +0.000 HD
ENDBRANCH  22  23
ENDBRANCH   1  22
TORSDOF 6
ENDMDL
MODEL 7
REMARK VINA RESULT:    -6.716      3.675      7.961
REMARK INTER + INTRA:         -10.070
REMARK INTER:                  -8.321
REMARK INTRA:                  -1.749
REMARK UNBOUND:                -0.998
REMARK  Name = 
REMARK  7 active torsions:
REMARK  status: ('A' for Active; 'I' for Inactive)
REMARK    1  A    between atoms: C_1  and  C_2
REMARK    2  A    between atoms: C_2  and  N_3
REMARK    3  A    between atoms: C_2  and  C_20
REMARK    4  A    between atoms: C_4  and  C_6
REMARK    5  A    between atoms: C_9  and  C_10
REMARK    6  A    between atoms: C_10  and  N_11
REMARK    7  A    between atoms: C_12  and  C_14
REMARK                            x       y       z     vdW  Elec       q    Type
REMARK                         _______ _______ _______ _____ _____    ______ ____
ROOT
ATOM      1  N   UNL     1      47.185   8.311  14.376  0.00  0.00    +0.000 N 
ATOM      2  C   UNL     1      48.325   8.734  15.020  0.00  0.00    +0.000 C 
ATOM      3  O   UNL     1      49.333   9.088  14.415  0.00  0.00    +0.000 OA
ATOM      4  H   UNL     1      46.331   8.333  14.925  0.00  0.00    +0.000 HD
ENDROOT
BRANCH   2   5
ATOM      5  C   UNL     1      48.294   8.606  16.543  0.00  0.00    +0.000 C 
ATOM      6  C   UNL     1      47.915   9.856  17.333  0.00  0.00    +0.000 C 
ATOM      7  C   UNL     1      48.517   9.654  18.728  0.00  0.00    +0.000 C 
ATOM      8  C   UNL     1      49.582   8.551  18.602  0.00  0.00    +0.000 C 
ATOM      9  C   UNL     1      49.683   8.286  17.098  0.00  0.00    +0.000 C 
BRANCH   8  10
ATOM     10  C   UNL     1      49.192   7.298  19.403  0.00  0.00    +0.000 C 
BRANCH  10  11
ATOM     11  N   UNL     1      49.376   6.075  18.647  0.00  0.00    +0.000 N 
ATOM     12  C   UNL     1      48.325   5.262  18.289  0.00  0.00    +0.000 C 
ATOM     13  O   UNL     1      47.154   5.539  18.548  0.00  0.00    +0.000 OA
ATOM     14  H   UNL     1      50.318   5.766  18.459  0.00  0.00    +0.000 HD
BRANCH  12  15
ATOM     15  C   UNL     1      48.687   4.058  17.586  0.00  0.00    +0.000 A 
ATOM     16  C   UNL     1      49.677   3.105  17.759  0.00  0.00    +0.000 A 
ATOM     17  C   UNL     1      49.478   2.175  16.717  0.00  0.00    +0.000 A 
ATOM     18  N   UNL     1      48.454   2.506  15.935  0.00  0.00    +0.000 NA
ATOM     19  N   UNL     1      47.993   3.646  16.478  0.00  0.00    +0.000 N 
ATOM     20  H   UNL     1      47.195   4.110  16.052  0.00  0.00    +0.000 HD
ENDBRANCH  12  15
ENDBRANCH  10  11
ENDBRANCH   8  10
ENDBRANCH   2   5
BRANCH   1  22
ATOM     21  C   UNL     1      46.625   9.774  12.436  0.00  0.00    +0.000 C 
ATOM     22  C   UNL     1      47.052   8.386  12.931  0.00  0.00    +0.000 C 
BRANCH  22  23
ATOM     23  C   UNL     1      46.073   7.342  12.417  0.00  0.00    +0.000 A 
ATOM     24  C   UNL     1      44.930   7.682  11.706  0.00  0.00    +0.000 A 
ATOM     25  S   UNL     1      43.901   6.354  11.394  0.00  0.00    +0.000 S 
ATOM     26  C   UNL     1      44.951   5.276  12.189  0.00  0.00    +0.000 A 
ATOM     27  N   UNL     1      44.647   3.955  12.310  0.00  0.00    +0.000 NA
ATOM     28  C   UNL     1      45.531   3.261  12.945  0.00  0.00    +0.000 A 
ATOM     29  N   UNL     1      46.697   3.762  13.464  0.00  0.00    +0.000 N 
ATOM     30  C   UNL     1      47.059   5.081  13.339  0.00  0.00    +0.000 A 
ATOM     31  O   UNL     1      48.148   5.478  13.739  0.00  0.00    +0.000 OA
ATOM     32  C   UNL     1      46.082   5.915  12.663  0.00  0.00    +0.000 A 
ATOM     33  H   UNL     1      47.367   3.157  13.914  0.00  0.00    +0.000 HD
ENDBRANCH  22  23
ENDBRANCH   1  22
TORSDOF 6
ENDMDL
MODEL 8
REMARK VINA RESULT:    -6.459      2.822      8.904
REMARK INTER + INTRA:          -9.723
REMARK INTER:                  -8.810
REMARK INTRA:                  -0.913
REMARK UNBOUND:                -0.998
REMARK  Name = 
REMARK  7 active torsions:
REMARK  status: ('A' for Active; 'I' for Inactive)
REMARK    1  A    between atoms: C_1  and  C_2
REMARK    2  A    between atoms: C_2  and  N_3
REMARK    3  A    between atoms: C_2  and  C_20
REMARK    4  A    between atoms: C_4  and  C_6
REMARK    5  A    between atoms: C_9  and  C_10
REMARK    6  A    between atoms: C_10  and  N_11
REMARK    7  A    between atoms: C_12  and  C_14
REMARK                            x       y       z     vdW  Elec       q    Type
REMARK                         _______ _______ _______ _____ _____    ______ ____
ROOT
ATOM      1  N   UNL     1      46.564   6.964  12.725  0.00  0.00    +0.000 N 
ATOM      2  C   UNL     1      47.711   7.724  12.718  0.00  0.00    +0.000 C 
ATOM      3  O   UNL     1      48.126   8.287  11.708  0.00  0.00    +0.000 OA
ATOM      4  H   UNL     1      46.146   6.799  13.636  0.00  0.00    +0.000 HD
ENDROOT
BRANCH   2   5
ATOM      5  C   UNL     1      48.506   7.708  14.024  0.00  0.00    +0.000 C 
ATOM      6  C   UNL     1      48.248   8.849  15.002  0.00  0.00    +0.000 C 
ATOM      7  C   UNL     1      49.509   8.937  15.869  0.00  0.00    +0.000 C 
ATOM      8  C   UNL     1      50.622   8.185  15.118  0.00  0.00    +0.000 C 
ATOM      9  C   UNL     1      50.006   7.848  13.758  0.00  0.00    +0.000 C 
BRANCH   8  10
ATOM     10  C   UNL     1      51.078   6.937  15.892  0.00  0.00    +0.000 C 
BRANCH  10  11
ATOM     11  N   UNL     1      50.364   6.767  17.142  0.00  0.00    +0.000 N 
ATOM     12  C   UNL     1      49.629   5.639  17.426  0.00  0.00    +0.000 C 
ATOM     13  O   UNL     1      49.562   4.680  16.657  0.00  0.00    +0.000 OA
ATOM     14  H   UNL     1      50.333   7.544  17.785  0.00  0.00    +0.000 HD
BRANCH  12  15
ATOM     15  C   UNL     1      48.939   5.654  18.690  0.00  0.00    +0.000 A 
ATOM     16  C   UNL     1      49.284   5.279  19.978  0.00  0.00    +0.000 A 
ATOM     17  C   UNL     1      48.141   5.553  20.759  0.00  0.00    +0.000 A 
ATOM     18  N   UNL     1      47.143   6.052  20.034  0.00  0.00    +0.000 NA
ATOM     19  N   UNL     1      47.647   6.103  18.789  0.00  0.00    +0.000 N 
ATOM     20  H   UNL     1      47.065   6.454  18.035  0.00  0.00    +0.000 HD
ENDBRANCH  12  15
ENDBRANCH  10  11
ENDBRANCH   8  10
ENDBRANCH   2   5
BRANCH   1  22
ATOM     21  C   UNL     1      44.735   8.087  11.455  0.00  0.00    +0.000 C 
ATOM     22  C   UNL     1      45.690   6.892  11.566  0.00  0.00    +0.000 C 
BRANCH  22  23
ATOM     23  C   UNL     1      44.886   5.601  11.568  0.00  0.00    +0.000 A 
ATOM     24  C   UNL     1      44.153   5.185  12.672  0.00  0.00    +0.000 A 
ATOM     25  S   UNL     1      43.483   3.623  12.495  0.00  0.00    +0.000 S 
ATOM     26  C   UNL     1      44.140   3.452  10.935  0.00  0.00    +0.000 A 
ATOM     27  N   UNL     1      43.962   2.310  10.216  0.00  0.00    +0.000 NA
ATOM     28  C   UNL     1      44.524   2.319   9.053  0.00  0.00    +0.000 A 
ATOM     29  N   UNL     1      45.242   3.367   8.537  0.00  0.00    +0.000 N 
ATOM     30  C   UNL     1      45.421   4.549   9.214  0.00  0.00    +0.000 A 
ATOM     31  O   UNL     1      45.994   5.498   8.690  0.00  0.00    +0.000 OA
ATOM     32  C   UNL     1      44.838   4.579  10.544  0.00  0.00    +0.000 A 
ATOM     33  H   UNL     1      45.622   3.326   7.604  0.00  0.00    +0.000 HD
ENDBRANCH  22  23
ENDBRANCH   1  22
TORSDOF 6
ENDMDL
MODEL 9
REMARK VINA RESULT:    -6.057      3.325      5.484
REMARK INTER + INTRA:          -9.179
REMARK INTER:                  -8.680
REMARK INTRA:                  -0.500
REMARK UNBOUND:                -0.998
REMARK  Name = 
REMARK  7 active torsions:
REMARK  status: ('A' for Active; 'I' for Inactive)
REMARK    1  A    between atoms: C_1  and  C_2
REMARK    2  A    between atoms: C_2  and  N_3
REMARK    3  A    between atoms: C_2  and  C_20
REMARK    4  A    between atoms: C_4  and  C_6
REMARK    5  A    between atoms: C_9  and  C_10
REMARK    6  A    between atoms: C_10  and  N_11
REMARK    7  A    between atoms: C_12  and  C_14
REMARK                            x       y       z     vdW  Elec       q    Type
REMARK                         _______ _______ _______ _____ _____    ______ ____
ROOT
ATOM      1  N   UNL     1      48.406   5.771  16.382  0.00  0.00    +0.000 N 
ATOM      2  C   UNL     1      49.053   6.904  15.946  0.00  0.00    +0.000 C 
ATOM      3  O   UNL     1      49.490   7.754  16.718  0.00  0.00    +0.000 OA
ATOM      4  H   UNL     1      48.356   5.005  15.717  0.00  0.00    +0.000 HD
ENDROOT
BRANCH   2   5
ATOM      5  C   UNL     1      49.071   7.097  14.430  0.00  0.00    +0.000 C 
ATOM      6  C   UNL     1      50.298   7.781  13.836  0.00  0.00    +0.000 C 
ATOM      7  C   UNL     1      49.832   8.367  12.499  0.00  0.00    +0.000 C 
ATOM      8  C   UNL     1      48.295   8.415  12.542  0.00  0.00    +0.000 C 
ATOM      9  C   UNL     1      47.940   8.023  13.978  0.00  0.00    +0.000 C 
BRANCH   8  10
ATOM     10  C   UNL     1      47.674   7.474  11.497  0.00  0.00    +0.000 C 
BRANCH  10  11
ATOM     11  N   UNL     1      46.644   6.622  12.058  0.00  0.00    +0.000 N 
ATOM     12  C   UNL     1      45.828   5.835  11.277  0.00  0.00    +0.000 C 
ATOM     13  O   UNL     1      45.945   5.769  10.054  0.00  0.00    +0.000 OA
ATOM     14  H   UNL     1      46.462   6.680  13.049  0.00  0.00    +0.000 HD
BRANCH  12  15
ATOM     15  C   UNL     1      44.823   5.089  11.990  0.00  0.00    +0.000 A 
ATOM     16  C   UNL     1      43.579   5.407  12.511  0.00  0.00    +0.000 A 
ATOM     17  C   UNL     1      43.109   4.211  13.092  0.00  0.00    +0.000 A 
ATOM     18  N   UNL     1      43.978   3.212  12.965  0.00  0.00    +0.000 NA
ATOM     19  N   UNL     1      45.005   3.766  12.298  0.00  0.00    +0.000 N 
ATOM     20  H   UNL     1      45.815   3.195  12.074  0.00  0.00    +0.000 HD
ENDBRANCH  12  15
ENDBRANCH  10  11
ENDBRANCH   8  10
ENDBRANCH   2   5
BRANCH   1  22
ATOM     21  C   UNL     1      47.926   6.630  18.673  0.00  0.00    +0.000 C 
ATOM     22  C   UNL     1      48.320   5.437  17.794  0.00  0.00    +0.000 C 
BRANCH  22  23
ATOM     23  C   UNL     1      49.630   4.849  18.296  0.00  0.00    +0.000 A 
ATOM     24  C   UNL     1      50.468   5.537  19.164  0.00  0.00    +0.000 A 
ATOM     25  S   UNL     1      51.958   4.747  19.441  0.00  0.00    +0.000 S 
ATOM     26  C   UNL     1      51.531   3.453  18.421  0.00  0.00    +0.000 A 
ATOM     27  N   UNL     1      52.390   2.423  18.191  0.00  0.00    +0.000 NA
ATOM     28  C   UNL     1      51.935   1.518  17.390  0.00  0.00    +0.000 A 
ATOM     29  N   UNL     1      50.697   1.543  16.802  0.00  0.00    +0.000 N 
ATOM     30  C   UNL     1      49.787   2.546  17.029  0.00  0.00    +0.000 A 
ATOM     31  O   UNL     1      48.656   2.493  16.556  0.00  0.00    +0.000 OA
ATOM     32  C   UNL     1      50.261   3.609  17.896  0.00  0.00    +0.000 A 
ATOM     33  H   UNL     1      50.385   0.783  16.216  0.00  0.00    +0.000 HD
ENDBRANCH  22  23
ENDBRANCH   1  22
TORSDOF 6
ENDMDL
