MODEL 1
REMARK VINA RESULT:    -8.947      0.000      0.000
REMARK INTER + INTRA:         -11.365
REMARK INTER:                 -11.039
REMARK INTRA:                  -0.326
REMARK UNBOUND:                -0.326
REMARK  Name = 
REMARK  4 active torsions:
REMARK  status: ('A' for Active; 'I' for Inactive)
REMARK    1  A    between atoms: C_2  and  C_4
REMARK    2  A    between atoms: N_8  and  C_9
REMARK    3  A    between atoms: C_9  and  C_10
REMARK    4  A    between atoms: C_12  and  C_13
REMARK                            x       y       z     vdW  Elec       q    Type
REMARK                         _______ _______ _______ _____ _____    ______ ____
ROOT
ATOM      1  C   UNL     1      43.998   4.826  11.634  0.00  0.00    +0.000 C 
ATOM      2  C   UNL     1      42.644   5.135  12.259  0.00  0.00    +0.000 C 
ATOM      3  C   UNL     1      43.072   5.867  11.030  0.00  0.00    +0.000 C 
ENDROOT
BRANCH   1   8
ATOM      4  C   UNL     1      46.394   2.971   7.530  0.00  0.00    +0.000 A 
ATOM      5  C   UNL     1      45.999   1.953   8.364  0.00  0.00    +0.000 A 
ATOM      6  N   UNL     1      45.257   2.142   9.476  0.00  0.00    +0.000 NA
ATOM      7  C   UNL     1      44.922   3.405   9.784  0.00  0.00    +0.000 A 
ATOM      8  N   UNL     1      44.160   3.550  10.934  0.00  0.00    +0.000 N 
ATOM      9  N   UNL     1      45.299   4.471   9.051  0.00  0.00    +0.000 NA
ATOM     10  C   UNL     1      46.026   4.230   7.936  0.00  0.00    +0.000 A 
ATOM     11  H   UNL     1      44.030   2.667  11.405  0.00  0.00    +0.000 HD
BRANCH   4  13
ATOM     12  N   UNL     1      48.496   2.423   6.450  0.00  0.00    +0.000 N 
ATOM     13  C   UNL     1      47.178   2.762   6.306  0.00  0.00    +0.000 C 
ATOM     14  O   UNL     1      46.660   2.854   5.201  0.00  0.00    +0.000 OA
ATOM     15  H   UNL     1      48.992   2.184   5.600  0.00  0.00    +0.000 HD
ATOM     16  H   UNL     1      48.892   2.094   7.319  0.00  0.00    +0.000 HD
ENDBRANCH   4  13
ENDBRANCH   1   8
BRANCH   1  17
ATOM     17  C   UNL     1      45.273   5.309  12.329  0.00  0.00    +0.000 A 
ATOM     18  C   UNL     1      45.645   4.727  13.542  0.00  0.00    +0.000 A 
ATOM     19  C   UNL     1      46.897   4.965  14.116  0.00  0.00    +0.000 A 
ATOM     20  C   UNL     1      47.726   5.884  13.469  0.00  0.00    +0.000 A 
ATOM     21  C   UNL     1      47.282   6.473  12.295  0.00  0.00    +0.000 A 
ATOM     22  N   UNL     1      46.090   6.204  11.715  0.00  0.00    +0.000 NA
BRANCH  19  23
ATOM     23  C   UNL     1      47.318   4.227  15.315  0.00  0.00    +0.000 A 
ATOM     24  C   UNL     1      47.177   4.747  16.606  0.00  0.00    +0.000 A 
ATOM     25  N   UNL     1      47.585   4.104  17.728  0.00  0.00    +0.000 NA
ATOM     26  C   UNL     1      48.141   2.895  17.516  0.00  0.00    +0.000 A 
ATOM     27  C   UNL     1      48.271   2.354  16.247  0.00  0.00    +0.000 A 
ATOM     28  N   UNL     1      47.863   2.998  15.127  0.00  0.00    +0.000 NA
ENDBRANCH  19  23
ENDBRANCH   1  17
TORSDOF 4
ENDMDL
MODEL 2
REMARK VINA RESULT:    -8.583      1.803      3.714
REMARK INTER + INTRA:         -10.917
REMARK INTER:                 -10.438
REMARK INTRA:                  -0.478
REMARK UNBOUND:                -0.326
REMARK  Name = 
REMARK  4 active torsions:
REMARK  status: ('A' for Active; 'I' for Inactive)
REMARK    1  A    between atoms: C_2  and  C_4
REMARK    2  A    between atoms: N_8  and  C_9
REMARK    3  A    between atoms: C_9  and  C_10
REMARK    4  A    between atoms: C_12  and  C_13
REMARK                            x       y       z     vdW  Elec       q    Type
REMARK                         _______ _______ _______ _____ _____    ______ ____
ROOT
ATOM      1  C   UNL     1      43.998   4.419  11.509  0.00  0.00    +0.000 C 
ATOM      2  C   UNL     1      42.656   4.702  12.170  0.00  0.00    +0.000 C 
ATOM      3  C   UNL     1      43.095   5.533  11.010  0.00  0.00    +0.000 C 
ENDROOT
BRANCH   1   8
ATOM      4  C   UNL     1      46.483   2.833   7.345  0.00  0.00    +0.000 A 
ATOM      5  C   UNL     1      45.995   1.765   8.057  0.00  0.00    +0.000 A 
ATOM      6  N   UNL     1      45.213   1.888   9.151  0.00  0.00    +0.000 NA
ATOM      7  C   UNL     1      44.931   3.132   9.568  0.00  0.00    +0.000 A 
ATOM      8  N   UNL     1      44.124   3.209  10.694  0.00  0.00    +0.000 N 
ATOM      9  N   UNL     1      45.399   4.240   8.960  0.00  0.00    +0.000 NA
ATOM     10  C   UNL     1      46.164   4.067   7.858  0.00  0.00    +0.000 A 
ATOM     11  H   UNL     1      43.926   2.294  11.069  0.00  0.00    +0.000 HD
BRANCH   4  13
ATOM     12  N   UNL     1      48.648   2.468   6.316  0.00  0.00    +0.000 N 
ATOM     13  C   UNL     1      47.311   2.699   6.140  0.00  0.00    +0.000 C 
ATOM     14  O   UNL     1      46.815   2.756   5.023  0.00  0.00    +0.000 OA
ATOM     15  H   UNL     1      49.183   2.277   5.478  0.00  0.00    +0.000 HD
ATOM     16  H   UNL     1      49.049   2.165   7.193  0.00  0.00    +0.000 HD
ENDBRANCH   4  13
ENDBRANCH   1   8
BRANCH   1  17
ATOM     17  C   UNL     1      45.289   4.806  12.236  0.00  0.00    +0.000 A 
ATOM     18  C   UNL     1      45.952   5.975  11.862  0.00  0.00    +0.000 A 
ATOM     19  C   UNL     1      47.005   6.495  12.620  0.00  0.00    +0.000 A 
ATOM     20  C   UNL     1      47.425   5.744  13.719  0.00  0.00    +0.000 A 
ATOM     21  C   UNL     1      46.764   4.561  14.011  0.00  0.00    +0.000 A 
ATOM     22  N   UNL     1      45.713   4.084  13.306  0.00  0.00    +0.000 NA
BRANCH  19  23
ATOM     23  C   UNL     1      47.588   7.803  12.284  0.00  0.00    +0.000 A 
ATOM     24  C   UNL     1      46.829   8.977  12.249  0.00  0.00    +0.000 A 
ATOM     25  N   UNL     1      47.330  10.191  11.911  0.00  0.00    +0.000 NA
ATOM     26  C   UNL     1      48.644  10.196  11.613  0.00  0.00    +0.000 A 
ATOM     27  C   UNL     1      49.418   9.047  11.662  0.00  0.00    +0.000 A 
ATOM     28  N   UNL     1      48.914   7.835  12.000  0.00  0.00    +0.000 NA
ENDBRANCH  19  23
ENDBRANCH   1  17
TORSDOF 4
ENDMDL
MODEL 3
REMARK VINA RESULT:    -6.995      3.157      7.575
REMARK INTER + INTRA:          -8.957
REMARK INTER:                  -9.121
REMARK INTRA:                   0.164
REMARK UNBOUND:                -0.326
REMARK  Name = 
REMARK  4 active torsions:
REMARK  status: ('A' for Active; 'I' for Inactive)
REMARK    1  A    between atoms: C_2  and  C_4
REMARK    2  A    between atoms: N_8  and  C_9
REMARK    3  A    between atoms: C_9  and  C_10
REMARK    4  A    between atoms: C_12  and  C_13
REMARK                            x       y       z     vdW  Elec       q    Type
REMARK                         _______ _______ _______ _____ _____    ______ ____
ROOT
ATOM      1  C   UNL     1      48.673   7.787  12.718  0.00  0.00    +0.000 C 
ATOM      2  C   UNL     1      49.792   7.160  11.898  0.00  0.00    +0.000 C 
ATOM      3  C   UNL     1      49.625   8.644  11.904  0.00  0.00    +0.000 C 
ENDROOT
BRANCH   1   8
ATOM      4  C   UNL     1      47.963   4.620  16.655  0.00  0.00    +0.000 A 
ATOM      5  C   UNL     1      48.738   5.692  17.026  0.00  0.00    +0.000 A 
ATOM      6  N   UNL     1      49.006   6.738  16.215  0.00  0.00    +0.000 NA
ATOM      7  C   UNL     1      48.504   6.697  14.971  0.00  0.00    +0.000 A 
ATOM      8  N   UNL     1      48.806   7.793  14.176  0.00  0.00    +0.000 N 
ATOM      9  N   UNL     1      47.770   5.668  14.504  0.00  0.00    +0.000 NA
ATOM     10  C   UNL     1      47.512   4.651  15.357  0.00  0.00    +0.000 A 
ATOM     11  H   UNL     1      49.424   8.433  14.650  0.00  0.00    +0.000 HD
BRANCH   4  13
ATOM     12  N   UNL     1      48.573   3.168  18.499  0.00  0.00    +0.000 N 
ATOM     13  C   UNL     1      47.649   3.495  17.545  0.00  0.00    +0.000 C 
ATOM     14  O   UNL     1      46.585   2.898  17.456  0.00  0.00    +0.000 OA
ATOM     15  H   UNL     1      48.295   2.459  19.166  0.00  0.00    +0.000 HD
ATOM     16  H   UNL     1      49.332   3.779  18.769  0.00  0.00    +0.000 HD
ENDBRANCH   4  13
ENDBRANCH   1   8
BRANCH   1  17
ATOM     17  C   UNL     1      47.226   7.657  12.235  0.00  0.00    +0.000 A 
ATOM     18  C   UNL     1      46.890   6.610  11.376  0.00  0.00    +0.000 A 
ATOM     19  C   UNL     1      45.559   6.308  11.073  0.00  0.00    +0.000 A 
ATOM     20  C   UNL     1      44.582   7.158  11.595  0.00  0.00    +0.000 A 
ATOM     21  C   UNL     1      44.979   8.216  12.399  0.00  0.00    +0.000 A 
ATOM     22  N   UNL     1      46.263   8.478  12.731  0.00  0.00    +0.000 NA
BRANCH  19  23
ATOM     23  C   UNL     1      45.229   5.112  10.285  0.00  0.00    +0.000 A 
ATOM     24  C   UNL     1      44.525   4.029  10.821  0.00  0.00    +0.000 A 
ATOM     25  N   UNL     1      44.235   2.899  10.129  0.00  0.00    +0.000 NA
ATOM     26  C   UNL     1      44.671   2.891   8.854  0.00  0.00    +0.000 A 
ATOM     27  C   UNL     1      45.352   3.961   8.298  0.00  0.00    +0.000 A 
ATOM     28  N   UNL     1      45.641   5.090   8.992  0.00  0.00    +0.000 NA
ENDBRANCH  19  23
ENDBRANCH   1  17
TORSDOF 4
ENDMDL
MODEL 4
REMARK VINA RESULT:    -6.792      4.253      8.299
REMARK INTER + INTRA:          -8.707
REMARK INTER:                  -8.767
REMARK INTRA:                   0.060
REMARK UNBOUND:                -0.326
REMARK  Name = 
REMARK  4 active torsions:
REMARK  status: ('A' for Active; 'I' for Inactive)
REMARK    1  A    between atoms: C_2  and  C_4
REMARK    2  A    between atoms: N_8  and  C_9
REMARK    3  A    between atoms: C_9  and  C_10
REMARK    4  A    between atoms: C_12  and  C_13
REMARK                            x       y       z     vdW  Elec       q    Type
REMARK                         _______ _______ _______ _____ _____    ______ ____
ROOT
ATOM      1  C   UNL     1      48.065   4.603  16.910  0.00  0.00    +0.000 C 
ATOM      2  C   UNL     1      46.888   4.773  17.861  0.00  0.00    +0.000 C 
ATOM      3  C   UNL     1      47.227   3.414  17.344  0.00  0.00    +0.000 C 
ENDROOT
BRANCH   1   8
ATOM      4  C   UNL     1      52.201   1.715  17.676  0.00  0.00    +0.000 A 
ATOM      5  C   UNL     1      52.517   3.049  17.762  0.00  0.00    +0.000 A 
ATOM      6  N   UNL     1      51.601   4.041  17.699  0.00  0.00    +0.000 NA
ATOM      7  C   UNL     1      50.321   3.684  17.512  0.00  0.00    +0.000 A 
ATOM      8  N   UNL     1      49.418   4.736  17.455  0.00  0.00    +0.000 N 
ATOM      9  N   UNL     1      49.921   2.405  17.374  0.00  0.00    +0.000 NA
ATOM     10  C   UNL     1      50.871   1.446  17.462  0.00  0.00    +0.000 A 
ATOM     11  H   UNL     1      49.887   5.628  17.499  0.00  0.00    +0.000 HD
BRANCH   4  13
ATOM     12  N   UNL     1      53.539  -0.006  16.614  0.00  0.00    +0.000 N 
ATOM     13  C   UNL     1      53.193   0.637  17.771  0.00  0.00    +0.000 C 
ATOM     14  O   UNL     1      53.713   0.350  18.840  0.00  0.00    +0.000 OA
ATOM     15  H   UNL     1      54.296  -0.675  16.683  0.00  0.00    +0.000 HD
ATOM     16  H   UNL     1      53.332   0.357  15.694  0.00  0.00    +0.000 HD
ENDBRANCH   4  13
ENDBRANCH   1   8
BRANCH   1  17
ATOM     17  C   UNL     1      47.938   5.088  15.464  0.00  0.00    +0.000 A 
ATOM     18  C   UNL     1      46.931   4.555  14.657  0.00  0.00    +0.000 A 
ATOM     19  C   UNL     1      46.624   5.104  13.409  0.00  0.00    +0.000 A 
ATOM     20  C   UNL     1      47.430   6.153  12.963  0.00  0.00    +0.000 A 
ATOM     21  C   UNL     1      48.452   6.606  13.784  0.00  0.00    +0.000 A 
ATOM     22  N   UNL     1      48.716   6.106  15.012  0.00  0.00    +0.000 NA
BRANCH  19  23
ATOM     23  C   UNL     1      45.466   4.616  12.647  0.00  0.00    +0.000 A 
ATOM     24  C   UNL     1      44.898   5.342  11.594  0.00  0.00    +0.000 A 
ATOM     25  N   UNL     1      43.811   4.934  10.895  0.00  0.00    +0.000 NA
ATOM     26  C   UNL     1      43.303   3.748  11.283  0.00  0.00    +0.000 A 
ATOM     27  C   UNL     1      43.862   3.004  12.309  0.00  0.00    +0.000 A 
ATOM     28  N   UNL     1      44.949   3.414  13.007  0.00  0.00    +0.000 NA
ENDBRANCH  19  23
ENDBRANCH   1  17
TORSDOF 4
ENDMDL
MODEL 5
REMARK VINA RESULT:    -6.417      4.292      8.078
REMARK INTER + INTRA:          -8.244
REMARK INTER:                  -7.659
REMARK INTRA:                  -0.586
REMARK UNBOUND:                -0.326
REMARK  Name = 
REMARK  4 active torsions:
REMARK  status: ('A' for Active; 'I' for Inactive)
REMARK    1  A    between atoms: C_2  and  C_4
REMARK    2  A    between atoms: N_8  and  C_9
REMARK    3  A    between atoms: C_9  and  C_10
REMARK    4  A    between atoms: C_12  and  C_13
REMARK                            x       y       z     vdW  Elec       q    Type
REMARK                         _______ _______ _______ _____ _____    ______ ____
ROOT
ATOM      1  C   UNL     1      49.208   7.746  12.348  0.00  0.00    +0.000 C 
ATOM      2  C   UNL     1      50.167   7.803  11.168  0.00  0.00    +0.000 C 
ATOM      3  C   UNL     1      50.045   8.982  12.076  0.00  0.00    +0.000 C 
ENDROOT
BRANCH   1   8
ATOM      4  C   UNL     1      48.645   7.693  17.419  0.00  0.00    +0.000 A 
ATOM      5  C   UNL     1      49.004   6.450  16.956  0.00  0.00    +0.000 A 
ATOM      6  N   UNL     1      49.316   6.192  15.668  0.00  0.00    +0.000 NA
ATOM      7  C   UNL     1      49.236   7.213  14.800  0.00  0.00    +0.000 A 
ATOM      8  N   UNL     1      49.567   6.901  13.490  0.00  0.00    +0.000 N 
ATOM      9  N   UNL     1      48.853   8.456  15.152  0.00  0.00    +0.000 NA
ATOM     10  C   UNL     1      48.567   8.670  16.457  0.00  0.00    +0.000 A 
ATOM     11  H   UNL     1      49.756   5.916  13.381  0.00  0.00    +0.000 HD
BRANCH   4  13
ATOM     12  N   UNL     1      47.181   8.671  19.087  0.00  0.00    +0.000 N 
ATOM     13  C   UNL     1      48.331   7.979  18.824  0.00  0.00    +0.000 C 
ATOM     14  O   UNL     1      49.056   7.581  19.727  0.00  0.00    +0.000 OA
ATOM     15  H   UNL     1      46.930   8.769  20.063  0.00  0.00    +0.000 HD
ATOM     16  H   UNL     1      46.441   8.794  18.410  0.00  0.00    +0.000 HD
ENDBRANCH   4  13
ENDBRANCH   1   8
BRANCH   1  17
ATOM     17  C   UNL     1      47.700   7.823  12.094  0.00  0.00    +0.000 A 
ATOM     18  C   UNL     1      46.981   6.639  11.922  0.00  0.00    +0.000 A 
ATOM     19  C   UNL     1      45.583   6.627  11.903  0.00  0.00    +0.000 A 
ATOM     20  C   UNL     1      44.938   7.862  11.972  0.00  0.00    +0.000 A 
ATOM     21  C   UNL     1      45.706   9.011  12.087  0.00  0.00    +0.000 A 
ATOM     22  N   UNL     1      47.056   9.018  12.155  0.00  0.00    +0.000 NA
BRANCH  19  23
ATOM     23  C   UNL     1      44.852   5.352  11.868  0.00  0.00    +0.000 A 
ATOM     24  C   UNL     1      44.337   4.748  13.020  0.00  0.00    +0.000 A 
ATOM     25  N   UNL     1      43.687   3.558  13.023  0.00  0.00    +0.000 NA
ATOM     26  C   UNL     1      43.557   2.983  11.812  0.00  0.00    +0.000 A 
ATOM     27  C   UNL     1      44.042   3.574  10.656  0.00  0.00    +0.000 A 
ATOM     28  N   UNL     1      44.691   4.764  10.655  0.00  0.00    +0.000 NA
ENDBRANCH  19  23
ENDBRANCH   1  17
TORSDOF 4
ENDMDL
MODEL 6
REMARK VINA RESULT:    -6.354      2.717      4.453
REMARK INTER + INTRA:          -8.166
REMARK INTER:                  -8.271
REMARK INTRA:                   0.104
REMARK UNBOUND:                -0.326
REMARK  Name = 
REMARK  4 active torsions:
REMARK  status: ('A' for Active; 'I' for Inactive)
REMARK    1  A    between atoms: C_2  and  C_4
REMARK    2  A    between atoms: N_8  and  C_9
REMARK    3  A    between atoms: C_9  and  C_10
REMARK    4  A    between atoms: C_12  and  C_13
REMARK                            x       y       z     vdW  Elec       q    Type
REMARK                         _______ _______ _______ _____ _____    ______ ____
ROOT
ATOM      1  C   UNL     1      47.614   8.531  13.207  0.00  0.00    +0.000 C 
ATOM      2  C   UNL     1      47.842   9.947  12.694  0.00  0.00    +0.000 C 
ATOM      3  C   UNL     1      48.161   8.783  11.814  0.00  0.00    +0.000 C 
ENDROOT
BRANCH   1   8
ATOM      4  C   UNL     1      44.568   4.961  11.204  0.00  0.00    +0.000 A 
ATOM      5  C   UNL     1      44.039   5.453  12.372  0.00  0.00    +0.000 A 
ATOM      6  N   UNL     1      44.581   6.476  13.068  0.00  0.00    +0.000 NA
ATOM      7  C   UNL     1      45.716   7.011  12.591  0.00  0.00    +0.000 A 
ATOM      8  N   UNL     1      46.234   8.058  13.337  0.00  0.00    +0.000 N 
ATOM      9  N   UNL     1      46.331   6.568  11.477  0.00  0.00    +0.000 NA
ATOM     10  C   UNL     1      45.743   5.552  10.805  0.00  0.00    +0.000 A 
ATOM     11  H   UNL     1      45.697   8.214  14.177  0.00  0.00    +0.000 HD
BRANCH   4  13
ATOM     12  N   UNL     1      44.212   3.829   9.089  0.00  0.00    +0.000 N 
ATOM     13  C   UNL     1      43.965   3.866  10.434  0.00  0.00    +0.000 C 
ATOM     14  O   UNL     1      43.297   3.001  10.984  0.00  0.00    +0.000 OA
ATOM     15  H   UNL     1      43.874   3.013   8.594  0.00  0.00    +0.000 HD
ATOM     16  H   UNL     1      44.947   4.362   8.645  0.00  0.00    +0.000 HD
ENDBRANCH   4  13
ENDBRANCH   1   8
BRANCH   1  17
ATOM     17  C   UNL     1      48.561   7.953  14.262  0.00  0.00    +0.000 A 
ATOM     18  C   UNL     1      48.137   6.868  15.031  0.00  0.00    +0.000 A 
ATOM     19  C   UNL     1      49.020   6.162  15.851  0.00  0.00    +0.000 A 
ATOM     20  C   UNL     1      50.327   6.644  15.939  0.00  0.00    +0.000 A 
ATOM     21  C   UNL     1      50.678   7.760  15.194  0.00  0.00    +0.000 A 
ATOM     22  N   UNL     1      49.835   8.413  14.363  0.00  0.00    +0.000 NA
BRANCH  19  23
ATOM     23  C   UNL     1      48.581   4.937  16.535  0.00  0.00    +0.000 A 
ATOM     24  C   UNL     1      47.249   4.508  16.529  0.00  0.00    +0.000 A 
ATOM     25  N   UNL     1      46.808   3.402  17.177  0.00  0.00    +0.000 NA
ATOM     26  C   UNL     1      47.762   2.717  17.838  0.00  0.00    +0.000 A 
ATOM     27  C   UNL     1      49.089   3.114  17.841  0.00  0.00    +0.000 A 
ATOM     28  N   UNL     1      49.528   4.220  17.191  0.00  0.00    +0.000 NA
ENDBRANCH  19  23
ENDBRANCH   1  17
TORSDOF 4
ENDMDL
MODEL 7
REMARK VINA RESULT:    -6.276      3.465      5.133
REMARK INTER + INTRA:          -8.070
REMARK INTER:                  -7.569
REMARK INTRA:                  -0.501
REMARK UNBOUND:                -0.326
REMARK  Name = 
REMARK  4 active torsions:
REMARK  status: ('A' for Active; 'I' for Inactive)
REMARK    1  A    between atoms: C_2  and  C_4
REMARK    2  A    between atoms: N_8  and  C_9
REMARK    3  A    between atoms: C_9  and  C_10
REMARK    4  A    between atoms: C_12  and  C_13
REMARK                            x       y       z     vdW  Elec       q    Type
REMARK                         _______ _______ _______ _____ _____    ______ ____
ROOT
ATOM      1  C   UNL     1      48.364   8.236  12.717  0.00  0.00    +0.000 C 
ATOM      2  C   UNL     1      49.409   9.087  12.010  0.00  0.00    +0.000 C 
ATOM      3  C   UNL     1      49.484   7.598  11.916  0.00  0.00    +0.000 C 
ENDROOT
BRANCH   1   8
ATOM      4  C   UNL     1      44.582   4.887  11.996  0.00  0.00    +0.000 A 
ATOM      5  C   UNL     1      44.120   6.176  11.880  0.00  0.00    +0.000 A 
ATOM      6  N   UNL     1      44.918   7.264  11.926  0.00  0.00    +0.000 NA
ATOM      7  C   UNL     1      46.229   7.058  12.125  0.00  0.00    +0.000 A 
ATOM      8  N   UNL     1      47.008   8.204  12.164  0.00  0.00    +0.000 N 
ATOM      9  N   UNL     1      46.768   5.834  12.292  0.00  0.00    +0.000 NA
ATOM     10  C   UNL     1      45.932   4.773  12.222  0.00  0.00    +0.000 A 
ATOM     11  H   UNL     1      46.443   9.037  12.099  0.00  0.00    +0.000 HD
BRANCH   4  13
ATOM     12  N   UNL     1      44.006   2.656  12.753  0.00  0.00    +0.000 N 
ATOM     13  C   UNL     1      43.718   3.703  11.920  0.00  0.00    +0.000 C 
ATOM     14  O   UNL     1      42.757   3.670  11.164  0.00  0.00    +0.000 OA
ATOM     15  H   UNL     1      43.342   1.893  12.759  0.00  0.00    +0.000 HD
ATOM     16  H   UNL     1      44.618   2.737  13.553  0.00  0.00    +0.000 HD
ENDBRANCH   4  13
ENDBRANCH   1   8
BRANCH   1  17
ATOM     17  C   UNL     1      48.405   8.111  14.243  0.00  0.00    +0.000 A 
ATOM     18  C   UNL     1      48.931   6.952  14.814  0.00  0.00    +0.000 A 
ATOM     19  C   UNL     1      49.196   6.863  16.183  0.00  0.00    +0.000 A 
ATOM     20  C   UNL     1      48.825   7.954  16.972  0.00  0.00    +0.000 A 
ATOM     21  C   UNL     1      48.255   9.059  16.357  0.00  0.00    +0.000 A 
ATOM     22  N   UNL     1      48.045   9.162  15.025  0.00  0.00    +0.000 NA
BRANCH  19  23
ATOM     23  C   UNL     1      49.884   5.687  16.733  0.00  0.00    +0.000 A 
ATOM     24  C   UNL     1      51.253   5.684  17.025  0.00  0.00    +0.000 A 
ATOM     25  N   UNL     1      51.922   4.605  17.501  0.00  0.00    +0.000 NA
ATOM     26  C   UNL     1      51.163   3.509  17.690  0.00  0.00    +0.000 A 
ATOM     27  C   UNL     1      49.803   3.496  17.426  0.00  0.00    +0.000 A 
ATOM     28  N   UNL     1      49.135   4.576  16.951  0.00  0.00    +0.000 NA
ENDBRANCH  19  23
ENDBRANCH   1  17
TORSDOF 4
ENDMDL
MODEL 8
REMARK VINA RESULT:    -6.065      3.297      8.177
REMARK INTER + INTRA:          -7.810
REMARK INTER:                  -9.270
REMARK INTRA:                   1.461
REMARK UNBOUND:                -0.326
REMARK  Name = 
REMARK  4 active torsions:
REMARK  status: ('A' for Active; 'I' for Inactive)
REMARK    1  A    between atoms: C_2  and  C_4
REMARK    2  A    between atoms: N_8  and  C_9
REMARK    3  A    between atoms: C_9  and  C_10
REMARK    4  A    between atoms: C_12  and  C_13
REMARK                            x       y       z     vdW  Elec       q    Type
REMARK                         _______ _______ _______ _____ _____    ______ ____
ROOT
ATOM      1  C   UNL     1      46.448   5.487  13.331  0.00  0.00    +0.000 C 
ATOM      2  C   UNL     1      47.809   6.112  13.058  0.00  0.00    +0.000 C 
ATOM      3  C   UNL     1      46.762   6.907  13.766  0.00  0.00    +0.000 C 
ENDROOT
BRANCH   1   8
ATOM      4  C   UNL     1      48.469   4.411  17.891  0.00  0.00    +0.000 A 
ATOM      5  C   UNL     1      47.337   3.665  17.672  0.00  0.00    +0.000 A 
ATOM      6  N   UNL     1      46.650   3.670  16.510  0.00  0.00    +0.000 NA
ATOM      7  C   UNL     1      47.096   4.478  15.535  0.00  0.00    +0.000 A 
ATOM      8  N   UNL     1      46.359   4.449  14.361  0.00  0.00    +0.000 N 
ATOM      9  N   UNL     1      48.172   5.278  15.672  0.00  0.00    +0.000 NA
ATOM     10  C   UNL     1      48.838   5.225  16.848  0.00  0.00    +0.000 A 
ATOM     11  H   UNL     1      45.546   3.859  14.449  0.00  0.00    +0.000 HD
BRANCH   4  13
ATOM     12  N   UNL     1      48.654   3.770  20.223  0.00  0.00    +0.000 N 
ATOM     13  C   UNL     1      49.231   4.385  19.145  0.00  0.00    +0.000 C 
ATOM     14  O   UNL     1      50.355   4.865  19.212  0.00  0.00    +0.000 OA
ATOM     15  H   UNL     1      49.235   3.672  21.046  0.00  0.00    +0.000 HD
ATOM     16  H   UNL     1      47.858   3.152  20.148  0.00  0.00    +0.000 HD
ENDBRANCH   4  13
ENDBRANCH   1   8
BRANCH   1  17
ATOM     17  C   UNL     1      45.468   5.285  12.172  0.00  0.00    +0.000 A 
ATOM     18  C   UNL     1      45.924   4.684  10.998  0.00  0.00    +0.000 A 
ATOM     19  C   UNL     1      45.041   4.277   9.993  0.00  0.00    +0.000 A 
ATOM     20  C   UNL     1      43.691   4.581  10.174  0.00  0.00    +0.000 A 
ATOM     21  C   UNL     1      43.303   5.230  11.337  0.00  0.00    +0.000 A 
ATOM     22  N   UNL     1      44.152   5.579  12.330  0.00  0.00    +0.000 NA
BRANCH  19  23
ATOM     23  C   UNL     1      45.534   3.516   8.835  0.00  0.00    +0.000 A 
ATOM     24  C   UNL     1      45.646   2.122   8.845  0.00  0.00    +0.000 A 
ATOM     25  N   UNL     1      46.127   1.396   7.805  0.00  0.00    +0.000 NA
ATOM     26  C   UNL     1      46.490   2.121   6.730  0.00  0.00    +0.000 A 
ATOM     27  C   UNL     1      46.368   3.501   6.693  0.00  0.00    +0.000 A 
ATOM     28  N   UNL     1      45.887   4.225   7.733  0.00  0.00    +0.000 NA
ENDBRANCH  19  23
ENDBRANCH   1  17
TORSDOF 4
ENDMDL
