MODEL 1
REMARK VINA RESULT:    -8.198      0.000      0.000
REMARK INTER + INTRA:         -11.646
REMARK INTER:                 -10.594
REMARK INTRA:                  -1.052
REMARK UNBOUND:                -1.052
REMARK  Name = 
REMARK  6 active torsions:
REMARK  status: ('A' for Active; 'I' for Inactive)
REMARK    1  A    between atoms: C_1  and  O_2
REMARK    2  A    between atoms: O_2  and  C_3
REMARK    3  A    between atoms: C_7  and  N_8
REMARK    4  A    between atoms: C_12  and  C_13
REMARK    5  A    between atoms: C_13  and  N_14
REMARK    6  A    between atoms: C_15  and  C_17
REMARK                            x       y       z     vdW  Elec       q    Type
REMARK                         _______ _______ _______ _____ _____    ______ ____
ROOT
ATOM      1  N   UNL     1      44.828   5.737  10.049  0.00  0.00    +0.000 N 
ATOM      2  C   UNL     1      45.520   6.466  11.015  0.00  0.00    +0.000 A 
ATOM      3  C   UNL     1      44.873   7.530  11.641  0.00  0.00    +0.000 A 
ATOM      4  C   UNL     1      45.522   8.239  12.652  0.00  0.00    +0.000 A 
ATOM      5  C   UNL     1      46.809   7.869  13.030  0.00  0.00    +0.000 A 
ATOM      6  C   UNL     1      47.383   6.804  12.358  0.00  0.00    +0.000 A 
ATOM      7  N   UNL     1      46.768   6.108  11.380  0.00  0.00    +0.000 NA
ATOM      8  H   UNL     1      43.960   6.130   9.715  0.00  0.00    +0.000 HD
ENDROOT
BRANCH   1  13
ATOM      9  C   UNL     1      46.052   3.440   7.641  0.00  0.00    +0.000 A 
ATOM     10  C   UNL     1      45.566   2.201   8.017  0.00  0.00    +0.000 A 
ATOM     11  C   UNL     1      44.808   2.132   9.174  0.00  0.00    +0.000 A 
ATOM     12  C   UNL     1      44.561   3.298   9.892  0.00  0.00    +0.000 A 
ATOM     13  C   UNL     1      45.073   4.512   9.443  0.00  0.00    +0.000 A 
ATOM     14  N   UNL     1      45.831   4.582   8.327  0.00  0.00    +0.000 NA
BRANCH   9  16
ATOM     15  C   UNL     1      47.783   2.445   6.431  0.00  0.00    +0.000 C 
ATOM     16  O   UNL     1      46.801   3.476   6.480  0.00  0.00    +0.000 OA
ENDBRANCH   9  16
ENDBRANCH   1  13
BRANCH   5  17
ATOM     17  C   UNL     1      47.579   8.621  14.068  0.00  0.00    +0.000 C 
BRANCH  17  18
ATOM     18  N   UNL     1      47.893   7.769  15.187  0.00  0.00    +0.000 N 
ATOM     19  C   UNL     1      49.131   7.204  15.351  0.00  0.00    +0.000 C 
ATOM     20  O   UNL     1      50.060   7.427  14.581  0.00  0.00    +0.000 OA
ATOM     21  H   UNL     1      47.107   7.393  15.708  0.00  0.00    +0.000 HD
BRANCH  19  22
ATOM     22  C   UNL     1      49.308   6.368  16.544  0.00  0.00    +0.000 A 
ATOM     23  C   UNL     1      50.239   6.741  17.504  0.00  0.00    +0.000 A 
ATOM     24  S   UNL     1      50.304   5.688  18.842  0.00  0.00    +0.000 S 
ATOM     25  C   UNL     1      49.122   4.668  18.164  0.00  0.00    +0.000 A 
ATOM     26  N   UNL     1      48.730   3.534  18.804  0.00  0.00    +0.000 NA
ATOM     27  C   UNL     1      47.853   2.835  18.163  0.00  0.00    +0.000 A 
ATOM     28  N   UNL     1      47.323   3.176  16.945  0.00  0.00    +0.000 N 
ATOM     29  C   UNL     1      47.638   4.343  16.291  0.00  0.00    +0.000 A 
ATOM     30  O   UNL     1      47.062   4.679  15.265  0.00  0.00    +0.000 OA
ATOM     31  C   UNL     1      48.659   5.143  16.950  0.00  0.00    +0.000 A 
ATOM     32  H   UNL     1      46.620   2.596  16.510  0.00  0.00    +0.000 HD
ENDBRANCH  19  22
ENDBRANCH  17  18
ENDBRANCH   5  17
TORSDOF 5
ENDMDL
MODEL 2
REMARK VINA RESULT:    -7.566      4.473      9.195
REMARK INTER + INTRA:         -10.830
REMARK INTER:                  -9.842
REMARK INTRA:                  -0.988
REMARK UNBOUND:                -1.052
REMARK  Name = 
REMARK  6 active torsions:
REMARK  status: ('A' for Active; 'I' for Inactive)
REMARK    1  A    between atoms: C_1  and  O_2
REMARK    2  A    between atoms: O_2  and  C_3
REMARK    3  A    between atoms: C_7  and  N_8
REMARK    4  A    between atoms: C_12  and  C_13
REMARK    5  A    between atoms: C_13  and  N_14
REMARK    6  A    between atoms: C_15  and  C_17
REMARK                            x       y       z     vdW  Elec       q    Type
REMARK                         _______ _______ _______ _____ _____    ______ ____
ROOT
ATOM      1  N   UNL     1      51.749   1.013  17.357  0.00  0.00    +0.000 N 
ATOM      2  C   UNL     1      51.003   2.189  17.280  0.00  0.00    +0.000 A 
ATOM      3  C   UNL     1      49.612   2.100  17.279  0.00  0.00    +0.000 A 
ATOM      4  C   UNL     1      48.842   3.262  17.261  0.00  0.00    +0.000 A 
ATOM      5  C   UNL     1      49.474   4.502  17.252  0.00  0.00    +0.000 A 
ATOM      6  C   UNL     1      50.858   4.505  17.250  0.00  0.00    +0.000 A 
ATOM      7  N   UNL     1      51.617   3.390  17.269  0.00  0.00    +0.000 NA
ATOM      8  H   UNL     1      51.251   0.147  17.220  0.00  0.00    +0.000 HD
ENDROOT
BRANCH   1  13
ATOM      9  C   UNL     1      54.827   1.118  19.114  0.00  0.00    +0.000 A 
ATOM     10  C   UNL     1      55.753   0.500  18.294  0.00  0.00    +0.000 A 
ATOM     11  C   UNL     1      55.303  -0.016  17.090  0.00  0.00    +0.000 A 
ATOM     12  C   UNL     1      53.959   0.120  16.756  0.00  0.00    +0.000 A 
ATOM     13  C   UNL     1      53.088   0.768  17.628  0.00  0.00    +0.000 A 
ATOM     14  N   UNL     1      53.518   1.253  18.812  0.00  0.00    +0.000 NA
BRANCH   9  16
ATOM     15  C   UNL     1      54.617   2.799  20.720  0.00  0.00    +0.000 C 
ATOM     16  O   UNL     1      55.309   1.625  20.306  0.00  0.00    +0.000 OA
ENDBRANCH   9  16
ENDBRANCH   1  13
BRANCH   5  17
ATOM     17  C   UNL     1      48.708   5.784  17.178  0.00  0.00    +0.000 C 
BRANCH  17  18
ATOM     18  N   UNL     1      47.844   5.795  16.024  0.00  0.00    +0.000 N 
ATOM     19  C   UNL     1      48.261   6.253  14.802  0.00  0.00    +0.000 C 
ATOM     20  O   UNL     1      49.410   6.638  14.604  0.00  0.00    +0.000 OA
ATOM     21  H   UNL     1      46.849   5.697  16.199  0.00  0.00    +0.000 HD
BRANCH  19  22
ATOM     22  C   UNL     1      47.276   6.193  13.716  0.00  0.00    +0.000 A 
ATOM     23  C   UNL     1      46.891   7.365  13.080  0.00  0.00    +0.000 A 
ATOM     24  S   UNL     1      45.767   7.124  11.822  0.00  0.00    +0.000 S 
ATOM     25  C   UNL     1      45.718   5.449  12.113  0.00  0.00    +0.000 A 
ATOM     26  N   UNL     1      44.906   4.638  11.384  0.00  0.00    +0.000 NA
ATOM     27  C   UNL     1      44.940   3.395  11.731  0.00  0.00    +0.000 A 
ATOM     28  N   UNL     1      45.725   2.887  12.734  0.00  0.00    +0.000 N 
ATOM     29  C   UNL     1      46.610   3.654  13.454  0.00  0.00    +0.000 A 
ATOM     30  O   UNL     1      47.383   3.155  14.261  0.00  0.00    +0.000 OA
ATOM     31  C   UNL     1      46.574   5.072  13.133  0.00  0.00    +0.000 A 
ATOM     32  H   UNL     1      45.723   1.898  12.938  0.00  0.00    +0.000 HD
ENDBRANCH  19  22
ENDBRANCH  17  18
ENDBRANCH   5  17
TORSDOF 5
ENDMDL
MODEL 3
REMARK VINA RESULT:    -6.845      1.871      2.447
REMARK INTER + INTRA:          -9.898
REMARK INTER:                  -8.997
REMARK INTRA:                  -0.901
REMARK UNBOUND:                -1.052
REMARK  Name = 
REMARK  6 active torsions:
REMARK  status: ('A' for Active; 'I' for Inactive)
REMARK    1  A    between atoms: C_1  and  O_2
REMARK    2  A    between atoms: O_2  and  C_3
REMARK    3  A    between atoms: C_7  and  N_8
REMARK    4  A    between atoms: C_12  and  C_13
REMARK    5  A    between atoms: C_13  and  N_14
REMARK    6  A    between atoms: C_15  and  C_17
REMARK                            x       y       z     vdW  Elec       q    Type
REMARK                         _______ _______ _______ _____ _____    ______ ____
ROOT
ATOM      1  N   UNL     1      45.219   6.458  10.425  0.00  0.00    +0.000 N 
ATOM      2  C   UNL     1      45.963   6.977  11.484  0.00  0.00    +0.000 A 
ATOM      3  C   UNL     1      45.686   8.269  11.926  0.00  0.00    +0.000 A 
ATOM      4  C   UNL     1      46.376   8.791  13.021  0.00  0.00    +0.000 A 
ATOM      5  C   UNL     1      47.330   8.010  13.664  0.00  0.00    +0.000 A 
ATOM      6  C   UNL     1      47.549   6.739  13.162  0.00  0.00    +0.000 A 
ATOM      7  N   UNL     1      46.889   6.220  12.106  0.00  0.00    +0.000 NA
ATOM      8  H   UNL     1      44.645   7.108   9.909  0.00  0.00    +0.000 HD
ENDROOT
BRANCH   1  13
ATOM      9  C   UNL     1      44.162   3.076  10.308  0.00  0.00    +0.000 A 
ATOM     10  C   UNL     1      44.748   2.534   9.179  0.00  0.00    +0.000 A 
ATOM     11  C   UNL     1      45.519   3.372   8.390  0.00  0.00    +0.000 A 
ATOM     12  C   UNL     1      45.678   4.701   8.769  0.00  0.00    +0.000 A 
ATOM     13  C   UNL     1      45.066   5.171   9.928  0.00  0.00    +0.000 A 
ATOM     14  N   UNL     1      44.297   4.364  10.689  0.00  0.00    +0.000 NA
BRANCH   9  16
ATOM     15  C   UNL     1      43.439   2.539  12.462  0.00  0.00    +0.000 C 
ATOM     16  O   UNL     1      43.403   2.213  11.076  0.00  0.00    +0.000 OA
ENDBRANCH   9  16
ENDBRANCH   1  13
BRANCH   5  17
ATOM     17  C   UNL     1      48.142   8.529  14.808  0.00  0.00    +0.000 C 
BRANCH  17  18
ATOM     18  N   UNL     1      49.020   7.505  15.315  0.00  0.00    +0.000 N 
ATOM     19  C   UNL     1      49.125   7.228  16.654  0.00  0.00    +0.000 C 
ATOM     20  O   UNL     1      48.442   7.803  17.496  0.00  0.00    +0.000 OA
ATOM     21  H   UNL     1      49.744   7.173  14.687  0.00  0.00    +0.000 HD
BRANCH  19  22
ATOM     22  C   UNL     1      50.051   6.152  17.023  0.00  0.00    +0.000 A 
ATOM     23  C   UNL     1      51.359   6.466  17.362  0.00  0.00    +0.000 A 
ATOM     24  S   UNL     1      52.298   5.111  17.797  0.00  0.00    +0.000 S 
ATOM     25  C   UNL     1      51.002   4.051  17.501  0.00  0.00    +0.000 A 
ATOM     26  N   UNL     1      51.151   2.707  17.655  0.00  0.00    +0.000 NA
ATOM     27  C   UNL     1      50.099   2.016  17.364  0.00  0.00    +0.000 A 
ATOM     28  N   UNL     1      48.907   2.549  16.946  0.00  0.00    +0.000 N 
ATOM     29  C   UNL     1      48.688   3.901  16.839  0.00  0.00    +0.000 A 
ATOM     30  O   UNL     1      47.580   4.353  16.579  0.00  0.00    +0.000 OA
ATOM     31  C   UNL     1      49.857   4.722  17.109  0.00  0.00    +0.000 A 
ATOM     32  H   UNL     1      48.115   1.952  16.759  0.00  0.00    +0.000 HD
ENDBRANCH  19  22
ENDBRANCH  17  18
ENDBRANCH   5  17
TORSDOF 5
ENDMDL
MODEL 4
REMARK VINA RESULT:    -6.793      3.104      8.534
REMARK INTER + INTRA:          -9.830
REMARK INTER:                  -8.894
REMARK INTRA:                  -0.936
REMARK UNBOUND:                -1.052
REMARK  Name = 
REMARK  6 active torsions:
REMARK  status: ('A' for Active; 'I' for Inactive)
REMARK    1  A    between atoms: C_1  and  O_2
REMARK    2  A    between atoms: O_2  and  C_3
REMARK    3  A    between atoms: C_7  and  N_8
REMARK    4  A    between atoms: C_12  and  C_13
REMARK    5  A    between atoms: C_13  and  N_14
REMARK    6  A    between atoms: C_15  and  C_17
REMARK                            x       y       z     vdW  Elec       q    Type
REMARK                         _______ _______ _______ _____ _____    ______ ____
ROOT
ATOM      1  N   UNL     1      51.069   7.048  16.148  0.00  0.00    +0.000 N 
ATOM      2  C   UNL     1      50.177   7.233  15.092  0.00  0.00    +0.000 A 
ATOM      3  C   UNL     1      50.616   7.914  13.958  0.00  0.00    +0.000 A 
ATOM      4  C   UNL     1      49.763   8.063  12.864  0.00  0.00    +0.000 A 
ATOM      5  C   UNL     1      48.483   7.520  12.915  0.00  0.00    +0.000 A 
ATOM      6  C   UNL     1      48.123   6.861  14.078  0.00  0.00    +0.000 A 
ATOM      7  N   UNL     1      48.936   6.708  15.143  0.00  0.00    +0.000 NA
ATOM      8  H   UNL     1      51.927   7.577  16.118  0.00  0.00    +0.000 HD
ENDROOT
BRANCH   1  13
ATOM      9  C   UNL     1      51.193   4.051  18.038  0.00  0.00    +0.000 A 
ATOM     10  C   UNL     1      50.896   4.411  19.340  0.00  0.00    +0.000 A 
ATOM     11  C   UNL     1      50.675   5.753  19.601  0.00  0.00    +0.000 A 
ATOM     12  C   UNL     1      50.748   6.667  18.555  0.00  0.00    +0.000 A 
ATOM     13  C   UNL     1      51.040   6.227  17.267  0.00  0.00    +0.000 A 
ATOM     14  N   UNL     1      51.277   4.923  17.011  0.00  0.00    +0.000 NA
BRANCH   9  16
ATOM     15  C   UNL     1      50.364   2.111  17.038  0.00  0.00    +0.000 C 
ATOM     16  O   UNL     1      51.404   2.704  17.810  0.00  0.00    +0.000 OA
ENDBRANCH   9  16
ENDBRANCH   1  13
BRANCH   5  17
ATOM     17  C   UNL     1      47.503   7.691  11.799  0.00  0.00    +0.000 C 
BRANCH  17  18
ATOM     18  N   UNL     1      46.789   6.463  11.555  0.00  0.00    +0.000 N 
ATOM     19  C   UNL     1      45.427   6.373  11.675  0.00  0.00    +0.000 C 
ATOM     20  O   UNL     1      44.728   7.343  11.952  0.00  0.00    +0.000 OA
ATOM     21  H   UNL     1      47.339   5.611  11.544  0.00  0.00    +0.000 HD
BRANCH  19  22
ATOM     22  C   UNL     1      44.836   5.061  11.384  0.00  0.00    +0.000 A 
ATOM     23  C   UNL     1      44.069   4.430  12.354  0.00  0.00    +0.000 A 
ATOM     24  S   UNL     1      43.428   2.933  11.853  0.00  0.00    +0.000 S 
ATOM     25  C   UNL     1      44.191   3.052  10.337  0.00  0.00    +0.000 A 
ATOM     26  N   UNL     1      44.073   2.058   9.416  0.00  0.00    +0.000 NA
ATOM     27  C   UNL     1      44.731   2.261   8.323  0.00  0.00    +0.000 A 
ATOM     28  N   UNL     1      45.485   3.376   8.063  0.00  0.00    +0.000 N 
ATOM     29  C   UNL     1      45.582   4.435   8.933  0.00  0.00    +0.000 A 
ATOM     30  O   UNL     1      46.164   5.467   8.626  0.00  0.00    +0.000 OA
ATOM     31  C   UNL     1      44.898   4.234  10.201  0.00  0.00    +0.000 A 
ATOM     32  H   UNL     1      45.955   3.483   7.175  0.00  0.00    +0.000 HD
ENDBRANCH  19  22
ENDBRANCH  17  18
ENDBRANCH   5  17
TORSDOF 5
ENDMDL
MODEL 5
REMARK VINA RESULT:    -6.762      3.943      5.228
REMARK INTER + INTRA:          -9.790
REMARK INTER:                  -8.938
REMARK INTRA:                  -0.852
REMARK UNBOUND:                -1.052
REMARK  Name = 
REMARK  6 active torsions:
REMARK  status: ('A' for Active; 'I' for Inactive)
REMARK    1  A    between atoms: C_1  and  O_2
REMARK    2  A    between atoms: O_2  and  C_3
REMARK    3  A    between atoms: C_7  and  N_8
REMARK    4  A    between atoms: C_12  and  C_13
REMARK    5  A    between atoms: C_13  and  N_14
REMARK    6  A    between atoms: C_15  and  C_17
REMARK                            x       y       z     vdW  Elec       q    Type
REMARK                         _______ _______ _______ _____ _____    ______ ____
ROOT
ATOM      1  N   UNL     1      46.430   5.495  13.359  0.00  0.00    +0.000 N 
ATOM      2  C   UNL     1      47.111   5.131  14.520  0.00  0.00    +0.000 A 
ATOM      3  C   UNL     1      48.104   5.979  15.007  0.00  0.00    +0.000 A 
ATOM      4  C   UNL     1      48.760   5.669  16.198  0.00  0.00    +0.000 A 
ATOM      5  C   UNL     1      48.409   4.515  16.892  0.00  0.00    +0.000 A 
ATOM      6  C   UNL     1      47.416   3.724  16.341  0.00  0.00    +0.000 A 
ATOM      7  N   UNL     1      46.771   4.012  15.191  0.00  0.00    +0.000 NA
ATOM      8  H   UNL     1      46.816   6.259  12.824  0.00  0.00    +0.000 HD
ENDROOT
BRANCH   1  13
ATOM      9  C   UNL     1      44.358   3.549  11.239  0.00  0.00    +0.000 A 
ATOM     10  C   UNL     1      43.078   4.048  11.399  0.00  0.00    +0.000 A 
ATOM     11  C   UNL     1      42.898   5.080  12.305  0.00  0.00    +0.000 A 
ATOM     12  C   UNL     1      44.000   5.573  12.996  0.00  0.00    +0.000 A 
ATOM     13  C   UNL     1      45.262   5.029  12.772  0.00  0.00    +0.000 A 
ATOM     14  N   UNL     1      45.439   4.008  11.906  0.00  0.00    +0.000 NA
BRANCH   9  16
ATOM     15  C   UNL     1      44.711   2.997   8.999  0.00  0.00    +0.000 C 
ATOM     16  O   UNL     1      44.504   2.523  10.326  0.00  0.00    +0.000 OA
ENDBRANCH   9  16
ENDBRANCH   1  13
BRANCH   5  17
ATOM     17  C   UNL     1      49.110   4.097  18.145  0.00  0.00    +0.000 C 
BRANCH  17  18
ATOM     18  N   UNL     1      50.461   3.685  17.859  0.00  0.00    +0.000 N 
ATOM     19  C   UNL     1      51.515   4.015  18.671  0.00  0.00    +0.000 C 
ATOM     20  O   UNL     1      51.364   4.642  19.716  0.00  0.00    +0.000 OA
ATOM     21  H   UNL     1      50.650   3.366  16.914  0.00  0.00    +0.000 HD
BRANCH  19  22
ATOM     22  C   UNL     1      52.832   3.516  18.260  0.00  0.00    +0.000 A 
ATOM     23  C   UNL     1      53.934   4.356  18.341  0.00  0.00    +0.000 A 
ATOM     24  S   UNL     1      55.393   3.619  17.859  0.00  0.00    +0.000 S 
ATOM     25  C   UNL     1      54.597   2.165  17.479  0.00  0.00    +0.000 A 
ATOM     26  N   UNL     1      55.283   1.106  16.972  0.00  0.00    +0.000 NA
ATOM     27  C   UNL     1      54.552   0.078  16.696  0.00  0.00    +0.000 A 
ATOM     28  N   UNL     1      53.197   0.009  16.894  0.00  0.00    +0.000 N 
ATOM     29  C   UNL     1      52.470   1.027  17.464  0.00  0.00    +0.000 A 
ATOM     30  O   UNL     1      51.285   0.894  17.738  0.00  0.00    +0.000 OA
ATOM     31  C   UNL     1      53.241   2.227  17.749  0.00  0.00    +0.000 A 
ATOM     32  H   UNL     1      52.688  -0.836  16.680  0.00  0.00    +0.000 HD
ENDBRANCH  19  22
ENDBRANCH  17  18
ENDBRANCH   5  17
TORSDOF 5
ENDMDL
MODEL 6
REMARK VINA RESULT:    -6.760      4.039      8.814
REMARK INTER + INTRA:          -9.788
REMARK INTER:                  -8.958
REMARK INTRA:                  -0.830
REMARK UNBOUND:                -1.052
REMARK  Name = 
REMARK  6 active torsions:
REMARK  status: ('A' for Active; 'I' for Inactive)
REMARK    1  A    between atoms: C_1  and  O_2
REMARK    2  A    between atoms: O_2  and  C_3
REMARK    3  A    between atoms: C_7  and  N_8
REMARK    4  A    between atoms: C_12  and  C_13
REMARK    5  A    between atoms: C_13  and  N_14
REMARK    6  A    between atoms: C_15  and  C_17
REMARK                            x       y       z     vdW  Elec       q    Type
REMARK                         _______ _______ _______ _____ _____    ______ ____
ROOT
ATOM      1  N   UNL     1      51.192   3.240  18.266  0.00  0.00    +0.000 N 
ATOM      2  C   UNL     1      50.655   4.328  17.578  0.00  0.00    +0.000 A 
ATOM      3  C   UNL     1      49.270   4.476  17.539  0.00  0.00    +0.000 A 
ATOM      4  C   UNL     1      48.708   5.586  16.908  0.00  0.00    +0.000 A 
ATOM      5  C   UNL     1      49.541   6.538  16.329  0.00  0.00    +0.000 A 
ATOM      6  C   UNL     1      50.904   6.316  16.407  0.00  0.00    +0.000 A 
ATOM      7  N   UNL     1      51.463   5.250  17.016  0.00  0.00    +0.000 NA
ATOM      8  H   UNL     1      50.550   2.513  18.543  0.00  0.00    +0.000 HD
ENDROOT
BRANCH   1  13
ATOM      9  C   UNL     1      54.252   1.471  18.545  0.00  0.00    +0.000 A 
ATOM     10  C   UNL     1      54.979   2.122  19.525  0.00  0.00    +0.000 A 
ATOM     11  C   UNL     1      54.416   3.249  20.101  0.00  0.00    +0.000 A 
ATOM     12  C   UNL     1      53.155   3.663  19.685  0.00  0.00    +0.000 A 
ATOM     13  C   UNL     1      52.478   2.948  18.701  0.00  0.00    +0.000 A 
ATOM     14  N   UNL     1      53.031   1.862  18.121  0.00  0.00    +0.000 NA
BRANCH   9  16
ATOM     15  C   UNL     1      54.400   0.100  16.661  0.00  0.00    +0.000 C 
ATOM     16  O   UNL     1      54.840   0.348  17.993  0.00  0.00    +0.000 OA
ENDBRANCH   9  16
ENDBRANCH   1  13
BRANCH   5  17
ATOM     17  C   UNL     1      49.001   7.721  15.590  0.00  0.00    +0.000 C 
BRANCH  17  18
ATOM     18  N   UNL     1      47.858   7.348  14.796  0.00  0.00    +0.000 N 
ATOM     19  C   UNL     1      47.983   6.743  13.572  0.00  0.00    +0.000 C 
ATOM     20  O   UNL     1      49.075   6.440  13.100  0.00  0.00    +0.000 OA
ATOM     21  H   UNL     1      46.971   7.773  15.046  0.00  0.00    +0.000 HD
BRANCH  19  22
ATOM     22  C   UNL     1      46.731   6.410  12.883  0.00  0.00    +0.000 A 
ATOM     23  C   UNL     1      45.993   7.422  12.286  0.00  0.00    +0.000 A 
ATOM     24  S   UNL     1      44.585   6.870  11.500  0.00  0.00    +0.000 S 
ATOM     25  C   UNL     1      44.888   5.263  11.969  0.00  0.00    +0.000 A 
ATOM     26  N   UNL     1      44.024   4.265  11.639  0.00  0.00    +0.000 NA
ATOM     27  C   UNL     1      44.356   3.101  12.088  0.00  0.00    +0.000 A 
ATOM     28  N   UNL     1      45.482   2.842  12.827  0.00  0.00    +0.000 N 
ATOM     29  C   UNL     1      46.416   3.803  13.129  0.00  0.00    +0.000 A 
ATOM     30  O   UNL     1      47.469   3.521  13.687  0.00  0.00    +0.000 OA
ATOM     31  C   UNL     1      46.064   5.143  12.687  0.00  0.00    +0.000 A 
ATOM     32  H   UNL     1      45.695   1.901  13.126  0.00  0.00    +0.000 HD
ENDBRANCH  19  22
ENDBRANCH  17  18
ENDBRANCH   5  17
TORSDOF 5
ENDMDL
MODEL 7
REMARK VINA RESULT:    -6.666      2.822      3.806
REMARK INTER + INTRA:          -9.667
REMARK INTER:                  -8.805
REMARK INTRA:                  -0.861
REMARK UNBOUND:                -1.052
REMARK  Name = 
REMARK  6 active torsions:
REMARK  status: ('A' for Active; 'I' for Inactive)
REMARK    1  A    between atoms: C_1  and  O_2
REMARK    2  A    between atoms: O_2  and  C_3
REMARK    3  A    between atoms: C_7  and  N_8
REMARK    4  A    between atoms: C_12  and  C_13
REMARK    5  A    between atoms: C_13  and  N_14
REMARK    6  A    between atoms: C_15  and  C_17
REMARK                            x       y       z     vdW  Elec       q    Type
REMARK                         _______ _______ _______ _____ _____    ______ ____
ROOT
ATOM      1  N   UNL     1      46.762   6.127  11.909  0.00  0.00    +0.000 N 
ATOM      2  C   UNL     1      47.751   6.501  12.818  0.00  0.00    +0.000 A 
ATOM      3  C   UNL     1      48.720   7.418  12.411  0.00  0.00    +0.000 A 
ATOM      4  C   UNL     1      49.687   7.854  13.317  0.00  0.00    +0.000 A 
ATOM      5  C   UNL     1      49.668   7.372  14.623  0.00  0.00    +0.000 A 
ATOM      6  C   UNL     1      48.676   6.462  14.946  0.00  0.00    +0.000 A 
ATOM      7  N   UNL     1      47.734   6.032  14.082  0.00  0.00    +0.000 NA
ATOM      8  H   UNL     1      46.902   6.393  10.946  0.00  0.00    +0.000 HD
ENDROOT
BRANCH   1  13
ATOM      9  C   UNL     1      44.256   3.679  11.360  0.00  0.00    +0.000 A 
ATOM     10  C   UNL     1      43.170   4.071  12.121  0.00  0.00    +0.000 A 
ATOM     11  C   UNL     1      43.305   5.213  12.893  0.00  0.00    +0.000 A 
ATOM     12  C   UNL     1      44.506   5.913  12.862  0.00  0.00    +0.000 A 
ATOM     13  C   UNL     1      45.552   5.464  12.061  0.00  0.00    +0.000 A 
ATOM     14  N   UNL     1      45.433   4.339  11.322  0.00  0.00    +0.000 NA
BRANCH   9  16
ATOM     15  C   UNL     1      44.473   2.727   9.240  0.00  0.00    +0.000 C 
ATOM     16  O   UNL     1      44.089   2.538  10.598  0.00  0.00    +0.000 OA
ENDBRANCH   9  16
ENDBRANCH   1  13
BRANCH   5  17
ATOM     17  C   UNL     1      50.707   7.757  15.626  0.00  0.00    +0.000 C 
BRANCH  17  18
ATOM     18  N   UNL     1      51.405   6.593  16.109  0.00  0.00    +0.000 N 
ATOM     19  C   UNL     1      51.327   6.181  17.414  0.00  0.00    +0.000 C 
ATOM     20  O   UNL     1      50.620   6.753  18.239  0.00  0.00    +0.000 OA
ATOM     21  H   UNL     1      52.155   6.237  15.526  0.00  0.00    +0.000 HD
BRANCH  19  22
ATOM     22  C   UNL     1      52.082   4.971  17.759  0.00  0.00    +0.000 A 
ATOM     23  C   UNL     1      53.371   5.093  18.261  0.00  0.00    +0.000 A 
ATOM     24  S   UNL     1      54.101   3.601  18.642  0.00  0.00    +0.000 S 
ATOM     25  C   UNL     1      52.738   2.736  18.107  0.00  0.00    +0.000 A 
ATOM     26  N   UNL     1      52.721   1.376  18.132  0.00  0.00    +0.000 NA
ATOM     27  C   UNL     1      51.640   0.846  17.664  0.00  0.00    +0.000 A 
ATOM     28  N   UNL     1      50.568   1.555  17.187  0.00  0.00    +0.000 N 
ATOM     29  C   UNL     1      50.511   2.928  17.202  0.00  0.00    +0.000 A 
ATOM     30  O   UNL     1      49.496   3.531  16.880  0.00  0.00    +0.000 OA
ATOM     31  C   UNL     1      51.725   3.573  17.674  0.00  0.00    +0.000 A 
ATOM     32  H   UNL     1      49.741   1.077  16.859  0.00  0.00    +0.000 HD
ENDBRANCH  19  22
ENDBRANCH  17  18
ENDBRANCH   5  17
TORSDOF 5
ENDMDL
MODEL 8
REMARK VINA RESULT:    -6.534      4.611      7.375
REMARK INTER + INTRA:          -9.495
REMARK INTER:                  -8.594
REMARK INTRA:                  -0.901
REMARK UNBOUND:                -1.052
REMARK  Name = 
REMARK  6 active torsions:
REMARK  status: ('A' for Active; 'I' for Inactive)
REMARK    1  A    between atoms: C_1  and  O_2
REMARK    2  A    between atoms: O_2  and  C_3
REMARK    3  A    between atoms: C_7  and  N_8
REMARK    4  A    between atoms: C_12  and  C_13
REMARK    5  A    between atoms: C_13  and  N_14
REMARK    6  A    between atoms: C_15  and  C_17
REMARK                            x       y       z     vdW  Elec       q    Type
REMARK                         _______ _______ _______ _____ _____    ______ ____
ROOT
ATOM      1  N   UNL     1      51.739   8.849  10.812  0.00  0.00    +0.000 N 
ATOM      2  C   UNL     1      50.460   8.662  11.333  0.00  0.00    +0.000 A 
ATOM      3  C   UNL     1      49.630   9.773  11.483  0.00  0.00    +0.000 A 
ATOM      4  C   UNL     1      48.326   9.607  11.948  0.00  0.00    +0.000 A 
ATOM      5  C   UNL     1      47.864   8.329  12.249  0.00  0.00    +0.000 A 
ATOM      6  C   UNL     1      48.750   7.281  12.077  0.00  0.00    +0.000 A 
ATOM      7  N   UNL     1      50.013   7.425  11.627  0.00  0.00    +0.000 NA
ATOM      8  H   UNL     1      52.071   9.800  10.744  0.00  0.00    +0.000 HD
ENDROOT
BRANCH   1  13
ATOM      9  C   UNL     1      53.278   6.614   8.530  0.00  0.00    +0.000 A 
ATOM     10  C   UNL     1      54.382   6.101   9.187  0.00  0.00    +0.000 A 
ATOM     11  C   UNL     1      54.642   6.566  10.466  0.00  0.00    +0.000 A 
ATOM     12  C   UNL     1      53.786   7.506  11.031  0.00  0.00    +0.000 A 
ATOM     13  C   UNL     1      52.687   7.966  10.312  0.00  0.00    +0.000 A 
ATOM     14  N   UNL     1      52.441   7.532   9.057  0.00  0.00    +0.000 NA
BRANCH   9  16
ATOM     15  C   UNL     1      53.396   4.754   7.125  0.00  0.00    +0.000 C 
ATOM     16  O   UNL     1      53.044   6.127   7.258  0.00  0.00    +0.000 OA
ENDBRANCH   9  16
ENDBRANCH   1  13
BRANCH   5  17
ATOM     17  C   UNL     1      46.495   8.090  12.802  0.00  0.00    +0.000 C 
BRANCH  17  18
ATOM     18  N   UNL     1      46.027   6.773  12.451  0.00  0.00    +0.000 N 
ATOM     19  C   UNL     1      44.886   6.574  11.718  0.00  0.00    +0.000 C 
ATOM     20  O   UNL     1      44.220   7.506  11.276  0.00  0.00    +0.000 OA
ATOM     21  H   UNL     1      46.417   5.996  12.974  0.00  0.00    +0.000 HD
BRANCH  19  22
ATOM     22  C   UNL     1      44.539   5.178  11.426  0.00  0.00    +0.000 A 
ATOM     23  C   UNL     1      43.768   4.464  12.333  0.00  0.00    +0.000 A 
ATOM     24  S   UNL     1      43.424   2.871  11.835  0.00  0.00    +0.000 S 
ATOM     25  C   UNL     1      44.333   3.063  10.411  0.00  0.00    +0.000 A 
ATOM     26  N   UNL     1      44.476   2.035   9.531  0.00  0.00    +0.000 NA
ATOM     27  C   UNL     1      45.219   2.305   8.510  0.00  0.00    +0.000 A 
ATOM     28  N   UNL     1      45.822   3.515   8.282  0.00  0.00    +0.000 N 
ATOM     29  C   UNL     1      45.654   4.602   9.106  0.00  0.00    +0.000 A 
ATOM     30  O   UNL     1      46.106   5.702   8.817  0.00  0.00    +0.000 OA
ATOM     31  C   UNL     1      44.864   4.335  10.298  0.00  0.00    +0.000 A 
ATOM     32  H   UNL     1      46.371   3.667   7.449  0.00  0.00    +0.000 HD
ENDBRANCH  19  22
ENDBRANCH  17  18
ENDBRANCH   5  17
TORSDOF 5
ENDMDL
MODEL 9
REMARK VINA RESULT:    -6.078      2.566      3.527
REMARK INTER + INTRA:          -8.907
REMARK INTER:                  -8.264
REMARK INTRA:                  -0.643
REMARK UNBOUND:                -1.052
REMARK  Name = 
REMARK  6 active torsions:
REMARK  status: ('A' for Active; 'I' for Inactive)
REMARK    1  A    between atoms: C_1  and  O_2
REMARK    2  A    between atoms: O_2  and  C_3
REMARK    3  A    between atoms: C_7  and  N_8
REMARK    4  A    between atoms: C_12  and  C_13
REMARK    5  A    between atoms: C_13  and  N_14
REMARK    6  A    between atoms: C_15  and  C_17
REMARK                            x       y       z     vdW  Elec       q    Type
REMARK                         _______ _______ _______ _____ _____    ______ ____
ROOT
ATOM      1  N   UNL     1      45.615   6.276  10.305  0.00  0.00    +0.000 N 
ATOM      2  C   UNL     1      46.330   6.635  11.447  0.00  0.00    +0.000 A 
ATOM      3  C   UNL     1      46.284   7.960  11.876  0.00  0.00    +0.000 A 
ATOM      4  C   UNL     1      46.943   8.334  13.047  0.00  0.00    +0.000 A 
ATOM      5  C   UNL     1      47.633   7.374  13.781  0.00  0.00    +0.000 A 
ATOM      6  C   UNL     1      47.633   6.082  13.286  0.00  0.00    +0.000 A 
ATOM      7  N   UNL     1      47.000   5.704  12.157  0.00  0.00    +0.000 NA
ATOM      8  H   UNL     1      45.253   7.028   9.738  0.00  0.00    +0.000 HD
ENDROOT
BRANCH   1  13
ATOM      9  C   UNL     1      44.164   3.044  10.177  0.00  0.00    +0.000 A 
ATOM     10  C   UNL     1      44.534   2.510   8.955  0.00  0.00    +0.000 A 
ATOM     11  C   UNL     1      45.290   3.304   8.109  0.00  0.00    +0.000 A 
ATOM     12  C   UNL     1      45.650   4.583   8.523  0.00  0.00    +0.000 A 
ATOM     13  C   UNL     1      45.251   5.046   9.774  0.00  0.00    +0.000 A 
ATOM     14  N   UNL     1      44.496   4.284  10.594  0.00  0.00    +0.000 NA
BRANCH   9  16
ATOM     15  C   UNL     1      43.445   2.641  12.360  0.00  0.00    +0.000 C 
ATOM     16  O   UNL     1      43.414   2.225  10.999  0.00  0.00    +0.000 OA
ENDBRANCH   9  16
ENDBRANCH   1  13
BRANCH   5  17
ATOM     17  C   UNL     1      48.403   7.720  15.015  0.00  0.00    +0.000 C 
BRANCH  17  18
ATOM     18  N   UNL     1      49.061   6.554  15.548  0.00  0.00    +0.000 N 
ATOM     19  C   UNL     1      49.729   6.574  16.745  0.00  0.00    +0.000 C 
ATOM     20  O   UNL     1      49.766   7.573  17.457  0.00  0.00    +0.000 OA
ATOM     21  H   UNL     1      49.237   5.794  14.899  0.00  0.00    +0.000 HD
BRANCH  19  22
ATOM     22  C   UNL     1      50.341   5.309  17.167  0.00  0.00    +0.000 A 
ATOM     23  C   UNL     1      49.531   4.208  17.411  0.00  0.00    +0.000 A 
ATOM     24  S   UNL     1      50.393   2.809  17.860  0.00  0.00    +0.000 S 
ATOM     25  C   UNL     1      51.877   3.636  17.790  0.00  0.00    +0.000 A 
ATOM     26  N   UNL     1      53.042   3.006  18.101  0.00  0.00    +0.000 NA
ATOM     27  C   UNL     1      54.090   3.758  18.040  0.00  0.00    +0.000 A 
ATOM     28  N   UNL     1      54.079   5.082  17.684  0.00  0.00    +0.000 N 
ATOM     29  C   UNL     1      52.939   5.745  17.299  0.00  0.00    +0.000 A 
ATOM     30  O   UNL     1      52.976   6.891  16.872  0.00  0.00    +0.000 OA
ATOM     31  C   UNL     1      51.723   4.953  17.396  0.00  0.00    +0.000 A 
ATOM     32  H   UNL     1      54.940   5.608  17.632  0.00  0.00    +0.000 HD
ENDBRANCH  19  22
ENDBRANCH  17  18
ENDBRANCH   5  17
TORSDOF 5
ENDMDL
