MODEL 1
REMARK VINA RESULT:    -9.367      0.000      0.000
REMARK INTER + INTRA:         -14.693
REMARK INTER:                 -13.200
REMARK INTRA:                  -1.493
REMARK UNBOUND:                -1.493
REMARK  Name = 
REMARK  7 active torsions:
REMARK  status: ('A' for Active; 'I' for Inactive)
REMARK    1  A    between atoms: C_2  and  C_4
REMARK    2  A    between atoms: C_7  and  N_8
REMARK    3  A    between atoms: N_8  and  C_9
REMARK    4  A    between atoms: C_9  and  C_10
REMARK    5  A    between atoms: C_10  and  C_13
REMARK    6  A    between atoms: C_17  and  C_18
REMARK    7  A    between atoms: C_22  and  C_23
REMARK                            x       y       z     vdW  Elec       q    Type
REMARK                         _______ _______ _______ _____ _____    ______ ____
ROOT
ATOM      1  C   UNL     1      43.438   5.462  12.278  0.00  0.00    +0.000 C 
ATOM      2  F   UNL     1      43.002   6.668  11.807  0.00  0.00    +0.000 F 
ATOM      3  F   UNL     1      42.618   5.169  13.334  0.00  0.00    +0.000 F 
ENDROOT
BRANCH   1   4
ATOM      4  C   UNL     1      44.900   5.516  12.681  0.00  0.00    +0.000 A 
ATOM      5  C   UNL     1      45.500   4.435  13.347  0.00  0.00    +0.000 A 
ATOM      6  C   UNL     1      46.855   4.472  13.667  0.00  0.00    +0.000 A 
ATOM      7  C   UNL     1      47.629   5.574  13.299  0.00  0.00    +0.000 A 
ATOM      8  C   UNL     1      47.073   6.665  12.608  0.00  0.00    +0.000 A 
ATOM      9  C   UNL     1      45.691   6.620  12.339  0.00  0.00    +0.000 A 
BRANCH   8  10
ATOM     10  C   UNL     1      47.908   7.804  12.161  0.00  0.00    +0.000 A 
ATOM     11  C   UNL     1      47.415   9.120  12.159  0.00  0.00    +0.000 A 
ATOM     12  C   UNL     1      48.202  10.196  11.743  0.00  0.00    +0.000 A 
ATOM     13  C   UNL     1      49.517   9.984  11.347  0.00  0.00    +0.000 A 
ATOM     14  C   UNL     1      50.055   8.694  11.349  0.00  0.00    +0.000 A 
ATOM     15  C   UNL     1      49.233   7.615  11.722  0.00  0.00    +0.000 A 
BRANCH  14  16
ATOM     16  C   UNL     1      51.503   8.449  11.008  0.00  0.00    +0.000 C 
ATOM     17  F   UNL     1      52.075   9.463  10.300  0.00  0.00    +0.000 F 
ATOM     18  F   UNL     1      52.273   8.294  12.122  0.00  0.00    +0.000 F 
ATOM     19  F   UNL     1      51.690   7.322  10.266  0.00  0.00    +0.000 F 
ENDBRANCH  14  16
ENDBRANCH   8  10
ENDBRANCH   1   4
BRANCH   1  20
ATOM     20  C   UNL     1      43.224   4.383  11.183  0.00  0.00    +0.000 C 
BRANCH  20  21
ATOM     21  N   UNL     1      43.721   4.783   9.853  0.00  0.00    +0.000 N 
ATOM     22  H   UNL     1      43.008   5.176   9.238  0.00  0.00    +0.000 HD
BRANCH  21  26
ATOM     23  C   UNL     1      46.455   2.347   7.756  0.00  0.00    +0.000 A 
ATOM     24  C   UNL     1      46.466   3.727   7.550  0.00  0.00    +0.000 A 
ATOM     25  C   UNL     1      45.573   4.547   8.249  0.00  0.00    +0.000 A 
ATOM     26  C   UNL     1      44.677   4.020   9.187  0.00  0.00    +0.000 A 
ATOM     27  C   UNL     1      44.662   2.628   9.361  0.00  0.00    +0.000 A 
ATOM     28  C   UNL     1      45.535   1.795   8.650  0.00  0.00    +0.000 A 
BRANCH  23  30
ATOM     29  N   UNL     1      48.508   2.003   6.496  0.00  0.00    +0.000 N 
ATOM     30  C   UNL     1      47.377   1.443   7.023  0.00  0.00    +0.000 C 
ATOM     31  O   UNL     1      47.164   0.242   6.925  0.00  0.00    +0.000 OA
ATOM     32  H   UNL     1      49.181   1.359   6.103  0.00  0.00    +0.000 HD
ATOM     33  H   UNL     1      48.842   2.911   6.786  0.00  0.00    +0.000 HD
ENDBRANCH  23  30
ENDBRANCH  21  26
ENDBRANCH  20  21
ENDBRANCH   1  20
TORSDOF 7
ENDMDL
MODEL 2
REMARK VINA RESULT:    -9.253      3.525      4.676
REMARK INTER + INTRA:         -14.533
REMARK INTER:                 -13.080
REMARK INTRA:                  -1.453
REMARK UNBOUND:                -1.493
REMARK  Name = 
REMARK  7 active torsions:
REMARK  status: ('A' for Active; 'I' for Inactive)
REMARK    1  A    between atoms: C_2  and  C_4
REMARK    2  A    between atoms: C_7  and  N_8
REMARK    3  A    between atoms: N_8  and  C_9
REMARK    4  A    between atoms: C_9  and  C_10
REMARK    5  A    between atoms: C_10  and  C_13
REMARK    6  A    between atoms: C_17  and  C_18
REMARK    7  A    between atoms: C_22  and  C_23
REMARK                            x       y       z     vdW  Elec       q    Type
REMARK                         _______ _______ _______ _____ _____    ______ ____
ROOT
ATOM      1  C   UNL     1      43.735   4.745  12.419  0.00  0.00    +0.000 C 
ATOM      2  F   UNL     1      42.793   5.536  13.010  0.00  0.00    +0.000 F 
ATOM      3  F   UNL     1      43.659   3.544  13.073  0.00  0.00    +0.000 F 
ENDROOT
BRANCH   1   4
ATOM      4  C   UNL     1      45.118   5.362  12.506  0.00  0.00    +0.000 A 
ATOM      5  C   UNL     1      45.600   6.189  11.479  0.00  0.00    +0.000 A 
ATOM      6  C   UNL     1      46.850   6.793  11.592  0.00  0.00    +0.000 A 
ATOM      7  C   UNL     1      47.617   6.601  12.744  0.00  0.00    +0.000 A 
ATOM      8  C   UNL     1      47.159   5.803  13.807  0.00  0.00    +0.000 A 
ATOM      9  C   UNL     1      45.912   5.168  13.644  0.00  0.00    +0.000 A 
BRANCH   8  10
ATOM     10  C   UNL     1      47.943   5.652  15.054  0.00  0.00    +0.000 A 
ATOM     11  C   UNL     1      48.820   6.657  15.497  0.00  0.00    +0.000 A 
ATOM     12  C   UNL     1      49.556   6.520  16.676  0.00  0.00    +0.000 A 
ATOM     13  C   UNL     1      49.408   5.382  17.460  0.00  0.00    +0.000 A 
ATOM     14  C   UNL     1      48.534   4.364  17.068  0.00  0.00    +0.000 A 
ATOM     15  C   UNL     1      47.839   4.495  15.851  0.00  0.00    +0.000 A 
BRANCH  14  16
ATOM     16  C   UNL     1      48.291   3.160  17.942  0.00  0.00    +0.000 C 
ATOM     17  F   UNL     1      48.401   3.424  19.274  0.00  0.00    +0.000 F 
ATOM     18  F   UNL     1      47.041   2.645  17.769  0.00  0.00    +0.000 F 
ATOM     19  F   UNL     1      49.153   2.137  17.689  0.00  0.00    +0.000 F 
ENDBRANCH  14  16
ENDBRANCH   8  10
ENDBRANCH   1   4
BRANCH   1  20
ATOM     20  C   UNL     1      43.344   4.514  10.934  0.00  0.00    +0.000 C 
BRANCH  20  21
ATOM     21  N   UNL     1      43.730   3.185  10.422  0.00  0.00    +0.000 N 
ATOM     22  H   UNL     1      43.754   2.452  11.131  0.00  0.00    +0.000 HD
BRANCH  21  26
ATOM     23  C   UNL     1      46.584   2.632   7.363  0.00  0.00    +0.000 A 
ATOM     24  C   UNL     1      46.077   3.910   7.608  0.00  0.00    +0.000 A 
ATOM     25  C   UNL     1      45.140   4.108   8.628  0.00  0.00    +0.000 A 
ATOM     26  C   UNL     1      44.713   3.053   9.444  0.00  0.00    +0.000 A 
ATOM     27  C   UNL     1      45.212   1.772   9.165  0.00  0.00    +0.000 A 
ATOM     28  C   UNL     1      46.133   1.558   8.132  0.00  0.00    +0.000 A 
BRANCH  23  30
ATOM     29  N   UNL     1      47.532   3.218   5.199  0.00  0.00    +0.000 N 
ATOM     30  C   UNL     1      47.568   2.380   6.280  0.00  0.00    +0.000 C 
ATOM     31  O   UNL     1      48.405   1.491   6.361  0.00  0.00    +0.000 OA
ATOM     32  H   UNL     1      48.279   3.108   4.527  0.00  0.00    +0.000 HD
ATOM     33  H   UNL     1      47.050   4.104   5.225  0.00  0.00    +0.000 HD
ENDBRANCH  23  30
ENDBRANCH  21  26
ENDBRANCH  20  21
ENDBRANCH   1  20
TORSDOF 7
ENDMDL
MODEL 3
REMARK VINA RESULT:    -8.361      1.239      1.989
REMARK INTER + INTRA:         -13.275
REMARK INTER:                 -12.106
REMARK INTRA:                  -1.169
REMARK UNBOUND:                -1.493
REMARK  Name = 
REMARK  7 active torsions:
REMARK  status: ('A' for Active; 'I' for Inactive)
REMARK    1  A    between atoms: C_2  and  C_4
REMARK    2  A    between atoms: C_7  and  N_8
REMARK    3  A    between atoms: N_8  and  C_9
REMARK    4  A    between atoms: C_9  and  C_10
REMARK    5  A    between atoms: C_10  and  C_13
REMARK    6  A    between atoms: C_17  and  C_18
REMARK    7  A    between atoms: C_22  and  C_23
REMARK                            x       y       z     vdW  Elec       q    Type
REMARK                         _______ _______ _______ _____ _____    ______ ____
ROOT
ATOM      1  C   UNL     1      44.438   4.638  12.343  0.00  0.00    +0.000 C 
ATOM      2  F   UNL     1      43.885   4.532  13.587  0.00  0.00    +0.000 F 
ATOM      3  F   UNL     1      45.397   3.661  12.291  0.00  0.00    +0.000 F 
ENDROOT
BRANCH   1   4
ATOM      4  C   UNL     1      45.013   6.021  12.103  0.00  0.00    +0.000 A 
ATOM      5  C   UNL     1      44.183   7.083  11.709  0.00  0.00    +0.000 A 
ATOM      6  C   UNL     1      44.711   8.361  11.542  0.00  0.00    +0.000 A 
ATOM      7  C   UNL     1      46.064   8.597  11.796  0.00  0.00    +0.000 A 
ATOM      8  C   UNL     1      46.923   7.567  12.217  0.00  0.00    +0.000 A 
ATOM      9  C   UNL     1      46.371   6.276  12.333  0.00  0.00    +0.000 A 
BRANCH   8  10
ATOM     10  C   UNL     1      48.342   7.830  12.548  0.00  0.00    +0.000 A 
ATOM     11  C   UNL     1      48.765   8.016  13.876  0.00  0.00    +0.000 A 
ATOM     12  C   UNL     1      50.104   8.259  14.191  0.00  0.00    +0.000 A 
ATOM     13  C   UNL     1      51.061   8.291  13.183  0.00  0.00    +0.000 A 
ATOM     14  C   UNL     1      50.689   8.096  11.850  0.00  0.00    +0.000 A 
ATOM     15  C   UNL     1      49.328   7.903  11.545  0.00  0.00    +0.000 A 
BRANCH  14  16
ATOM     16  C   UNL     1      51.718   8.040  10.750  0.00  0.00    +0.000 C 
ATOM     17  F   UNL     1      52.976   7.765  11.194  0.00  0.00    +0.000 F 
ATOM     18  F   UNL     1      51.430   7.078   9.828  0.00  0.00    +0.000 F 
ATOM     19  F   UNL     1      51.812   9.206  10.053  0.00  0.00    +0.000 F 
ENDBRANCH  14  16
ENDBRANCH   8  10
ENDBRANCH   1   4
BRANCH   1  20
ATOM     20  C   UNL     1      43.357   4.314  11.278  0.00  0.00    +0.000 C 
BRANCH  20  21
ATOM     21  N   UNL     1      43.737   4.715   9.910  0.00  0.00    +0.000 N 
ATOM     22  H   UNL     1      42.957   5.028   9.332  0.00  0.00    +0.000 HD
BRANCH  21  26
ATOM     23  C   UNL     1      46.536   2.481   7.677  0.00  0.00    +0.000 A 
ATOM     24  C   UNL     1      46.552   3.875   7.603  0.00  0.00    +0.000 A 
ATOM     25  C   UNL     1      45.638   4.627   8.348  0.00  0.00    +0.000 A 
ATOM     26  C   UNL     1      44.714   4.016   9.205  0.00  0.00    +0.000 A 
ATOM     27  C   UNL     1      44.693   2.614   9.245  0.00  0.00    +0.000 A 
ATOM     28  C   UNL     1      45.589   1.850   8.485  0.00  0.00    +0.000 A 
BRANCH  23  30
ATOM     29  N   UNL     1      48.492   2.301   6.241  0.00  0.00    +0.000 N 
ATOM     30  C   UNL     1      47.479   1.648   6.890  0.00  0.00    +0.000 C 
ATOM     31  O   UNL     1      47.389   0.428   6.851  0.00  0.00    +0.000 OA
ATOM     32  H   UNL     1      49.192   1.714   5.807  0.00  0.00    +0.000 HD
ATOM     33  H   UNL     1      48.750   3.250   6.469  0.00  0.00    +0.000 HD
ENDBRANCH  23  30
ENDBRANCH  21  26
ENDBRANCH  20  21
ENDBRANCH   1  20
TORSDOF 7
ENDMDL
MODEL 4
REMARK VINA RESULT:    -7.972      2.930      3.745
REMARK INTER + INTRA:         -12.727
REMARK INTER:                 -11.534
REMARK INTRA:                  -1.193
REMARK UNBOUND:                -1.493
REMARK  Name = 
REMARK  7 active torsions:
REMARK  status: ('A' for Active; 'I' for Inactive)
REMARK    1  A    between atoms: C_2  and  C_4
REMARK    2  A    between atoms: C_7  and  N_8
REMARK    3  A    between atoms: N_8  and  C_9
REMARK    4  A    between atoms: C_9  and  C_10
REMARK    5  A    between atoms: C_10  and  C_13
REMARK    6  A    between atoms: C_17  and  C_18
REMARK    7  A    between atoms: C_22  and  C_23
REMARK                            x       y       z     vdW  Elec       q    Type
REMARK                         _______ _______ _______ _____ _____    ______ ____
ROOT
ATOM      1  C   UNL     1      44.908   5.124  12.174  0.00  0.00    +0.000 C 
ATOM      2  F   UNL     1      44.248   4.721  13.300  0.00  0.00    +0.000 F 
ATOM      3  F   UNL     1      45.816   4.131  11.915  0.00  0.00    +0.000 F 
ENDROOT
BRANCH   1   4
ATOM      4  C   UNL     1      45.571   6.474  12.368  0.00  0.00    +0.000 A 
ATOM      5  C   UNL     1      45.042   7.626  11.762  0.00  0.00    +0.000 A 
ATOM      6  C   UNL     1      45.628   8.869  11.988  0.00  0.00    +0.000 A 
ATOM      7  C   UNL     1      46.726   8.979  12.844  0.00  0.00    +0.000 A 
ATOM      8  C   UNL     1      47.269   7.855  13.490  0.00  0.00    +0.000 A 
ATOM      9  C   UNL     1      46.685   6.605  13.206  0.00  0.00    +0.000 A 
BRANCH   8  10
ATOM     10  C   UNL     1      48.393   7.981  14.447  0.00  0.00    +0.000 A 
ATOM     11  C   UNL     1      49.077   9.197  14.621  0.00  0.00    +0.000 A 
ATOM     12  C   UNL     1      50.133   9.319  15.526  0.00  0.00    +0.000 A 
ATOM     13  C   UNL     1      50.511   8.232  16.305  0.00  0.00    +0.000 A 
ATOM     14  C   UNL     1      49.849   7.008  16.178  0.00  0.00    +0.000 A 
ATOM     15  C   UNL     1      48.821   6.888  15.225  0.00  0.00    +0.000 A 
BRANCH  14  16
ATOM     16  C   UNL     1      50.182   5.841  17.071  0.00  0.00    +0.000 C 
ATOM     17  F   UNL     1      51.389   5.271  16.796  0.00  0.00    +0.000 F 
ATOM     18  F   UNL     1      50.234   6.199  18.385  0.00  0.00    +0.000 F 
ATOM     19  F   UNL     1      49.266   4.836  16.995  0.00  0.00    +0.000 F 
ENDBRANCH  14  16
ENDBRANCH   8  10
ENDBRANCH   1   4
BRANCH   1  20
ATOM     20  C   UNL     1      43.905   5.184  10.992  0.00  0.00    +0.000 C 
BRANCH  20  21
ATOM     21  N   UNL     1      43.691   3.882  10.332  0.00  0.00    +0.000 N 
ATOM     22  H   UNL     1      43.330   3.152  10.947  0.00  0.00    +0.000 HD
BRANCH  21  26
ATOM     23  C   UNL     1      46.536   2.606   7.487  0.00  0.00    +0.000 A 
ATOM     24  C   UNL     1      45.942   1.669   8.334  0.00  0.00    +0.000 A 
ATOM     25  C   UNL     1      44.988   2.077   9.273  0.00  0.00    +0.000 A 
ATOM     26  C   UNL     1      44.581   3.414   9.367  0.00  0.00    +0.000 A 
ATOM     27  C   UNL     1      45.209   4.346   8.527  0.00  0.00    +0.000 A 
ATOM     28  C   UNL     1      46.181   3.951   7.600  0.00  0.00    +0.000 A 
BRANCH  23  30
ATOM     29  N   UNL     1      47.738   3.046   5.418  0.00  0.00    +0.000 N 
ATOM     30  C   UNL     1      47.562   2.213   6.490  0.00  0.00    +0.000 C 
ATOM     31  O   UNL     1      48.254   1.214   6.632  0.00  0.00    +0.000 OA
ATOM     32  H   UNL     1      48.517   2.829   4.811  0.00  0.00    +0.000 HD
ATOM     33  H   UNL     1      47.387   3.993   5.412  0.00  0.00    +0.000 HD
ENDBRANCH  23  30
ENDBRANCH  21  26
ENDBRANCH  20  21
ENDBRANCH   1  20
TORSDOF 7
ENDMDL
MODEL 5
REMARK VINA RESULT:    -7.831      4.112      7.894
REMARK INTER + INTRA:         -12.529
REMARK INTER:                 -10.924
REMARK INTRA:                  -1.605
REMARK UNBOUND:                -1.493
REMARK  Name = 
REMARK  7 active torsions:
REMARK  status: ('A' for Active; 'I' for Inactive)
REMARK    1  A    between atoms: C_2  and  C_4
REMARK    2  A    between atoms: C_7  and  N_8
REMARK    3  A    between atoms: N_8  and  C_9
REMARK    4  A    between atoms: C_9  and  C_10
REMARK    5  A    between atoms: C_10  and  C_13
REMARK    6  A    between atoms: C_17  and  C_18
REMARK    7  A    between atoms: C_22  and  C_23
REMARK                            x       y       z     vdW  Elec       q    Type
REMARK                         _______ _______ _______ _____ _____    ______ ____
ROOT
ATOM      1  C   UNL     1      49.104   8.124  11.929  0.00  0.00    +0.000 C 
ATOM      2  F   UNL     1      49.500   9.427  12.021  0.00  0.00    +0.000 F 
ATOM      3  F   UNL     1      49.592   7.683  10.728  0.00  0.00    +0.000 F 
ENDROOT
BRANCH   1   4
ATOM      4  C   UNL     1      47.596   7.989  12.023  0.00  0.00    +0.000 A 
ATOM      5  C   UNL     1      46.785   9.122  12.201  0.00  0.00    +0.000 A 
ATOM      6  C   UNL     1      45.399   8.995  12.234  0.00  0.00    +0.000 A 
ATOM      7  C   UNL     1      44.808   7.741  12.058  0.00  0.00    +0.000 A 
ATOM      8  C   UNL     1      45.583   6.587  11.849  0.00  0.00    +0.000 A 
ATOM      9  C   UNL     1      46.983   6.740  11.868  0.00  0.00    +0.000 A 
BRANCH   8  10
ATOM     10  C   UNL     1      44.955   5.269  11.598  0.00  0.00    +0.000 A 
ATOM     11  C   UNL     1      44.024   4.716  12.494  0.00  0.00    +0.000 A 
ATOM     12  C   UNL     1      43.426   3.476  12.257  0.00  0.00    +0.000 A 
ATOM     13  C   UNL     1      43.724   2.771  11.097  0.00  0.00    +0.000 A 
ATOM     14  C   UNL     1      44.631   3.290  10.169  0.00  0.00    +0.000 A 
ATOM     15  C   UNL     1      45.263   4.517  10.448  0.00  0.00    +0.000 A 
BRANCH  14  16
ATOM     16  C   UNL     1      44.905   2.587   8.864  0.00  0.00    +0.000 C 
ATOM     17  F   UNL     1      44.432   1.311   8.823  0.00  0.00    +0.000 F 
ATOM     18  F   UNL     1      44.333   3.229   7.806  0.00  0.00    +0.000 F 
ATOM     19  F   UNL     1      46.233   2.505   8.574  0.00  0.00    +0.000 F 
ENDBRANCH  14  16
ENDBRANCH   8  10
ENDBRANCH   1   4
BRANCH   1  20
ATOM     20  C   UNL     1      49.786   7.306  13.058  0.00  0.00    +0.000 C 
BRANCH  20  21
ATOM     21  N   UNL     1      49.320   7.664  14.412  0.00  0.00    +0.000 N 
ATOM     22  H   UNL     1      49.837   8.429  14.846  0.00  0.00    +0.000 HD
BRANCH  21  26
ATOM     23  C   UNL     1      48.105   4.539  16.975  0.00  0.00    +0.000 A 
ATOM     24  C   UNL     1      49.164   5.366  17.353  0.00  0.00    +0.000 A 
ATOM     25  C   UNL     1      49.568   6.414  16.517  0.00  0.00    +0.000 A 
ATOM     26  C   UNL     1      48.911   6.681  15.310  0.00  0.00    +0.000 A 
ATOM     27  C   UNL     1      47.867   5.823  14.934  0.00  0.00    +0.000 A 
ATOM     28  C   UNL     1      47.469   4.757  15.752  0.00  0.00    +0.000 A 
BRANCH  23  30
ATOM     29  N   UNL     1      48.352   3.191  18.986  0.00  0.00    +0.000 N 
ATOM     30  C   UNL     1      47.657   3.409  17.827  0.00  0.00    +0.000 C 
ATOM     31  O   UNL     1      46.686   2.723  17.535  0.00  0.00    +0.000 OA
ATOM     32  H   UNL     1      47.966   2.496  19.611  0.00  0.00    +0.000 HD
ATOM     33  H   UNL     1      48.967   3.888  19.381  0.00  0.00    +0.000 HD
ENDBRANCH  23  30
ENDBRANCH  21  26
ENDBRANCH  20  21
ENDBRANCH   1  20
TORSDOF 7
ENDMDL
MODEL 6
REMARK VINA RESULT:    -7.271      4.017      6.416
REMARK INTER + INTRA:         -11.739
REMARK INTER:                  -9.977
REMARK INTRA:                  -1.762
REMARK UNBOUND:                -1.493
REMARK  Name = 
REMARK  7 active torsions:
REMARK  status: ('A' for Active; 'I' for Inactive)
REMARK    1  A    between atoms: C_2  and  C_4
REMARK    2  A    between atoms: C_7  and  N_8
REMARK    3  A    between atoms: N_8  and  C_9
REMARK    4  A    between atoms: C_9  and  C_10
REMARK    5  A    between atoms: C_10  and  C_13
REMARK    6  A    between atoms: C_17  and  C_18
REMARK    7  A    between atoms: C_22  and  C_23
REMARK                            x       y       z     vdW  Elec       q    Type
REMARK                         _______ _______ _______ _____ _____    ______ ____
ROOT
ATOM      1  C   UNL     1      48.017   8.485  12.323  0.00  0.00    +0.000 C 
ATOM      2  F   UNL     1      48.259   7.210  11.898  0.00  0.00    +0.000 F 
ATOM      3  F   UNL     1      48.686   9.292  11.441  0.00  0.00    +0.000 F 
ENDROOT
BRANCH   1   4
ATOM      4  C   UNL     1      48.474   8.693  13.754  0.00  0.00    +0.000 A 
ATOM      5  C   UNL     1      48.705   9.986  14.252  0.00  0.00    +0.000 A 
ATOM      6  C   UNL     1      49.074  10.170  15.583  0.00  0.00    +0.000 A 
ATOM      7  C   UNL     1      49.187   9.070  16.435  0.00  0.00    +0.000 A 
ATOM      8  C   UNL     1      48.939   7.762  15.983  0.00  0.00    +0.000 A 
ATOM      9  C   UNL     1      48.612   7.602  14.622  0.00  0.00    +0.000 A 
BRANCH   8  10
ATOM     10  C   UNL     1      48.996   6.602  16.903  0.00  0.00    +0.000 A 
ATOM     11  C   UNL     1      49.382   6.748  18.246  0.00  0.00    +0.000 A 
ATOM     12  C   UNL     1      49.432   5.656  19.116  0.00  0.00    +0.000 A 
ATOM     13  C   UNL     1      49.062   4.393  18.669  0.00  0.00    +0.000 A 
ATOM     14  C   UNL     1      48.655   4.204  17.346  0.00  0.00    +0.000 A 
ATOM     15  C   UNL     1      48.660   5.304  16.469  0.00  0.00    +0.000 A 
BRANCH  14  16
ATOM     16  C   UNL     1      48.168   2.862  16.861  0.00  0.00    +0.000 C 
ATOM     17  F   UNL     1      47.715   2.880  15.576  0.00  0.00    +0.000 F 
ATOM     18  F   UNL     1      49.151   1.918  16.894  0.00  0.00    +0.000 F 
ATOM     19  F   UNL     1      47.148   2.364  17.612  0.00  0.00    +0.000 F 
ENDBRANCH  14  16
ENDBRANCH   8  10
ENDBRANCH   1   4
BRANCH   1  20
ATOM     20  C   UNL     1      46.499   8.782  12.197  0.00  0.00    +0.000 C 
BRANCH  20  21
ATOM     21  N   UNL     1      45.660   7.960  13.089  0.00  0.00    +0.000 N 
ATOM     22  H   UNL     1      45.917   8.012  14.075  0.00  0.00    +0.000 HD
BRANCH  21  26
ATOM     23  C   UNL     1      44.372   4.195  11.682  0.00  0.00    +0.000 A 
ATOM     24  C   UNL     1      45.248   4.261  12.767  0.00  0.00    +0.000 A 
ATOM     25  C   UNL     1      45.672   5.504  13.251  0.00  0.00    +0.000 A 
ATOM     26  C   UNL     1      45.212   6.702  12.692  0.00  0.00    +0.000 A 
ATOM     27  C   UNL     1      44.354   6.616  11.585  0.00  0.00    +0.000 A 
ATOM     28  C   UNL     1      43.941   5.377  11.078  0.00  0.00    +0.000 A 
BRANCH  23  30
ATOM     29  N   UNL     1      44.635   2.368  10.096  0.00  0.00    +0.000 N 
ATOM     30  C   UNL     1      43.911   2.896  11.131  0.00  0.00    +0.000 C 
ATOM     31  O   UNL     1      42.954   2.296  11.602  0.00  0.00    +0.000 OA
ATOM     32  H   UNL     1      44.381   1.432   9.809  0.00  0.00    +0.000 HD
ATOM     33  H   UNL     1      45.564   2.693   9.872  0.00  0.00    +0.000 HD
ENDBRANCH  23  30
ENDBRANCH  21  26
ENDBRANCH  20  21
ENDBRANCH   1  20
TORSDOF 7
ENDMDL
MODEL 7
REMARK VINA RESULT:    -6.680      3.856      7.385
REMARK INTER + INTRA:         -10.906
REMARK INTER:                  -9.253
REMARK INTRA:                  -1.653
REMARK UNBOUND:                -1.493
REMARK  Name = 
REMARK  7 active torsions:
REMARK  status: ('A' for Active; 'I' for Inactive)
REMARK    1  A    between atoms: C_2  and  C_4
REMARK    2  A    between atoms: C_7  and  N_8
REMARK    3  A    between atoms: N_8  and  C_9
REMARK    4  A    between atoms: C_9  and  C_10
REMARK    5  A    between atoms: C_10  and  C_13
REMARK    6  A    between atoms: C_17  and  C_18
REMARK    7  A    between atoms: C_22  and  C_23
REMARK                            x       y       z     vdW  Elec       q    Type
REMARK                         _______ _______ _______ _____ _____    ______ ____
ROOT
ATOM      1  C   UNL     1      48.946   8.040  12.787  0.00  0.00    +0.000 C 
ATOM      2  F   UNL     1      48.848   8.034  11.425  0.00  0.00    +0.000 F 
ATOM      3  F   UNL     1      50.290   8.062  13.051  0.00  0.00    +0.000 F 
ENDROOT
BRANCH   1   4
ATOM      4  C   UNL     1      48.258   6.837  13.402  0.00  0.00    +0.000 A 
ATOM      5  C   UNL     1      48.537   6.449  14.722  0.00  0.00    +0.000 A 
ATOM      6  C   UNL     1      47.861   5.374  15.296  0.00  0.00    +0.000 A 
ATOM      7  C   UNL     1      46.880   4.697  14.568  0.00  0.00    +0.000 A 
ATOM      8  C   UNL     1      46.552   5.070  13.253  0.00  0.00    +0.000 A 
ATOM      9  C   UNL     1      47.284   6.131  12.683  0.00  0.00    +0.000 A 
BRANCH   8  10
ATOM     10  C   UNL     1      45.468   4.394  12.505  0.00  0.00    +0.000 A 
ATOM     11  C   UNL     1      44.189   4.218  13.062  0.00  0.00    +0.000 A 
ATOM     12  C   UNL     1      43.164   3.585  12.356  0.00  0.00    +0.000 A 
ATOM     13  C   UNL     1      43.385   3.139  11.058  0.00  0.00    +0.000 A 
ATOM     14  C   UNL     1      44.635   3.307  10.458  0.00  0.00    +0.000 A 
ATOM     15  C   UNL     1      45.672   3.901  11.201  0.00  0.00    +0.000 A 
BRANCH  14  16
ATOM     16  C   UNL     1      44.875   2.911   9.023  0.00  0.00    +0.000 C 
ATOM     17  F   UNL     1      44.493   1.635   8.739  0.00  0.00    +0.000 F 
ATOM     18  F   UNL     1      44.191   3.705   8.151  0.00  0.00    +0.000 F 
ATOM     19  F   UNL     1      46.184   3.000   8.659  0.00  0.00    +0.000 F 
ENDBRANCH  14  16
ENDBRANCH   8  10
ENDBRANCH   1   4
BRANCH   1  20
ATOM     20  C   UNL     1      48.323   9.352  13.334  0.00  0.00    +0.000 C 
BRANCH  20  21
ATOM     21  N   UNL     1      46.853   9.305  13.448  0.00  0.00    +0.000 N 
ATOM     22  H   UNL     1      46.497   8.509  13.978  0.00  0.00    +0.000 HD
BRANCH  21  26
ATOM     23  C   UNL     1      44.216  10.394  10.339  0.00  0.00    +0.000 A 
ATOM     24  C   UNL     1      45.211  11.287  10.741  0.00  0.00    +0.000 A 
ATOM     25  C   UNL     1      46.100  10.932  11.762  0.00  0.00    +0.000 A 
ATOM     26  C   UNL     1      46.040   9.677  12.380  0.00  0.00    +0.000 A 
ATOM     27  C   UNL     1      45.017   8.805  11.982  0.00  0.00    +0.000 A 
ATOM     28  C   UNL     1      44.107   9.158  10.977  0.00  0.00    +0.000 A 
BRANCH  23  30
ATOM     29  N   UNL     1      43.636  10.511   7.978  0.00  0.00    +0.000 N 
ATOM     30  C   UNL     1      43.246  10.740   9.270  0.00  0.00    +0.000 C 
ATOM     31  O   UNL     1      42.129  11.171   9.524  0.00  0.00    +0.000 OA
ATOM     32  H   UNL     1      42.925  10.641   7.270  0.00  0.00    +0.000 HD
ATOM     33  H   UNL     1      44.421   9.918   7.753  0.00  0.00    +0.000 HD
ENDBRANCH  23  30
ENDBRANCH  21  26
ENDBRANCH  20  21
ENDBRANCH   1  20
TORSDOF 7
ENDMDL
