MODEL 1
REMARK VINA RESULT:    -8.658      0.000      0.000
REMARK INTER + INTRA:         -12.268
REMARK INTER:                 -11.695
REMARK INTRA:                  -0.573
REMARK UNBOUND:                -0.573
REMARK  Name = 
REMARK  6 active torsions:
REMARK  status: ('A' for Active; 'I' for Inactive)
REMARK    1  A    between atoms: C_2  and  O_3
REMARK    2  A    between atoms: C_2  and  C_18
REMARK    3  A    between atoms: O_3  and  C_4
REMARK    4  A    between atoms: C_4  and  C_5
REMARK    5  A    between atoms: C_8  and  C_9
REMARK    6  A    between atoms: C_9  and  C_10
REMARK                            x       y       z     vdW  Elec       q    Type
REMARK                         _______ _______ _______ _____ _____    ______ ____
ROOT
ATOM      1  C   UNL     1      47.167   5.120  14.580  0.00  0.00    +0.000 C 
ENDROOT
BRANCH   1   2
ATOM      2  C   UNL     1      46.455   4.868  13.282  0.00  0.00    +0.000 A 
ATOM      3  C   UNL     1      46.337   5.850  12.296  0.00  0.00    +0.000 A 
ATOM      4  C   UNL     1      45.640   5.575  11.118  0.00  0.00    +0.000 A 
ATOM      5  C   UNL     1      45.079   4.314  10.951  0.00  0.00    +0.000 A 
ATOM      6  N   UNL     1      45.204   3.339  11.884  0.00  0.00    +0.000 NA
ATOM      7  C   UNL     1      45.874   3.636  13.019  0.00  0.00    +0.000 A 
BRANCH   5   8
ATOM      8  C   UNL     1      44.182   3.990   9.788  0.00  0.00    +0.000 C 
BRANCH   8   9
ATOM      9  C   UNL     1      44.806   3.303   8.558  0.00  0.00    +0.000 C 
ATOM     10  C   UNL     1      45.892   4.149   7.871  0.00  0.00    +0.000 C 
ATOM     11  C   UNL     1      46.642   3.328   6.821  0.00  0.00    +0.000 C 
ATOM     12  C   UNL     1      47.170   2.021   7.406  0.00  0.00    +0.000 C 
ATOM     13  N   UNL     1      46.076   1.229   7.965  0.00  0.00    +0.000 NA
ATOM     14  C   UNL     1      45.398   1.961   9.033  0.00  0.00    +0.000 C 
ATOM     15  H   UNL     1      46.456   0.362   8.348  0.00  0.00    +0.000 HD
ENDBRANCH   8   9
ENDBRANCH   5   8
ENDBRANCH   1   2
BRANCH   1  16
ATOM     16  O   UNL     1      47.649   3.897  15.150  0.00  0.00    +0.000 OA
BRANCH  16  18
ATOM     17  O   UNL     1      46.384   3.365  16.978  0.00  0.00    +0.000 OA
ATOM     18  C   UNL     1      47.440   3.742  16.483  0.00  0.00    +0.000 C 
BRANCH  18  19
ATOM     19  C   UNL     1      48.578   4.171  17.293  0.00  0.00    +0.000 A 
ATOM     20  C   UNL     1      48.507   5.325  18.058  0.00  0.00    +0.000 A 
ATOM     21  S   UNL     1      49.961   5.684  18.875  0.00  0.00    +0.000 S 
ATOM     22  C   UNL     1      50.703   4.268  18.294  0.00  0.00    +0.000 A 
ATOM     23  N   UNL     1      51.971   3.942  18.663  0.00  0.00    +0.000 NA
ATOM     24  C   UNL     1      52.387   2.811  18.197  0.00  0.00    +0.000 A 
ATOM     25  N   UNL     1      51.655   1.986  17.384  0.00  0.00    +0.000 N 
ATOM     26  C   UNL     1      50.378   2.276  16.969  0.00  0.00    +0.000 A 
ATOM     27  O   UNL     1      49.756   1.494  16.260  0.00  0.00    +0.000 OA
ATOM     28  C   UNL     1      49.861   3.541  17.470  0.00  0.00    +0.000 A 
ATOM     29  H   UNL     1      52.030   1.102  17.071  0.00  0.00    +0.000 HD
ENDBRANCH  18  19
ENDBRANCH  16  18
ENDBRANCH   1  16
TORSDOF 6
ENDMDL
MODEL 2
REMARK VINA RESULT:    -8.260      2.403      2.911
REMARK INTER + INTRA:         -11.731
REMARK INTER:                 -10.916
REMARK INTRA:                  -0.815
REMARK UNBOUND:                -0.573
REMARK  Name = 
REMARK  6 active torsions:
REMARK  status: ('A' for Active; 'I' for Inactive)
REMARK    1  A    between atoms: C_2  and  O_3
REMARK    2  A    between atoms: C_2  and  C_18
REMARK    3  A    between atoms: O_3  and  C_4
REMARK    4  A    between atoms: C_4  and  C_5
REMARK    5  A    between atoms: C_8  and  C_9
REMARK    6  A    between atoms: C_9  and  C_10
REMARK                            x       y       z     vdW  Elec       q    Type
REMARK                         _______ _______ _______ _____ _____    ______ ____
ROOT
ATOM      1  C   UNL     1      45.488   5.505  13.525  0.00  0.00    +0.000 C 
ENDROOT
BRANCH   1   2
ATOM      2  C   UNL     1      45.301   5.094  12.093  0.00  0.00    +0.000 A 
ATOM      3  C   UNL     1      45.939   5.754  11.040  0.00  0.00    +0.000 A 
ATOM      4  C   UNL     1      45.709   5.350   9.724  0.00  0.00    +0.000 A 
ATOM      5  C   UNL     1      44.846   4.285   9.490  0.00  0.00    +0.000 A 
ATOM      6  N   UNL     1      44.239   3.615  10.498  0.00  0.00    +0.000 NA
ATOM      7  C   UNL     1      44.470   4.033  11.762  0.00  0.00    +0.000 A 
BRANCH   5   8
ATOM      8  C   UNL     1      44.424   3.893   8.101  0.00  0.00    +0.000 C 
BRANCH   8   9
ATOM      9  C   UNL     1      45.273   2.850   7.350  0.00  0.00    +0.000 C 
ATOM     10  C   UNL     1      46.431   3.468   6.547  0.00  0.00    +0.000 C 
ATOM     11  C   UNL     1      47.379   2.383   6.030  0.00  0.00    +0.000 C 
ATOM     12  C   UNL     1      47.843   1.465   7.157  0.00  0.00    +0.000 C 
ATOM     13  N   UNL     1      46.699   0.847   7.824  0.00  0.00    +0.000 NA
ATOM     14  C   UNL     1      45.822   1.864   8.401  0.00  0.00    +0.000 C 
ATOM     15  H   UNL     1      47.038   0.239   8.570  0.00  0.00    +0.000 HD
ENDBRANCH   8   9
ENDBRANCH   5   8
ENDBRANCH   1   2
BRANCH   1  16
ATOM     16  O   UNL     1      45.721   4.367  14.363  0.00  0.00    +0.000 OA
BRANCH  16  18
ATOM     17  O   UNL     1      47.705   3.312  13.943  0.00  0.00    +0.000 OA
ATOM     18  C   UNL     1      47.023   4.075  14.617  0.00  0.00    +0.000 C 
BRANCH  18  19
ATOM     19  C   UNL     1      47.515   4.687  15.849  0.00  0.00    +0.000 A 
ATOM     20  C   UNL     1      47.200   4.142  17.085  0.00  0.00    +0.000 A 
ATOM     21  S   UNL     1      47.816   5.042  18.396  0.00  0.00    +0.000 S 
ATOM     22  C   UNL     1      48.587   6.143  17.352  0.00  0.00    +0.000 A 
ATOM     23  N   UNL     1      49.344   7.160  17.845  0.00  0.00    +0.000 NA
ATOM     24  C   UNL     1      49.919   7.881  16.941  0.00  0.00    +0.000 A 
ATOM     25  N   UNL     1      49.793   7.687  15.590  0.00  0.00    +0.000 N 
ATOM     26  C   UNL     1      49.029   6.685  15.042  0.00  0.00    +0.000 A 
ATOM     27  O   UNL     1      48.967   6.538  13.827  0.00  0.00    +0.000 OA
ATOM     28  C   UNL     1      48.361   5.840  16.021  0.00  0.00    +0.000 A 
ATOM     29  H   UNL     1      50.289   8.272  14.934  0.00  0.00    +0.000 HD
ENDBRANCH  18  19
ENDBRANCH  16  18
ENDBRANCH   1  16
TORSDOF 6
ENDMDL
MODEL 3
REMARK VINA RESULT:    -7.602      3.077      8.724
REMARK INTER + INTRA:         -10.842
REMARK INTER:                  -9.905
REMARK INTRA:                  -0.937
REMARK UNBOUND:                -0.573
REMARK  Name = 
REMARK  6 active torsions:
REMARK  status: ('A' for Active; 'I' for Inactive)
REMARK    1  A    between atoms: C_2  and  O_3
REMARK    2  A    between atoms: C_2  and  C_18
REMARK    3  A    between atoms: O_3  and  C_4
REMARK    4  A    between atoms: C_4  and  C_5
REMARK    5  A    between atoms: C_8  and  C_9
REMARK    6  A    between atoms: C_9  and  C_10
REMARK                            x       y       z     vdW  Elec       q    Type
REMARK                         _______ _______ _______ _____ _____    ______ ____
ROOT
ATOM      1  C   UNL     1      47.090   6.192  12.641  0.00  0.00    +0.000 C 
ENDROOT
BRANCH   1   2
ATOM      2  C   UNL     1      47.419   5.630  13.994  0.00  0.00    +0.000 A 
ATOM      3  C   UNL     1      46.803   4.478  14.490  0.00  0.00    +0.000 A 
ATOM      4  C   UNL     1      47.123   4.012  15.766  0.00  0.00    +0.000 A 
ATOM      5  C   UNL     1      48.061   4.709  16.519  0.00  0.00    +0.000 A 
ATOM      6  N   UNL     1      48.689   5.812  16.046  0.00  0.00    +0.000 NA
ATOM      7  C   UNL     1      48.353   6.248  14.812  0.00  0.00    +0.000 A 
BRANCH   5   8
ATOM      8  C   UNL     1      48.343   4.366  17.956  0.00  0.00    +0.000 C 
BRANCH   8   9
ATOM      9  C   UNL     1      49.496   3.391  18.258  0.00  0.00    +0.000 C 
ATOM     10  C   UNL     1      49.816   2.442  17.091  0.00  0.00    +0.000 C 
ATOM     11  C   UNL     1      51.115   1.676  17.349  0.00  0.00    +0.000 C 
ATOM     12  C   UNL     1      52.262   2.621  17.695  0.00  0.00    +0.000 C 
ATOM     13  N   UNL     1      51.925   3.433  18.863  0.00  0.00    +0.000 NA
ATOM     14  C   UNL     1      50.735   4.241  18.608  0.00  0.00    +0.000 C 
ATOM     15  H   UNL     1      52.708   4.053  19.073  0.00  0.00    +0.000 HD
ENDBRANCH   8   9
ENDBRANCH   5   8
ENDBRANCH   1   2
BRANCH   1  16
ATOM     16  O   UNL     1      45.888   6.969  12.682  0.00  0.00    +0.000 OA
BRANCH  16  18
ATOM     17  O   UNL     1      44.593   7.705  10.948  0.00  0.00    +0.000 OA
ATOM     18  C   UNL     1      45.034   6.795  11.641  0.00  0.00    +0.000 C 
BRANCH  18  19
ATOM     19  C   UNL     1      44.600   5.408  11.483  0.00  0.00    +0.000 A 
ATOM     20  C   UNL     1      43.778   4.812  12.427  0.00  0.00    +0.000 A 
ATOM     21  S   UNL     1      43.443   3.174  12.091  0.00  0.00    +0.000 S 
ATOM     22  C   UNL     1      44.321   3.233  10.635  0.00  0.00    +0.000 A 
ATOM     23  N   UNL     1      44.395   2.147   9.819  0.00  0.00    +0.000 NA
ATOM     24  C   UNL     1      45.042   2.352   8.720  0.00  0.00    +0.000 A 
ATOM     25  N   UNL     1      45.634   3.537   8.371  0.00  0.00    +0.000 N 
ATOM     26  C   UNL     1      45.601   4.658   9.166  0.00  0.00    +0.000 A 
ATOM     27  O   UNL     1      46.127   5.702   8.798  0.00  0.00    +0.000 OA
ATOM     28  C   UNL     1      44.881   4.481  10.417  0.00  0.00    +0.000 A 
ATOM     29  H   UNL     1      46.107   3.640   7.484  0.00  0.00    +0.000 HD
ENDBRANCH  18  19
ENDBRANCH  16  18
ENDBRANCH   1  16
TORSDOF 6
ENDMDL
MODEL 4
REMARK VINA RESULT:    -7.602      2.010      2.640
REMARK INTER + INTRA:         -10.841
REMARK INTER:                 -10.086
REMARK INTRA:                  -0.755
REMARK UNBOUND:                -0.573
REMARK  Name = 
REMARK  6 active torsions:
REMARK  status: ('A' for Active; 'I' for Inactive)
REMARK    1  A    between atoms: C_2  and  O_3
REMARK    2  A    between atoms: C_2  and  C_18
REMARK    3  A    between atoms: O_3  and  C_4
REMARK    4  A    between atoms: C_4  and  C_5
REMARK    5  A    between atoms: C_8  and  C_9
REMARK    6  A    between atoms: C_9  and  C_10
REMARK                            x       y       z     vdW  Elec       q    Type
REMARK                         _______ _______ _______ _____ _____    ______ ____
ROOT
ATOM      1  C   UNL     1      45.824   5.905  13.496  0.00  0.00    +0.000 C 
ENDROOT
BRANCH   1   2
ATOM      2  C   UNL     1      45.488   5.225  12.200  0.00  0.00    +0.000 A 
ATOM      3  C   UNL     1      45.676   5.848  10.964  0.00  0.00    +0.000 A 
ATOM      4  C   UNL     1      45.322   5.184   9.788  0.00  0.00    +0.000 A 
ATOM      5  C   UNL     1      44.790   3.902   9.876  0.00  0.00    +0.000 A 
ATOM      6  N   UNL     1      44.625   3.270  11.063  0.00  0.00    +0.000 NA
ATOM      7  C   UNL     1      44.966   3.940  12.186  0.00  0.00    +0.000 A 
BRANCH   5   8
ATOM      8  C   UNL     1      44.238   3.185   8.675  0.00  0.00    +0.000 C 
BRANCH   8   9
ATOM      9  C   UNL     1      45.234   2.622   7.643  0.00  0.00    +0.000 C 
ATOM     10  C   UNL     1      46.208   3.679   7.095  0.00  0.00    +0.000 C 
ATOM     11  C   UNL     1      47.321   3.024   6.273  0.00  0.00    +0.000 C 
ATOM     12  C   UNL     1      48.010   1.910   7.055  0.00  0.00    +0.000 C 
ATOM     13  N   UNL     1      47.042   0.899   7.473  0.00  0.00    +0.000 NA
ATOM     14  C   UNL     1      46.015   1.485   8.332  0.00  0.00    +0.000 C 
ATOM     15  H   UNL     1      47.529   0.167   7.992  0.00  0.00    +0.000 HD
ENDBRANCH   8   9
ENDBRANCH   5   8
ENDBRANCH   1   2
BRANCH   1  16
ATOM     16  O   UNL     1      46.919   6.813  13.334  0.00  0.00    +0.000 OA
BRANCH  16  18
ATOM     17  O   UNL     1      48.985   5.922  12.927  0.00  0.00    +0.000 OA
ATOM     18  C   UNL     1      48.138   6.343  13.707  0.00  0.00    +0.000 C 
BRANCH  18  19
ATOM     19  C   UNL     1      48.311   6.290  15.157  0.00  0.00    +0.000 A 
ATOM     20  C   UNL     1      48.617   7.435  15.875  0.00  0.00    +0.000 A 
ATOM     21  S   UNL     1      48.841   7.147  17.542  0.00  0.00    +0.000 S 
ATOM     22  C   UNL     1      48.459   5.498  17.365  0.00  0.00    +0.000 A 
ATOM     23  N   UNL     1      48.422   4.670  18.445  0.00  0.00    +0.000 NA
ATOM     24  C   UNL     1      48.060   3.460  18.174  0.00  0.00    +0.000 A 
ATOM     25  N   UNL     1      47.747   3.000  16.922  0.00  0.00    +0.000 N 
ATOM     26  C   UNL     1      47.784   3.791  15.798  0.00  0.00    +0.000 A 
ATOM     27  O   UNL     1      47.473   3.337  14.703  0.00  0.00    +0.000 OA
ATOM     28  C   UNL     1      48.185   5.167  16.050  0.00  0.00    +0.000 A 
ATOM     29  H   UNL     1      47.448   2.046  16.779  0.00  0.00    +0.000 HD
ENDBRANCH  18  19
ENDBRANCH  16  18
ENDBRANCH   1  16
TORSDOF 6
ENDMDL
MODEL 5
REMARK VINA RESULT:    -7.557      1.459      2.216
REMARK INTER + INTRA:         -10.781
REMARK INTER:                 -10.773
REMARK INTRA:                  -0.008
REMARK UNBOUND:                -0.573
REMARK  Name = 
REMARK  6 active torsions:
REMARK  status: ('A' for Active; 'I' for Inactive)
REMARK    1  A    between atoms: C_2  and  O_3
REMARK    2  A    between atoms: C_2  and  C_18
REMARK    3  A    between atoms: O_3  and  C_4
REMARK    4  A    between atoms: C_4  and  C_5
REMARK    5  A    between atoms: C_8  and  C_9
REMARK    6  A    between atoms: C_9  and  C_10
REMARK                            x       y       z     vdW  Elec       q    Type
REMARK                         _______ _______ _______ _____ _____    ______ ____
ROOT
ATOM      1  C   UNL     1      47.211   4.681  14.797  0.00  0.00    +0.000 C 
ENDROOT
BRANCH   1   2
ATOM      2  C   UNL     1      46.321   4.604  13.590  0.00  0.00    +0.000 A 
ATOM      3  C   UNL     1      45.927   3.386  13.032  0.00  0.00    +0.000 A 
ATOM      4  C   UNL     1      45.121   3.369  11.892  0.00  0.00    +0.000 A 
ATOM      5  C   UNL     1      44.721   4.580  11.337  0.00  0.00    +0.000 A 
ATOM      6  N   UNL     1      45.070   5.772  11.878  0.00  0.00    +0.000 NA
ATOM      7  C   UNL     1      45.859   5.760  12.975  0.00  0.00    +0.000 A 
BRANCH   5   8
ATOM      8  C   UNL     1      43.989   4.650  10.025  0.00  0.00    +0.000 C 
BRANCH   8   9
ATOM      9  C   UNL     1      44.489   3.769   8.865  0.00  0.00    +0.000 C 
ATOM     10  C   UNL     1      45.815   4.255   8.256  0.00  0.00    +0.000 C 
ATOM     11  C   UNL     1      46.387   3.217   7.287  0.00  0.00    +0.000 C 
ATOM     12  C   UNL     1      46.486   1.841   7.939  0.00  0.00    +0.000 C 
ATOM     13  N   UNL     1      45.177   1.403   8.420  0.00  0.00    +0.000 NA
ATOM     14  C   UNL     1      44.649   2.336   9.413  0.00  0.00    +0.000 C 
ATOM     15  H   UNL     1      45.272   0.482   8.850  0.00  0.00    +0.000 HD
ENDBRANCH   8   9
ENDBRANCH   5   8
ENDBRANCH   1   2
BRANCH   1  16
ATOM     16  O   UNL     1      47.543   3.372  15.277  0.00  0.00    +0.000 OA
BRANCH  16  18
ATOM     17  O   UNL     1      46.678   3.218  17.387  0.00  0.00    +0.000 OA
ATOM     18  C   UNL     1      47.638   3.242  16.625  0.00  0.00    +0.000 C 
BRANCH  18  19
ATOM     19  C   UNL     1      49.019   3.235  17.102  0.00  0.00    +0.000 A 
ATOM     20  C   UNL     1      49.825   2.121  16.921  0.00  0.00    +0.000 A 
ATOM     21  S   UNL     1      51.378   2.293  17.607  0.00  0.00    +0.000 S 
ATOM     22  C   UNL     1      51.047   3.889  18.096  0.00  0.00    +0.000 A 
ATOM     23  N   UNL     1      51.997   4.639  18.716  0.00  0.00    +0.000 NA
ATOM     24  C   UNL     1      51.630   5.850  18.978  0.00  0.00    +0.000 A 
ATOM     25  N   UNL     1      50.396   6.372  18.689  0.00  0.00    +0.000 N 
ATOM     26  C   UNL     1      49.398   5.651  18.079  0.00  0.00    +0.000 A 
ATOM     27  O   UNL     1      48.318   6.170  17.821  0.00  0.00    +0.000 OA
ATOM     28  C   UNL     1      49.762   4.279  17.761  0.00  0.00    +0.000 A 
ATOM     29  H   UNL     1      50.179   7.336  18.899  0.00  0.00    +0.000 HD
ENDBRANCH  18  19
ENDBRANCH  16  18
ENDBRANCH   1  16
TORSDOF 6
ENDMDL
MODEL 6
REMARK VINA RESULT:    -7.368      2.237      2.875
REMARK INTER + INTRA:         -10.526
REMARK INTER:                  -9.859
REMARK INTRA:                  -0.667
REMARK UNBOUND:                -0.573
REMARK  Name = 
REMARK  6 active torsions:
REMARK  status: ('A' for Active; 'I' for Inactive)
REMARK    1  A    between atoms: C_2  and  O_3
REMARK    2  A    between atoms: C_2  and  C_18
REMARK    3  A    between atoms: O_3  and  C_4
REMARK    4  A    between atoms: C_4  and  C_5
REMARK    5  A    between atoms: C_8  and  C_9
REMARK    6  A    between atoms: C_9  and  C_10
REMARK                            x       y       z     vdW  Elec       q    Type
REMARK                         _______ _______ _______ _____ _____    ______ ____
ROOT
ATOM      1  C   UNL     1      48.538   6.900  13.490  0.00  0.00    +0.000 C 
ENDROOT
BRANCH   1   2
ATOM      2  C   UNL     1      47.276   6.374  12.869  0.00  0.00    +0.000 A 
ATOM      3  C   UNL     1      46.714   5.153  13.248  0.00  0.00    +0.000 A 
ATOM      4  C   UNL     1      45.554   4.695  12.621  0.00  0.00    +0.000 A 
ATOM      5  C   UNL     1      44.976   5.477  11.626  0.00  0.00    +0.000 A 
ATOM      6  N   UNL     1      45.490   6.676  11.263  0.00  0.00    +0.000 NA
ATOM      7  C   UNL     1      46.619   7.091  11.879  0.00  0.00    +0.000 A 
BRANCH   5   8
ATOM      8  C   UNL     1      43.823   4.984  10.796  0.00  0.00    +0.000 C 
BRANCH   8   9
ATOM      9  C   UNL     1      44.130   4.061   9.602  0.00  0.00    +0.000 C 
ATOM     10  C   UNL     1      45.402   4.457   8.834  0.00  0.00    +0.000 C 
ATOM     11  C   UNL     1      45.792   3.374   7.824  0.00  0.00    +0.000 C 
ATOM     12  C   UNL     1      45.883   2.002   8.485  0.00  0.00    +0.000 C 
ATOM     13  N   UNL     1      44.616   1.652   9.124  0.00  0.00    +0.000 NA
ATOM     14  C   UNL     1      44.266   2.627  10.154  0.00  0.00    +0.000 C 
ATOM     15  H   UNL     1      44.705   0.731   9.555  0.00  0.00    +0.000 HD
ENDBRANCH   8   9
ENDBRANCH   5   8
ENDBRANCH   1   2
BRANCH   1  16
ATOM     16  O   UNL     1      48.852   6.195  14.696  0.00  0.00    +0.000 OA
BRANCH  16  18
ATOM     17  O   UNL     1      50.809   7.232  15.266  0.00  0.00    +0.000 OA
ATOM     18  C   UNL     1      49.686   6.836  15.557  0.00  0.00    +0.000 C 
BRANCH  18  19
ATOM     19  C   UNL     1      49.150   6.921  16.913  0.00  0.00    +0.000 A 
ATOM     20  C   UNL     1      48.558   8.089  17.368  0.00  0.00    +0.000 A 
ATOM     21  S   UNL     1      48.058   8.002  18.997  0.00  0.00    +0.000 S 
ATOM     22  C   UNL     1      48.545   6.377  19.119  0.00  0.00    +0.000 A 
ATOM     23  N   UNL     1      48.352   5.674  20.268  0.00  0.00    +0.000 NA
ATOM     24  C   UNL     1      48.714   4.436  20.201  0.00  0.00    +0.000 A 
ATOM     25  N   UNL     1      49.265   3.842  19.096  0.00  0.00    +0.000 N 
ATOM     26  C   UNL     1      49.495   4.511  17.918  0.00  0.00    +0.000 A 
ATOM     27  O   UNL     1      49.970   3.929  16.949  0.00  0.00    +0.000 OA
ATOM     28  C   UNL     1      49.102   5.912  17.940  0.00  0.00    +0.000 A 
ATOM     29  H   UNL     1      49.506   2.861  19.100  0.00  0.00    +0.000 HD
ENDBRANCH  18  19
ENDBRANCH  16  18
ENDBRANCH   1  16
TORSDOF 6
ENDMDL
MODEL 7
REMARK VINA RESULT:    -7.134      1.846      2.637
REMARK INTER + INTRA:         -10.209
REMARK INTER:                  -9.411
REMARK INTRA:                  -0.799
REMARK UNBOUND:                -0.573
REMARK  Name = 
REMARK  6 active torsions:
REMARK  status: ('A' for Active; 'I' for Inactive)
REMARK    1  A    between atoms: C_2  and  O_3
REMARK    2  A    between atoms: C_2  and  C_18
REMARK    3  A    between atoms: O_3  and  C_4
REMARK    4  A    between atoms: C_4  and  C_5
REMARK    5  A    between atoms: C_8  and  C_9
REMARK    6  A    between atoms: C_9  and  C_10
REMARK                            x       y       z     vdW  Elec       q    Type
REMARK                         _______ _______ _______ _____ _____    ______ ____
ROOT
ATOM      1  C   UNL     1      48.877   6.908  15.248  0.00  0.00    +0.000 C 
ENDROOT
BRANCH   1   2
ATOM      2  C   UNL     1      47.761   6.400  14.381  0.00  0.00    +0.000 A 
ATOM      3  C   UNL     1      47.220   5.122  14.537  0.00  0.00    +0.000 A 
ATOM      4  C   UNL     1      46.202   4.687  13.686  0.00  0.00    +0.000 A 
ATOM      5  C   UNL     1      45.743   5.548  12.696  0.00  0.00    +0.000 A 
ATOM      6  N   UNL     1      46.235   6.801  12.545  0.00  0.00    +0.000 NA
ATOM      7  C   UNL     1      47.227   7.193  13.375  0.00  0.00    +0.000 A 
BRANCH   5   8
ATOM      8  C   UNL     1      44.766   5.101  11.644  0.00  0.00    +0.000 C 
BRANCH   8   9
ATOM      9  C   UNL     1      45.285   4.207  10.503  0.00  0.00    +0.000 C 
ATOM     10  C   UNL     1      44.320   3.067  10.133  0.00  0.00    +0.000 C 
ATOM     11  C   UNL     1      44.765   2.370   8.845  0.00  0.00    +0.000 C 
ATOM     12  C   UNL     1      44.983   3.371   7.715  0.00  0.00    +0.000 C 
ATOM     13  N   UNL     1      45.972   4.376   8.101  0.00  0.00    +0.000 NA
ATOM     14  C   UNL     1      45.528   5.115   9.281  0.00  0.00    +0.000 C 
ATOM     15  H   UNL     1      46.099   5.031   7.328  0.00  0.00    +0.000 HD
ENDBRANCH   8   9
ENDBRANCH   5   8
ENDBRANCH   1   2
BRANCH   1  16
ATOM     16  O   UNL     1      49.670   5.828  15.754  0.00  0.00    +0.000 OA
BRANCH  16  18
ATOM     17  O   UNL     1      48.770   6.109  17.836  0.00  0.00    +0.000 OA
ATOM     18  C   UNL     1      49.630   5.642  17.099  0.00  0.00    +0.000 C 
BRANCH  18  19
ATOM     19  C   UNL     1      50.786   4.907  17.608  0.00  0.00    +0.000 A 
ATOM     20  C   UNL     1      51.790   5.561  18.305  0.00  0.00    +0.000 A 
ATOM     21  S   UNL     1      53.077   4.536  18.754  0.00  0.00    +0.000 S 
ATOM     22  C   UNL     1      52.296   3.173  18.100  0.00  0.00    +0.000 A 
ATOM     23  N   UNL     1      52.854   1.936  18.193  0.00  0.00    +0.000 NA
ATOM     24  C   UNL     1      52.125   0.986  17.708  0.00  0.00    +0.000 A 
ATOM     25  N   UNL     1      50.897   1.164  17.126  0.00  0.00    +0.000 N 
ATOM     26  C   UNL     1      50.297   2.393  16.993  0.00  0.00    +0.000 A 
ATOM     27  O   UNL     1      49.187   2.496  16.485  0.00  0.00    +0.000 OA
ATOM     28  C   UNL     1      51.078   3.499  17.527  0.00  0.00    +0.000 A 
ATOM     29  H   UNL     1      50.366   0.375  16.786  0.00  0.00    +0.000 HD
ENDBRANCH  18  19
ENDBRANCH  16  18
ENDBRANCH   1  16
TORSDOF 6
ENDMDL
MODEL 8
REMARK VINA RESULT:    -7.056      2.070      2.405
REMARK INTER + INTRA:         -10.104
REMARK INTER:                  -9.405
REMARK INTRA:                  -0.699
REMARK UNBOUND:                -0.573
REMARK  Name = 
REMARK  6 active torsions:
REMARK  status: ('A' for Active; 'I' for Inactive)
REMARK    1  A    between atoms: C_2  and  O_3
REMARK    2  A    between atoms: C_2  and  C_18
REMARK    3  A    between atoms: O_3  and  C_4
REMARK    4  A    between atoms: C_4  and  C_5
REMARK    5  A    between atoms: C_8  and  C_9
REMARK    6  A    between atoms: C_9  and  C_10
REMARK                            x       y       z     vdW  Elec       q    Type
REMARK                         _______ _______ _______ _____ _____    ______ ____
ROOT
ATOM      1  C   UNL     1      48.498   7.146  13.999  0.00  0.00    +0.000 C 
ENDROOT
BRANCH   1   2
ATOM      2  C   UNL     1      47.365   6.641  13.152  0.00  0.00    +0.000 A 
ATOM      3  C   UNL     1      46.750   7.436  12.183  0.00  0.00    +0.000 A 
ATOM      4  C   UNL     1      45.682   6.929  11.441  0.00  0.00    +0.000 A 
ATOM      5  C   UNL     1      45.255   5.628  11.684  0.00  0.00    +0.000 A 
ATOM      6  N   UNL     1      45.856   4.832  12.600  0.00  0.00    +0.000 NA
ATOM      7  C   UNL     1      46.880   5.351  13.312  0.00  0.00    +0.000 A 
BRANCH   5   8
ATOM      8  C   UNL     1      44.017   5.064  11.043  0.00  0.00    +0.000 C 
BRANCH   8   9
ATOM      9  C   UNL     1      44.185   4.148   9.816  0.00  0.00    +0.000 C 
ATOM     10  C   UNL     1      45.404   4.506   8.949  0.00  0.00    +0.000 C 
ATOM     11  C   UNL     1      45.664   3.425   7.897  0.00  0.00    +0.000 C 
ATOM     12  C   UNL     1      45.756   2.040   8.531  0.00  0.00    +0.000 C 
ATOM     13  N   UNL     1      44.534   1.730   9.269  0.00  0.00    +0.000 NA
ATOM     14  C   UNL     1      44.310   2.702  10.337  0.00  0.00    +0.000 C 
ATOM     15  H   UNL     1      44.621   0.800   9.681  0.00  0.00    +0.000 HD
ENDBRANCH   8   9
ENDBRANCH   5   8
ENDBRANCH   1   2
BRANCH   1  16
ATOM     16  O   UNL     1      48.862   6.187  14.999  0.00  0.00    +0.000 OA
BRANCH  16  18
ATOM     17  O   UNL     1      48.623   7.460  16.882  0.00  0.00    +0.000 OA
ATOM     18  C   UNL     1      49.282   6.698  16.185  0.00  0.00    +0.000 C 
BRANCH  18  19
ATOM     19  C   UNL     1      50.658   6.329  16.510  0.00  0.00    +0.000 A 
ATOM     20  C   UNL     1      51.713   7.166  16.179  0.00  0.00    +0.000 A 
ATOM     21  S   UNL     1      53.239   6.522  16.585  0.00  0.00    +0.000 S 
ATOM     22  C   UNL     1      52.534   5.142  17.287  0.00  0.00    +0.000 A 
ATOM     23  N   UNL     1      53.303   4.187  17.876  0.00  0.00    +0.000 NA
ATOM     24  C   UNL     1      52.633   3.226  18.420  0.00  0.00    +0.000 A 
ATOM     25  N   UNL     1      51.266   3.126  18.415  0.00  0.00    +0.000 N 
ATOM     26  C   UNL     1      50.446   4.054  17.820  0.00  0.00    +0.000 A 
ATOM     27  O   UNL     1      49.227   3.931  17.862  0.00  0.00    +0.000 OA
ATOM     28  C   UNL     1      51.153   5.161  17.193  0.00  0.00    +0.000 A 
ATOM     29  H   UNL     1      50.801   2.360  18.879  0.00  0.00    +0.000 HD
ENDBRANCH  18  19
ENDBRANCH  16  18
ENDBRANCH   1  16
TORSDOF 6
ENDMDL
MODEL 9
REMARK VINA RESULT:    -7.040      2.510      3.530
REMARK INTER + INTRA:         -10.083
REMARK INTER:                  -9.506
REMARK INTRA:                  -0.577
REMARK UNBOUND:                -0.573
REMARK  Name = 
REMARK  6 active torsions:
REMARK  status: ('A' for Active; 'I' for Inactive)
REMARK    1  A    between atoms: C_2  and  O_3
REMARK    2  A    between atoms: C_2  and  C_18
REMARK    3  A    between atoms: O_3  and  C_4
REMARK    4  A    between atoms: C_4  and  C_5
REMARK    5  A    between atoms: C_8  and  C_9
REMARK    6  A    between atoms: C_9  and  C_10
REMARK                            x       y       z     vdW  Elec       q    Type
REMARK                         _______ _______ _______ _____ _____    ______ ____
ROOT
ATOM      1  C   UNL     1      47.978   6.799  14.014  0.00  0.00    +0.000 C 
ENDROOT
BRANCH   1   2
ATOM      2  C   UNL     1      47.018   6.242  13.004  0.00  0.00    +0.000 A 
ATOM      3  C   UNL     1      46.755   6.886  11.793  0.00  0.00    +0.000 A 
ATOM      4  C   UNL     1      45.831   6.341  10.899  0.00  0.00    +0.000 A 
ATOM      5  C   UNL     1      45.193   5.152  11.237  0.00  0.00    +0.000 A 
ATOM      6  N   UNL     1      45.454   4.497  12.394  0.00  0.00    +0.000 NA
ATOM      7  C   UNL     1      46.344   5.053  13.246  0.00  0.00    +0.000 A 
BRANCH   5   8
ATOM      8  C   UNL     1      44.075   4.585  10.406  0.00  0.00    +0.000 C 
BRANCH   8   9
ATOM      9  C   UNL     1      44.441   3.682   9.214  0.00  0.00    +0.000 C 
ATOM     10  C   UNL     1      45.544   4.271   8.318  0.00  0.00    +0.000 C 
ATOM     11  C   UNL     1      46.038   3.234   7.305  0.00  0.00    +0.000 C 
ATOM     12  C   UNL     1      46.441   1.932   7.990  0.00  0.00    +0.000 C 
ATOM     13  N   UNL     1      45.323   1.384   8.755  0.00  0.00    +0.000 NA
ATOM     14  C   UNL     1      44.890   2.323   9.788  0.00  0.00    +0.000 C 
ATOM     15  H   UNL     1      45.619   0.515   9.201  0.00  0.00    +0.000 HD
ENDBRANCH   8   9
ENDBRANCH   5   8
ENDBRANCH   1   2
BRANCH   1  16
ATOM     16  O   UNL     1      48.287   5.830  15.023  0.00  0.00    +0.000 OA
BRANCH  16  18
ATOM     17  O   UNL     1      50.357   6.639  15.560  0.00  0.00    +0.000 OA
ATOM     18  C   UNL     1      49.273   6.173  15.892  0.00  0.00    +0.000 C 
BRANCH  18  19
ATOM     19  C   UNL     1      48.956   5.833  17.277  0.00  0.00    +0.000 A 
ATOM     20  C   UNL     1      49.179   4.553  17.761  0.00  0.00    +0.000 A 
ATOM     21  S   UNL     1      48.681   4.346  19.379  0.00  0.00    +0.000 S 
ATOM     22  C   UNL     1      48.225   5.981  19.507  0.00  0.00    +0.000 A 
ATOM     23  N   UNL     1      47.748   6.483  20.678  0.00  0.00    +0.000 NA
ATOM     24  C   UNL     1      47.499   7.750  20.650  0.00  0.00    +0.000 A 
ATOM     25  N   UNL     1      47.668   8.555  19.554  0.00  0.00    +0.000 N 
ATOM     26  C   UNL     1      48.130   8.094  18.345  0.00  0.00    +0.000 A 
ATOM     27  O   UNL     1      48.285   8.859  17.400  0.00  0.00    +0.000 OA
ATOM     28  C   UNL     1      48.430   6.670  18.324  0.00  0.00    +0.000 A 
ATOM     29  H   UNL     1      47.475   9.546  19.603  0.00  0.00    +0.000 HD
ENDBRANCH  18  19
ENDBRANCH  16  18
ENDBRANCH   1  16
TORSDOF 6
ENDMDL
