MODEL 1
REMARK VINA RESULT:    -8.321      0.000      0.000
REMARK INTER + INTRA:         -11.516
REMARK INTER:                 -10.753
REMARK INTRA:                  -0.763
REMARK UNBOUND:                -0.763
REMARK  Name = 
REMARK  5 active torsions:
REMARK  status: ('A' for Active; 'I' for Inactive)
REMARK    1  A    between atoms: C_2  and  C_4
REMARK    2  A    between atoms: C_7  and  N_8
REMARK    3  A    between atoms: N_8  and  C_9
REMARK    4  A    between atoms: C_9  and  C_10
REMARK    5  A    between atoms: C_14  and  C_15
REMARK                            x       y       z     vdW  Elec       q    Type
REMARK                         _______ _______ _______ _____ _____    ______ ____
ROOT
ATOM      1  N   UNL     1      43.769   4.996   9.786  0.00  0.00    +0.000 N 
ATOM      2  H   UNL     1      42.920   5.165   9.246  0.00  0.00    +0.000 HD
ENDROOT
BRANCH   1   6
ATOM      3  C   UNL     1      46.307   2.244   7.839  0.00  0.00    +0.000 A 
ATOM      4  C   UNL     1      45.315   1.764   8.700  0.00  0.00    +0.000 A 
ATOM      5  C   UNL     1      44.446   2.660   9.339  0.00  0.00    +0.000 A 
ATOM      6  C   UNL     1      44.573   4.041   9.150  0.00  0.00    +0.000 A 
ATOM      7  C   UNL     1      45.516   4.500   8.225  0.00  0.00    +0.000 A 
ATOM      8  C   UNL     1      46.395   3.617   7.594  0.00  0.00    +0.000 A 
BRANCH   3  10
ATOM      9  N   UNL     1      48.398   1.937   6.619  0.00  0.00    +0.000 N 
ATOM     10  C   UNL     1      47.317   1.351   7.213  0.00  0.00    +0.000 C 
ATOM     11  O   UNL     1      47.202   0.133   7.242  0.00  0.00    +0.000 OA
ATOM     12  H   UNL     1      49.115   1.307   6.283  0.00  0.00    +0.000 HD
ATOM     13  H   UNL     1      48.658   2.899   6.789  0.00  0.00    +0.000 HD
ENDBRANCH   3  10
ENDBRANCH   1   6
BRANCH   1  14
ATOM     14  C   UNL     1      43.491   4.819  11.207  0.00  0.00    +0.000 C 
BRANCH  14  15
ATOM     15  C   UNL     1      44.759   4.899  12.019  0.00  0.00    +0.000 A 
ATOM     16  C   UNL     1      45.073   3.878  12.908  0.00  0.00    +0.000 A 
ATOM     17  N   UNL     1      46.213   3.823  13.635  0.00  0.00    +0.000 NA
ATOM     18  C   UNL     1      47.100   4.828  13.461  0.00  0.00    +0.000 A 
ATOM     19  C   UNL     1      46.907   5.889  12.590  0.00  0.00    +0.000 A 
ATOM     20  C   UNL     1      45.716   5.910  11.854  0.00  0.00    +0.000 A 
BRANCH  19  21
ATOM     21  C   UNL     1      47.943   6.959  12.444  0.00  0.00    +0.000 C 
ATOM     22  F   UNL     1      49.175   6.591  12.895  0.00  0.00    +0.000 F 
ATOM     23  F   UNL     1      48.121   7.344  11.151  0.00  0.00    +0.000 F 
ATOM     24  F   UNL     1      47.623   8.092  13.130  0.00  0.00    +0.000 F 
ENDBRANCH  19  21
ENDBRANCH  14  15
ENDBRANCH   1  14
TORSDOF 5
ENDMDL
MODEL 2
REMARK VINA RESULT:    -7.760      3.946      6.538
REMARK INTER + INTRA:         -10.791
REMARK INTER:                 -10.316
REMARK INTRA:                  -0.475
REMARK UNBOUND:                -0.763
REMARK  Name = 
REMARK  5 active torsions:
REMARK  status: ('A' for Active; 'I' for Inactive)
REMARK    1  A    between atoms: C_2  and  C_4
REMARK    2  A    between atoms: C_7  and  N_8
REMARK    3  A    between atoms: N_8  and  C_9
REMARK    4  A    between atoms: C_9  and  C_10
REMARK    5  A    between atoms: C_14  and  C_15
REMARK                            x       y       z     vdW  Elec       q    Type
REMARK                         _______ _______ _______ _____ _____    ______ ____
ROOT
ATOM      1  N   UNL     1      44.577   2.868  12.129  0.00  0.00    +0.000 N 
ATOM      2  H   UNL     1      44.096   2.446  12.924  0.00  0.00    +0.000 HD
ENDROOT
BRANCH   1   6
ATOM      3  C   UNL     1      46.512   6.453  13.226  0.00  0.00    +0.000 A 
ATOM      4  C   UNL     1      45.167   6.494  12.849  0.00  0.00    +0.000 A 
ATOM      5  C   UNL     1      44.498   5.312  12.502  0.00  0.00    +0.000 A 
ATOM      6  C   UNL     1      45.168   4.082  12.502  0.00  0.00    +0.000 A 
ATOM      7  C   UNL     1      46.489   4.047  12.960  0.00  0.00    +0.000 A 
ATOM      8  C   UNL     1      47.168   5.221  13.293  0.00  0.00    +0.000 A 
BRANCH   3  10
ATOM      9  N   UNL     1      46.617   8.778  13.961  0.00  0.00    +0.000 N 
ATOM     10  C   UNL     1      47.297   7.684  13.508  0.00  0.00    +0.000 C 
ATOM     11  O   UNL     1      48.512   7.717  13.363  0.00  0.00    +0.000 OA
ATOM     12  H   UNL     1      47.184   9.571  14.234  0.00  0.00    +0.000 HD
ATOM     13  H   UNL     1      45.679   8.721  14.331  0.00  0.00    +0.000 HD
ENDBRANCH   3  10
ENDBRANCH   1   6
BRANCH   1  14
ATOM     14  C   UNL     1      43.763   2.847  10.919  0.00  0.00    +0.000 C 
BRANCH  14  15
ATOM     15  C   UNL     1      44.614   3.055   9.692  0.00  0.00    +0.000 A 
ATOM     16  C   UNL     1      44.772   4.334   9.172  0.00  0.00    +0.000 A 
ATOM     17  N   UNL     1      45.562   4.637   8.117  0.00  0.00    +0.000 NA
ATOM     18  C   UNL     1      46.247   3.617   7.552  0.00  0.00    +0.000 A 
ATOM     19  C   UNL     1      46.184   2.304   7.993  0.00  0.00    +0.000 A 
ATOM     20  C   UNL     1      45.357   2.031   9.089  0.00  0.00    +0.000 A 
BRANCH  19  21
ATOM     21  C   UNL     1      46.983   1.232   7.321  0.00  0.00    +0.000 C 
ATOM     22  F   UNL     1      46.842   0.005   7.897  0.00  0.00    +0.000 F 
ATOM     23  F   UNL     1      46.645   1.068   6.013  0.00  0.00    +0.000 F 
ATOM     24  F   UNL     1      48.319   1.492   7.332  0.00  0.00    +0.000 F 
ENDBRANCH  19  21
ENDBRANCH  14  15
ENDBRANCH   1  14
TORSDOF 5
ENDMDL
MODEL 3
REMARK VINA RESULT:    -7.365      3.688      6.391
REMARK INTER + INTRA:         -10.281
REMARK INTER:                  -9.659
REMARK INTRA:                  -0.623
REMARK UNBOUND:                -0.763
REMARK  Name = 
REMARK  5 active torsions:
REMARK  status: ('A' for Active; 'I' for Inactive)
REMARK    1  A    between atoms: C_2  and  C_4
REMARK    2  A    between atoms: C_7  and  N_8
REMARK    3  A    between atoms: N_8  and  C_9
REMARK    4  A    between atoms: C_9  and  C_10
REMARK    5  A    between atoms: C_14  and  C_15
REMARK                            x       y       z     vdW  Elec       q    Type
REMARK                         _______ _______ _______ _____ _____    ______ ____
ROOT
ATOM      1  N   UNL     1      44.889   5.639   9.954  0.00  0.00    +0.000 N 
ATOM      2  H   UNL     1      45.562   5.920   9.240  0.00  0.00    +0.000 HD
ENDROOT
BRANCH   1   6
ATOM      3  C   UNL     1      46.696   5.172  13.738  0.00  0.00    +0.000 A 
ATOM      4  C   UNL     1      47.217   6.114  12.846  0.00  0.00    +0.000 A 
ATOM      5  C   UNL     1      46.619   6.302  11.592  0.00  0.00    +0.000 A 
ATOM      6  C   UNL     1      45.513   5.537  11.203  0.00  0.00    +0.000 A 
ATOM      7  C   UNL     1      44.954   4.657  12.136  0.00  0.00    +0.000 A 
ATOM      8  C   UNL     1      45.552   4.453  13.382  0.00  0.00    +0.000 A 
BRANCH   3  10
ATOM      9  N   UNL     1      46.842   3.822  15.765  0.00  0.00    +0.000 N 
ATOM     10  C   UNL     1      47.346   4.861  15.038  0.00  0.00    +0.000 C 
ATOM     11  O   UNL     1      48.314   5.495  15.439  0.00  0.00    +0.000 OA
ATOM     12  H   UNL     1      47.359   3.572  16.599  0.00  0.00    +0.000 HD
ATOM     13  H   UNL     1      46.226   3.127  15.367  0.00  0.00    +0.000 HD
ENDBRANCH   3  10
ENDBRANCH   1   6
BRANCH   1  14
ATOM     14  C   UNL     1      44.053   4.528   9.514  0.00  0.00    +0.000 C 
BRANCH  14  15
ATOM     15  C   UNL     1      44.892   3.419   8.933  0.00  0.00    +0.000 A 
ATOM     16  C   UNL     1      44.685   2.108   9.350  0.00  0.00    +0.000 A 
ATOM     17  N   UNL     1      45.338   1.036   8.846  0.00  0.00    +0.000 NA
ATOM     18  C   UNL     1      46.238   1.270   7.865  0.00  0.00    +0.000 A 
ATOM     19  C   UNL     1      46.516   2.529   7.355  0.00  0.00    +0.000 A 
ATOM     20  C   UNL     1      45.818   3.614   7.899  0.00  0.00    +0.000 A 
BRANCH  19  21
ATOM     21  C   UNL     1      47.518   2.707   6.258  0.00  0.00    +0.000 C 
ATOM     22  F   UNL     1      47.137   3.609   5.311  0.00  0.00    +0.000 F 
ATOM     23  F   UNL     1      48.725   3.138   6.715  0.00  0.00    +0.000 F 
ATOM     24  F   UNL     1      47.766   1.549   5.585  0.00  0.00    +0.000 F 
ENDBRANCH  19  21
ENDBRANCH  14  15
ENDBRANCH   1  14
TORSDOF 5
ENDMDL
MODEL 4
REMARK VINA RESULT:    -7.305      3.697      5.958
REMARK INTER + INTRA:         -10.204
REMARK INTER:                  -9.371
REMARK INTRA:                  -0.833
REMARK UNBOUND:                -0.763
REMARK  Name = 
REMARK  5 active torsions:
REMARK  status: ('A' for Active; 'I' for Inactive)
REMARK    1  A    between atoms: C_2  and  C_4
REMARK    2  A    between atoms: C_7  and  N_8
REMARK    3  A    between atoms: N_8  and  C_9
REMARK    4  A    between atoms: C_9  and  C_10
REMARK    5  A    between atoms: C_14  and  C_15
REMARK                            x       y       z     vdW  Elec       q    Type
REMARK                         _______ _______ _______ _____ _____    ______ ____
ROOT
ATOM      1  N   UNL     1      43.648   5.899  12.607  0.00  0.00    +0.000 N 
ATOM      2  H   UNL     1      43.096   6.596  13.109  0.00  0.00    +0.000 HD
ENDROOT
BRANCH   1   6
ATOM      3  C   UNL     1      47.726   6.487  13.516  0.00  0.00    +0.000 A 
ATOM      4  C   UNL     1      47.122   5.272  13.852  0.00  0.00    +0.000 A 
ATOM      5  C   UNL     1      45.774   5.047  13.538  0.00  0.00    +0.000 A 
ATOM      6  C   UNL     1      45.007   6.037  12.913  0.00  0.00    +0.000 A 
ATOM      7  C   UNL     1      45.646   7.215  12.511  0.00  0.00    +0.000 A 
ATOM      8  C   UNL     1      46.984   7.454  12.831  0.00  0.00    +0.000 A 
BRANCH   3  10
ATOM      9  N   UNL     1      49.934   7.362  12.958  0.00  0.00    +0.000 N 
ATOM     10  C   UNL     1      49.120   6.819  13.910  0.00  0.00    +0.000 C 
ATOM     11  O   UNL     1      49.525   6.635  15.051  0.00  0.00    +0.000 OA
ATOM     12  H   UNL     1      50.847   7.664  13.275  0.00  0.00    +0.000 HD
ATOM     13  H   UNL     1      49.580   7.758  12.099  0.00  0.00    +0.000 HD
ENDBRANCH   3  10
ENDBRANCH   1   6
BRANCH   1  14
ATOM     14  C   UNL     1      43.269   5.808  11.201  0.00  0.00    +0.000 C 
BRANCH  14  15
ATOM     15  C   UNL     1      43.853   4.572  10.565  0.00  0.00    +0.000 A 
ATOM     16  C   UNL     1      43.434   3.316  10.988  0.00  0.00    +0.000 A 
ATOM     17  N   UNL     1      43.845   2.149  10.441  0.00  0.00    +0.000 NA
ATOM     18  C   UNL     1      44.711   2.230   9.406  0.00  0.00    +0.000 A 
ATOM     19  C   UNL     1      45.186   3.424   8.885  0.00  0.00    +0.000 A 
ATOM     20  C   UNL     1      44.735   4.610   9.476  0.00  0.00    +0.000 A 
BRANCH  19  21
ATOM     21  C   UNL     1      46.135   3.431   7.728  0.00  0.00    +0.000 C 
ATOM     22  F   UNL     1      46.895   4.559   7.653  0.00  0.00    +0.000 F 
ATOM     23  F   UNL     1      47.015   2.393   7.765  0.00  0.00    +0.000 F 
ATOM     24  F   UNL     1      45.497   3.336   6.529  0.00  0.00    +0.000 F 
ENDBRANCH  19  21
ENDBRANCH  14  15
ENDBRANCH   1  14
TORSDOF 5
ENDMDL
MODEL 5
REMARK VINA RESULT:    -7.020      1.610      2.468
REMARK INTER + INTRA:          -9.835
REMARK INTER:                  -9.101
REMARK INTRA:                  -0.734
REMARK UNBOUND:                -0.763
REMARK  Name = 
REMARK  5 active torsions:
REMARK  status: ('A' for Active; 'I' for Inactive)
REMARK    1  A    between atoms: C_2  and  C_4
REMARK    2  A    between atoms: C_7  and  N_8
REMARK    3  A    between atoms: N_8  and  C_9
REMARK    4  A    between atoms: C_9  and  C_10
REMARK    5  A    between atoms: C_14  and  C_15
REMARK                            x       y       z     vdW  Elec       q    Type
REMARK                         _______ _______ _______ _____ _____    ______ ____
ROOT
ATOM      1  N   UNL     1      43.873   5.088  10.241  0.00  0.00    +0.000 N 
ATOM      2  H   UNL     1      42.886   4.840  10.168  0.00  0.00    +0.000 HD
ENDROOT
BRANCH   1   6
ATOM      3  C   UNL     1      46.119   2.315   7.989  0.00  0.00    +0.000 A 
ATOM      4  C   UNL     1      46.322   3.683   7.783  0.00  0.00    +0.000 A 
ATOM      5  C   UNL     1      45.602   4.622   8.536  0.00  0.00    +0.000 A 
ATOM      6  C   UNL     1      44.657   4.210   9.482  0.00  0.00    +0.000 A 
ATOM      7  C   UNL     1      44.524   2.841   9.734  0.00  0.00    +0.000 A 
ATOM      8  C   UNL     1      45.226   1.898   8.979  0.00  0.00    +0.000 A 
BRANCH   3  10
ATOM      9  N   UNL     1      46.722  -0.015   7.589  0.00  0.00    +0.000 N 
ATOM     10  C   UNL     1      46.779   1.278   7.154  0.00  0.00    +0.000 C 
ATOM     11  O   UNL     1      47.337   1.561   6.102  0.00  0.00    +0.000 OA
ATOM     12  H   UNL     1      47.096  -0.712   6.958  0.00  0.00    +0.000 HD
ATOM     13  H   UNL     1      46.071  -0.323   8.298  0.00  0.00    +0.000 HD
ENDBRANCH   3  10
ENDBRANCH   1   6
BRANCH   1  14
ATOM     14  C   UNL     1      44.274   5.345  11.619  0.00  0.00    +0.000 C 
BRANCH  14  15
ATOM     15  C   UNL     1      45.193   6.538  11.700  0.00  0.00    +0.000 A 
ATOM     16  C   UNL     1      44.656   7.820  11.733  0.00  0.00    +0.000 A 
ATOM     17  N   UNL     1      45.387   8.950  11.868  0.00  0.00    +0.000 NA
ATOM     18  C   UNL     1      46.725   8.804  11.993  0.00  0.00    +0.000 A 
ATOM     19  C   UNL     1      47.373   7.578  11.992  0.00  0.00    +0.000 A 
ATOM     20  C   UNL     1      46.582   6.431  11.852  0.00  0.00    +0.000 A 
BRANCH  19  21
ATOM     21  C   UNL     1      48.859   7.497  12.147  0.00  0.00    +0.000 C 
ATOM     22  F   UNL     1      49.396   8.553  12.819  0.00  0.00    +0.000 F 
ATOM     23  F   UNL     1      49.257   6.385  12.824  0.00  0.00    +0.000 F 
ATOM     24  F   UNL     1      49.506   7.455  10.949  0.00  0.00    +0.000 F 
ENDBRANCH  19  21
ENDBRANCH  14  15
ENDBRANCH   1  14
TORSDOF 5
ENDMDL
MODEL 6
REMARK VINA RESULT:    -6.976      2.506      3.060
REMARK INTER + INTRA:          -9.777
REMARK INTER:                  -9.199
REMARK INTRA:                  -0.579
REMARK UNBOUND:                -0.763
REMARK  Name = 
REMARK  5 active torsions:
REMARK  status: ('A' for Active; 'I' for Inactive)
REMARK    1  A    between atoms: C_2  and  C_4
REMARK    2  A    between atoms: C_7  and  N_8
REMARK    3  A    between atoms: N_8  and  C_9
REMARK    4  A    between atoms: C_9  and  C_10
REMARK    5  A    between atoms: C_14  and  C_15
REMARK                            x       y       z     vdW  Elec       q    Type
REMARK                         _______ _______ _______ _____ _____    ______ ____
ROOT
ATOM      1  N   UNL     1      43.777   4.901  10.211  0.00  0.00    +0.000 N 
ATOM      2  H   UNL     1      42.795   4.745   9.985  0.00  0.00    +0.000 HD
ENDROOT
BRANCH   1   6
ATOM      3  C   UNL     1      46.129   2.164   8.025  0.00  0.00    +0.000 A 
ATOM      4  C   UNL     1      46.272   3.533   7.779  0.00  0.00    +0.000 A 
ATOM      5  C   UNL     1      45.516   4.461   8.509  0.00  0.00    +0.000 A 
ATOM      6  C   UNL     1      44.594   4.036   9.473  0.00  0.00    +0.000 A 
ATOM      7  C   UNL     1      44.522   2.670   9.764  0.00  0.00    +0.000 A 
ATOM      8  C   UNL     1      45.260   1.737   9.032  0.00  0.00    +0.000 A 
BRANCH   3  10
ATOM      9  N   UNL     1      46.855  -0.143   7.702  0.00  0.00    +0.000 N 
ATOM     10  C   UNL     1      46.829   1.133   7.215  0.00  0.00    +0.000 C 
ATOM     11  O   UNL     1      47.347   1.404   6.140  0.00  0.00    +0.000 OA
ATOM     12  H   UNL     1      47.255  -0.842   7.089  0.00  0.00    +0.000 HD
ATOM     13  H   UNL     1      46.239  -0.458   8.437  0.00  0.00    +0.000 HD
ENDBRANCH   3  10
ENDBRANCH   1   6
BRANCH   1  14
ATOM     14  C   UNL     1      44.002   4.992  11.650  0.00  0.00    +0.000 C 
BRANCH  14  15
ATOM     15  C   UNL     1      44.649   6.304  12.013  0.00  0.00    +0.000 A 
ATOM     16  C   UNL     1      45.757   6.316  12.852  0.00  0.00    +0.000 A 
ATOM     17  N   UNL     1      46.449   7.429  13.188  0.00  0.00    +0.000 NA
ATOM     18  C   UNL     1      46.029   8.597  12.650  0.00  0.00    +0.000 A 
ATOM     19  C   UNL     1      44.949   8.708  11.787  0.00  0.00    +0.000 A 
ATOM     20  C   UNL     1      44.261   7.533  11.462  0.00  0.00    +0.000 A 
BRANCH  19  21
ATOM     21  C   UNL     1      44.553  10.036  11.224  0.00  0.00    +0.000 C 
ATOM     22  F   UNL     1      45.600  10.889  11.047  0.00  0.00    +0.000 F 
ATOM     23  F   UNL     1      43.951   9.932  10.008  0.00  0.00    +0.000 F 
ATOM     24  F   UNL     1      43.669  10.698  12.022  0.00  0.00    +0.000 F 
ENDBRANCH  19  21
ENDBRANCH  14  15
ENDBRANCH   1  14
TORSDOF 5
ENDMDL
MODEL 7
REMARK VINA RESULT:    -6.496      3.936      6.674
REMARK INTER + INTRA:          -9.158
REMARK INTER:                  -8.741
REMARK INTRA:                  -0.417
REMARK UNBOUND:                -0.763
REMARK  Name = 
REMARK  5 active torsions:
REMARK  status: ('A' for Active; 'I' for Inactive)
REMARK    1  A    between atoms: C_2  and  C_4
REMARK    2  A    between atoms: C_7  and  N_8
REMARK    3  A    between atoms: N_8  and  C_9
REMARK    4  A    between atoms: C_9  and  C_10
REMARK    5  A    between atoms: C_14  and  C_15
REMARK                            x       y       z     vdW  Elec       q    Type
REMARK                         _______ _______ _______ _____ _____    ______ ____
ROOT
ATOM      1  N   UNL     1      47.513   6.757  12.247  0.00  0.00    +0.000 N 
ATOM      2  H   UNL     1      48.043   6.296  11.507  0.00  0.00    +0.000 HD
ENDROOT
BRANCH   1   6
ATOM      3  C   UNL     1      47.508   4.526  15.828  0.00  0.00    +0.000 A 
ATOM      4  C   UNL     1      46.888   3.994  14.693  0.00  0.00    +0.000 A 
ATOM      5  C   UNL     1      46.897   4.708  13.487  0.00  0.00    +0.000 A 
ATOM      6  C   UNL     1      47.500   5.969  13.404  0.00  0.00    +0.000 A 
ATOM      7  C   UNL     1      48.185   6.451  14.524  0.00  0.00    +0.000 A 
ATOM      8  C   UNL     1      48.169   5.753  15.734  0.00  0.00    +0.000 A 
BRANCH   3  10
ATOM      9  N   UNL     1      48.354   4.244  18.099  0.00  0.00    +0.000 N 
ATOM     10  C   UNL     1      47.445   3.860  17.155  0.00  0.00    +0.000 C 
ATOM     11  O   UNL     1      46.598   3.013  17.408  0.00  0.00    +0.000 OA
ATOM     12  H   UNL     1      48.230   3.845  19.021  0.00  0.00    +0.000 HD
ATOM     13  H   UNL     1      48.891   5.096  18.024  0.00  0.00    +0.000 HD
ENDBRANCH   3  10
ENDBRANCH   1   6
BRANCH   1  14
ATOM     14  C   UNL     1      46.241   7.284  11.765  0.00  0.00    +0.000 C 
BRANCH  14  15
ATOM     15  C   UNL     1      45.437   6.210  11.077  0.00  0.00    +0.000 A 
ATOM     16  C   UNL     1      44.112   6.002  11.441  0.00  0.00    +0.000 A 
ATOM     17  N   UNL     1      43.287   5.110  10.845  0.00  0.00    +0.000 NA
ATOM     18  C   UNL     1      43.799   4.392   9.820  0.00  0.00    +0.000 A 
ATOM     19  C   UNL     1      45.099   4.524   9.356  0.00  0.00    +0.000 A 
ATOM     20  C   UNL     1      45.921   5.459   9.997  0.00  0.00    +0.000 A 
BRANCH  19  21
ATOM     21  C   UNL     1      45.589   3.700   8.207  0.00  0.00    +0.000 C 
ATOM     22  F   UNL     1      44.642   3.473   7.255  0.00  0.00    +0.000 F 
ATOM     23  F   UNL     1      46.636   4.277   7.557  0.00  0.00    +0.000 F 
ATOM     24  F   UNL     1      46.024   2.469   8.596  0.00  0.00    +0.000 F 
ENDBRANCH  19  21
ENDBRANCH  14  15
ENDBRANCH   1  14
TORSDOF 5
ENDMDL
MODEL 8
REMARK VINA RESULT:    -6.373      4.077      6.461
REMARK INTER + INTRA:          -8.999
REMARK INTER:                  -8.324
REMARK INTRA:                  -0.675
REMARK UNBOUND:                -0.763
REMARK  Name = 
REMARK  5 active torsions:
REMARK  status: ('A' for Active; 'I' for Inactive)
REMARK    1  A    between atoms: C_2  and  C_4
REMARK    2  A    between atoms: C_7  and  N_8
REMARK    3  A    between atoms: N_8  and  C_9
REMARK    4  A    between atoms: C_9  and  C_10
REMARK    5  A    between atoms: C_14  and  C_15
REMARK                            x       y       z     vdW  Elec       q    Type
REMARK                         _______ _______ _______ _____ _____    ______ ____
ROOT
ATOM      1  N   UNL     1      45.550   6.190  13.238  0.00  0.00    +0.000 N 
ATOM      2  H   UNL     1      45.425   6.298  14.245  0.00  0.00    +0.000 HD
ENDROOT
BRANCH   1   6
ATOM      3  C   UNL     1      48.185   9.182  11.859  0.00  0.00    +0.000 A 
ATOM      4  C   UNL     1      48.585   7.843  11.800  0.00  0.00    +0.000 A 
ATOM      5  C   UNL     1      47.716   6.831  12.233  0.00  0.00    +0.000 A 
ATOM      6  C   UNL     1      46.453   7.142  12.750  0.00  0.00    +0.000 A 
ATOM      7  C   UNL     1      46.037   8.477  12.727  0.00  0.00    +0.000 A 
ATOM      8  C   UNL     1      46.901   9.494  12.312  0.00  0.00    +0.000 A 
BRANCH   3  10
ATOM      9  N   UNL     1      50.262  10.412  12.214  0.00  0.00    +0.000 N 
ATOM     10  C   UNL     1      49.099  10.301  11.508  0.00  0.00    +0.000 C 
ATOM     11  O   UNL     1      48.835  11.086  10.606  0.00  0.00    +0.000 OA
ATOM     12  H   UNL     1      50.908  11.123  11.894  0.00  0.00    +0.000 HD
ATOM     13  H   UNL     1      50.632   9.659  12.777  0.00  0.00    +0.000 HD
ENDBRANCH   3  10
ENDBRANCH   1   6
BRANCH   1  14
ATOM     14  C   UNL     1      44.279   6.033  12.540  0.00  0.00    +0.000 C 
BRANCH  14  15
ATOM     15  C   UNL     1      44.304   4.827  11.636  0.00  0.00    +0.000 A 
ATOM     16  C   UNL     1      43.530   3.715  11.949  0.00  0.00    +0.000 A 
ATOM     17  N   UNL     1      43.433   2.611  11.174  0.00  0.00    +0.000 NA
ATOM     18  C   UNL     1      44.130   2.611  10.016  0.00  0.00    +0.000 A 
ATOM     19  C   UNL     1      44.921   3.667   9.588  0.00  0.00    +0.000 A 
ATOM     20  C   UNL     1      44.995   4.794  10.417  0.00  0.00    +0.000 A 
BRANCH  19  21
ATOM     21  C   UNL     1      45.654   3.597   8.286  0.00  0.00    +0.000 C 
ATOM     22  F   UNL     1      46.491   4.650   8.074  0.00  0.00    +0.000 F 
ATOM     23  F   UNL     1      46.426   2.482   8.178  0.00  0.00    +0.000 F 
ATOM     24  F   UNL     1      44.813   3.574   7.215  0.00  0.00    +0.000 F 
ENDBRANCH  19  21
ENDBRANCH  14  15
ENDBRANCH   1  14
TORSDOF 5
ENDMDL
MODEL 9
REMARK VINA RESULT:    -6.265      3.953      6.663
REMARK INTER + INTRA:          -8.859
REMARK INTER:                  -8.446
REMARK INTRA:                  -0.414
REMARK UNBOUND:                -0.763
REMARK  Name = 
REMARK  5 active torsions:
REMARK  status: ('A' for Active; 'I' for Inactive)
REMARK    1  A    between atoms: C_2  and  C_4
REMARK    2  A    between atoms: C_7  and  N_8
REMARK    3  A    between atoms: N_8  and  C_9
REMARK    4  A    between atoms: C_9  and  C_10
REMARK    5  A    between atoms: C_14  and  C_15
REMARK                            x       y       z     vdW  Elec       q    Type
REMARK                         _______ _______ _______ _____ _____    ______ ____
ROOT
ATOM      1  N   UNL     1      46.311   6.378  11.296  0.00  0.00    +0.000 N 
ATOM      2  H   UNL     1      46.984   6.081  10.588  0.00  0.00    +0.000 HD
ENDROOT
BRANCH   1   6
ATOM      3  C   UNL     1      47.701   5.350  15.145  0.00  0.00    +0.000 A 
ATOM      4  C   UNL     1      48.220   6.485  14.514  0.00  0.00    +0.000 A 
ATOM      5  C   UNL     1      47.756   6.857  13.245  0.00  0.00    +0.000 A 
ATOM      6  C   UNL     1      46.792   6.091  12.580  0.00  0.00    +0.000 A 
ATOM      7  C   UNL     1      46.225   5.006  13.256  0.00  0.00    +0.000 A 
ATOM      8  C   UNL     1      46.691   4.619  14.515  0.00  0.00    +0.000 A 
BRANCH   3  10
ATOM      9  N   UNL     1      47.853   3.598  16.837  0.00  0.00    +0.000 N 
ATOM     10  C   UNL     1      48.225   4.852  16.444  0.00  0.00    +0.000 C 
ATOM     11  O   UNL     1      48.980   5.527  17.132  0.00  0.00    +0.000 OA
ATOM     12  H   UNL     1      48.296   3.248  17.677  0.00  0.00    +0.000 HD
ATOM     13  H   UNL     1      47.451   2.925  16.200  0.00  0.00    +0.000 HD
ENDBRANCH   3  10
ENDBRANCH   1   6
BRANCH   1  14
ATOM     14  C   UNL     1      44.951   5.967  10.968  0.00  0.00    +0.000 C 
BRANCH  14  15
ATOM     15  C   UNL     1      44.947   4.642  10.249  0.00  0.00    +0.000 A 
ATOM     16  C   UNL     1      44.054   3.650  10.638  0.00  0.00    +0.000 A 
ATOM     17  N   UNL     1      43.925   2.453  10.020  0.00  0.00    +0.000 NA
ATOM     18  C   UNL     1      44.715   2.230   8.946  0.00  0.00    +0.000 A 
ATOM     19  C   UNL     1      45.629   3.149   8.453  0.00  0.00    +0.000 A 
ATOM     20  C   UNL     1      45.732   4.377   9.118  0.00  0.00    +0.000 A 
BRANCH  19  21
ATOM     21  C   UNL     1      46.461   2.832   7.251  0.00  0.00    +0.000 C 
ATOM     22  F   UNL     1      46.894   1.541   7.211  0.00  0.00    +0.000 F 
ATOM     23  F   UNL     1      45.793   3.034   6.082  0.00  0.00    +0.000 F 
ATOM     24  F   UNL     1      47.584   3.599   7.176  0.00  0.00    +0.000 F 
ENDBRANCH  19  21
ENDBRANCH  14  15
ENDBRANCH   1  14
TORSDOF 5
ENDMDL
