MODEL 1
REMARK VINA RESULT:    -9.841      0.000      0.000
REMARK INTER + INTRA:         -12.962
REMARK INTER:                 -12.429
REMARK INTRA:                  -0.533
REMARK UNBOUND:                -0.533
REMARK  Name = 
REMARK  5 active torsions:
REMARK  status: ('A' for Active; 'I' for Inactive)
REMARK    1  A    between atoms: C_2  and  C_4
REMARK    2  A    between atoms: N_8  and  C_9
REMARK    3  A    between atoms: C_9  and  C_10
REMARK    4  A    between atoms: C_14  and  C_15
REMARK    5  A    between atoms: C_19  and  O_20
REMARK                            x       y       z     vdW  Elec       q    Type
REMARK                         _______ _______ _______ _____ _____    ______ ____
ROOT
ATOM      1  C   UNL     1      43.883   4.897  11.487  0.00  0.00    +0.000 C 
ATOM      2  C   UNL     1      42.756   4.953  12.510  0.00  0.00    +0.000 C 
ATOM      3  C   UNL     1      42.785   5.937  11.389  0.00  0.00    +0.000 C 
ENDROOT
BRANCH   1   8
ATOM      4  C   UNL     1      46.489   2.761   7.532  0.00  0.00    +0.000 A 
ATOM      5  C   UNL     1      46.046   4.078   7.660  0.00  0.00    +0.000 A 
ATOM      6  C   UNL     1      45.208   4.414   8.720  0.00  0.00    +0.000 A 
ATOM      7  C   UNL     1      44.815   3.437   9.629  0.00  0.00    +0.000 A 
ATOM      8  N   UNL     1      43.901   3.672  10.662  0.00  0.00    +0.000 N 
ATOM      9  N   UNL     1      45.229   2.157   9.510  0.00  0.00    +0.000 NA
ATOM     10  C   UNL     1      46.047   1.844   8.470  0.00  0.00    +0.000 A 
ATOM     11  H   UNL     1      43.882   2.800  11.190  0.00  0.00    +0.000 HD
BRANCH   4  13
ATOM     12  N   UNL     1      47.243   2.944   5.225  0.00  0.00    +0.000 N 
ATOM     13  C   UNL     1      47.360   2.304   6.427  0.00  0.00    +0.000 C 
ATOM     14  O   UNL     1      48.175   1.407   6.592  0.00  0.00    +0.000 OA
ATOM     15  H   UNL     1      47.912   2.681   4.512  0.00  0.00    +0.000 HD
ATOM     16  H   UNL     1      46.766   3.827   5.119  0.00  0.00    +0.000 HD
ENDBRANCH   4  13
ENDBRANCH   1   8
BRANCH   1  17
ATOM     17  C   UNL     1      45.278   5.351  11.912  0.00  0.00    +0.000 A 
ATOM     18  C   UNL     1      45.998   6.318  11.192  0.00  0.00    +0.000 A 
ATOM     19  C   UNL     1      47.222   6.799  11.653  0.00  0.00    +0.000 A 
ATOM     20  C   UNL     1      47.739   6.346  12.868  0.00  0.00    +0.000 A 
ATOM     21  C   UNL     1      47.047   5.402  13.643  0.00  0.00    +0.000 A 
ATOM     22  C   UNL     1      45.843   4.894  13.118  0.00  0.00    +0.000 A 
BRANCH  21  23
ATOM     23  C   UNL     1      47.480   5.046  15.015  0.00  0.00    +0.000 A 
ATOM     24  C   UNL     1      48.415   5.845  15.702  0.00  0.00    +0.000 A 
ATOM     25  C   UNL     1      48.744   5.602  17.039  0.00  0.00    +0.000 A 
ATOM     26  C   UNL     1      48.135   4.560  17.730  0.00  0.00    +0.000 A 
ATOM     27  C   UNL     1      47.217   3.756  17.064  0.00  0.00    +0.000 A 
ATOM     28  C   UNL     1      46.908   3.974  15.722  0.00  0.00    +0.000 A 
BRANCH  27  29
ATOM     29  O   UNL     1      46.565   2.747  17.711  0.00  0.00    +0.000 OA
ATOM     30  H   UNL     1      47.205   2.039  17.896  0.00  0.00    +0.000 HD
ENDBRANCH  27  29
ENDBRANCH  21  23
ENDBRANCH   1  17
TORSDOF 5
ENDMDL
MODEL 2
REMARK VINA RESULT:    -9.604      2.557      3.764
REMARK INTER + INTRA:         -12.663
REMARK INTER:                 -11.415
REMARK INTRA:                  -1.248
REMARK UNBOUND:                -0.533
REMARK  Name = 
REMARK  5 active torsions:
REMARK  status: ('A' for Active; 'I' for Inactive)
REMARK    1  A    between atoms: C_2  and  C_4
REMARK    2  A    between atoms: N_8  and  C_9
REMARK    3  A    between atoms: C_9  and  C_10
REMARK    4  A    between atoms: C_14  and  C_15
REMARK    5  A    between atoms: C_19  and  O_20
REMARK                            x       y       z     vdW  Elec       q    Type
REMARK                         _______ _______ _______ _____ _____    ______ ____
ROOT
ATOM      1  C   UNL     1      43.816   4.871  11.363  0.00  0.00    +0.000 C 
ATOM      2  C   UNL     1      42.478   5.156  12.033  0.00  0.00    +0.000 C 
ATOM      3  C   UNL     1      43.026   6.123  11.039  0.00  0.00    +0.000 C 
ENDROOT
BRANCH   1   8
ATOM      4  C   UNL     1      46.552   2.749   7.490  0.00  0.00    +0.000 A 
ATOM      5  C   UNL     1      46.172   4.083   7.646  0.00  0.00    +0.000 A 
ATOM      6  C   UNL     1      45.287   4.423   8.666  0.00  0.00    +0.000 A 
ATOM      7  C   UNL     1      44.786   3.435   9.507  0.00  0.00    +0.000 A 
ATOM      8  N   UNL     1      43.822   3.680  10.490  0.00  0.00    +0.000 N 
ATOM      9  N   UNL     1      45.138   2.139   9.359  0.00  0.00    +0.000 NA
ATOM     10  C   UNL     1      46.003   1.822   8.360  0.00  0.00    +0.000 A 
ATOM     11  H   UNL     1      43.723   2.791  10.979  0.00  0.00    +0.000 HD
BRANCH   4  13
ATOM     12  N   UNL     1      47.414   2.937   5.222  0.00  0.00    +0.000 N 
ATOM     13  C   UNL     1      47.466   2.287   6.423  0.00  0.00    +0.000 C 
ATOM     14  O   UNL     1      48.260   1.378   6.618  0.00  0.00    +0.000 OA
ATOM     15  H   UNL     1      48.111   2.670   4.538  0.00  0.00    +0.000 HD
ATOM     16  H   UNL     1      46.955   3.828   5.101  0.00  0.00    +0.000 HD
ENDBRANCH   4  13
ENDBRANCH   1   8
BRANCH   1  17
ATOM     17  C   UNL     1      45.091   5.012  12.191  0.00  0.00    +0.000 A 
ATOM     18  C   UNL     1      45.587   3.961  12.980  0.00  0.00    +0.000 A 
ATOM     19  C   UNL     1      46.807   4.069  13.644  0.00  0.00    +0.000 A 
ATOM     20  C   UNL     1      47.580   5.224  13.504  0.00  0.00    +0.000 A 
ATOM     21  C   UNL     1      47.147   6.293  12.704  0.00  0.00    +0.000 A 
ATOM     22  C   UNL     1      45.882   6.173  12.097  0.00  0.00    +0.000 A 
BRANCH  21  23
ATOM     23  C   UNL     1      48.026   7.444  12.393  0.00  0.00    +0.000 A 
ATOM     24  C   UNL     1      49.407   7.258  12.189  0.00  0.00    +0.000 A 
ATOM     25  C   UNL     1      50.235   8.305  11.772  0.00  0.00    +0.000 A 
ATOM     26  C   UNL     1      49.699   9.566  11.534  0.00  0.00    +0.000 A 
ATOM     27  C   UNL     1      48.339   9.770  11.738  0.00  0.00    +0.000 A 
ATOM     28  C   UNL     1      47.514   8.738  12.184  0.00  0.00    +0.000 A 
BRANCH  27  29
ATOM     29  O   UNL     1      47.761  10.978  11.479  0.00  0.00    +0.000 OA
ATOM     30  H   UNL     1      48.389  11.677  11.726  0.00  0.00    +0.000 HD
ENDBRANCH  27  29
ENDBRANCH  21  23
ENDBRANCH   1  17
TORSDOF 5
ENDMDL
MODEL 3
REMARK VINA RESULT:    -8.086      3.586      7.330
REMARK INTER + INTRA:         -10.746
REMARK INTER:                  -9.686
REMARK INTRA:                  -1.059
REMARK UNBOUND:                -0.533
REMARK  Name = 
REMARK  5 active torsions:
REMARK  status: ('A' for Active; 'I' for Inactive)
REMARK    1  A    between atoms: C_2  and  C_4
REMARK    2  A    between atoms: N_8  and  C_9
REMARK    3  A    between atoms: C_9  and  C_10
REMARK    4  A    between atoms: C_14  and  C_15
REMARK    5  A    between atoms: C_19  and  O_20
REMARK                            x       y       z     vdW  Elec       q    Type
REMARK                         _______ _______ _______ _____ _____    ______ ____
ROOT
ATOM      1  C   UNL     1      46.146   5.179  13.343  0.00  0.00    +0.000 C 
ATOM      2  C   UNL     1      46.105   4.277  14.570  0.00  0.00    +0.000 C 
ATOM      3  C   UNL     1      47.282   4.226  13.656  0.00  0.00    +0.000 C 
ENDROOT
BRANCH   1   8
ATOM      4  C   UNL     1      48.318   9.562  11.593  0.00  0.00    +0.000 A 
ATOM      5  C   UNL     1      48.912   8.309  11.749  0.00  0.00    +0.000 A 
ATOM      6  C   UNL     1      48.209   7.300  12.402  0.00  0.00    +0.000 A 
ATOM      7  C   UNL     1      46.934   7.551  12.897  0.00  0.00    +0.000 A 
ATOM      8  N   UNL     1      46.204   6.623  13.646  0.00  0.00    +0.000 N 
ATOM      9  N   UNL     1      46.353   8.763  12.760  0.00  0.00    +0.000 NA
ATOM     10  C   UNL     1      47.050   9.738  12.121  0.00  0.00    +0.000 A 
ATOM     11  H   UNL     1      45.298   7.067  13.791  0.00  0.00    +0.000 HD
BRANCH   4  13
ATOM     12  N   UNL     1      50.348  10.804  11.086  0.00  0.00    +0.000 N 
ATOM     13  C   UNL     1      48.994  10.702  10.937  0.00  0.00    +0.000 C 
ATOM     14  O   UNL     1      48.368  11.506  10.260  0.00  0.00    +0.000 OA
ATOM     15  H   UNL     1      50.803  11.535  10.553  0.00  0.00    +0.000 HD
ATOM     16  H   UNL     1      50.920  10.045  11.426  0.00  0.00    +0.000 HD
ENDBRANCH   4  13
ENDBRANCH   1   8
BRANCH   1  17
ATOM     17  C   UNL     1      45.229   4.852  12.166  0.00  0.00    +0.000 A 
ATOM     18  C   UNL     1      43.971   5.457  12.011  0.00  0.00    +0.000 A 
ATOM     19  C   UNL     1      43.193   5.229  10.877  0.00  0.00    +0.000 A 
ATOM     20  C   UNL     1      43.675   4.413   9.852  0.00  0.00    +0.000 A 
ATOM     21  C   UNL     1      44.938   3.807   9.941  0.00  0.00    +0.000 A 
ATOM     22  C   UNL     1      45.670   4.011  11.126  0.00  0.00    +0.000 A 
BRANCH  21  23
ATOM     23  C   UNL     1      45.546   3.092   8.794  0.00  0.00    +0.000 A 
ATOM     24  C   UNL     1      46.035   3.805   7.682  0.00  0.00    +0.000 A 
ATOM     25  C   UNL     1      46.724   3.166   6.646  0.00  0.00    +0.000 A 
ATOM     26  C   UNL     1      46.954   1.796   6.703  0.00  0.00    +0.000 A 
ATOM     27  C   UNL     1      46.471   1.075   7.788  0.00  0.00    +0.000 A 
ATOM     28  C   UNL     1      45.756   1.702   8.809  0.00  0.00    +0.000 A 
BRANCH  27  29
ATOM     29  O   UNL     1      46.707  -0.264   7.907  0.00  0.00    +0.000 OA
ATOM     30  H   UNL     1      46.219  -0.592   8.680  0.00  0.00    +0.000 HD
ENDBRANCH  27  29
ENDBRANCH  21  23
ENDBRANCH   1  17
TORSDOF 5
ENDMDL
MODEL 4
REMARK VINA RESULT:    -7.814      3.636      8.245
REMARK INTER + INTRA:         -10.403
REMARK INTER:                  -9.300
REMARK INTRA:                  -1.102
REMARK UNBOUND:                -0.533
REMARK  Name = 
REMARK  5 active torsions:
REMARK  status: ('A' for Active; 'I' for Inactive)
REMARK    1  A    between atoms: C_2  and  C_4
REMARK    2  A    between atoms: N_8  and  C_9
REMARK    3  A    between atoms: C_9  and  C_10
REMARK    4  A    between atoms: C_14  and  C_15
REMARK    5  A    between atoms: C_19  and  O_20
REMARK                            x       y       z     vdW  Elec       q    Type
REMARK                         _______ _______ _______ _____ _____    ______ ____
ROOT
ATOM      1  C   UNL     1      49.049   7.945  12.589  0.00  0.00    +0.000 C 
ATOM      2  C   UNL     1      49.987   8.118  11.402  0.00  0.00    +0.000 C 
ATOM      3  C   UNL     1      49.723   9.273  12.307  0.00  0.00    +0.000 C 
ENDROOT
BRANCH   1   8
ATOM      4  C   UNL     1      48.372   6.802  17.612  0.00  0.00    +0.000 A 
ATOM      5  C   UNL     1      48.500   8.061  17.025  0.00  0.00    +0.000 A 
ATOM      6  C   UNL     1      48.853   8.153  15.681  0.00  0.00    +0.000 A 
ATOM      7  C   UNL     1      49.082   6.996  14.944  0.00  0.00    +0.000 A 
ATOM      8  N   UNL     1      49.533   7.005  13.620  0.00  0.00    +0.000 N 
ATOM      9  N   UNL     1      48.971   5.771  15.504  0.00  0.00    +0.000 NA
ATOM     10  C   UNL     1      48.625   5.697  16.816  0.00  0.00    +0.000 A 
ATOM     11  H   UNL     1      49.528   6.024  13.341  0.00  0.00    +0.000 HD
BRANCH   4  13
ATOM     12  N   UNL     1      47.168   5.584  19.341  0.00  0.00    +0.000 N 
ATOM     13  C   UNL     1      48.025   6.603  19.036  0.00  0.00    +0.000 C 
ATOM     14  O   UNL     1      48.511   7.306  19.911  0.00  0.00    +0.000 OA
ATOM     15  H   UNL     1      47.018   5.405  20.326  0.00  0.00    +0.000 HD
ATOM     16  H   UNL     1      46.940   4.846  18.690  0.00  0.00    +0.000 HD
ENDBRANCH   4  13
ENDBRANCH   1   8
BRANCH   1  17
ATOM     17  C   UNL     1      47.550   7.821  12.323  0.00  0.00    +0.000 A 
ATOM     18  C   UNL     1      46.669   8.898  12.509  0.00  0.00    +0.000 A 
ATOM     19  C   UNL     1      45.323   8.800  12.161  0.00  0.00    +0.000 A 
ATOM     20  C   UNL     1      44.835   7.627  11.583  0.00  0.00    +0.000 A 
ATOM     21  C   UNL     1      45.677   6.530  11.347  0.00  0.00    +0.000 A 
ATOM     22  C   UNL     1      47.017   6.643  11.767  0.00  0.00    +0.000 A 
BRANCH  21  23
ATOM     23  C   UNL     1      45.228   5.350  10.571  0.00  0.00    +0.000 A 
ATOM     24  C   UNL     1      45.674   5.148   9.250  0.00  0.00    +0.000 A 
ATOM     25  C   UNL     1      45.366   3.982   8.542  0.00  0.00    +0.000 A 
ATOM     26  C   UNL     1      44.614   2.979   9.144  0.00  0.00    +0.000 A 
ATOM     27  C   UNL     1      44.159   3.165  10.444  0.00  0.00    +0.000 A 
ATOM     28  C   UNL     1      44.436   4.338  11.144  0.00  0.00    +0.000 A 
BRANCH  27  29
ATOM     29  O   UNL     1      43.452   2.192  11.089  0.00  0.00    +0.000 OA
ATOM     30  H   UNL     1      43.674   2.230  12.035  0.00  0.00    +0.000 HD
ENDBRANCH  27  29
ENDBRANCH  21  23
ENDBRANCH   1  17
TORSDOF 5
ENDMDL
MODEL 5
REMARK VINA RESULT:    -7.488      2.771      4.516
REMARK INTER + INTRA:          -9.991
REMARK INTER:                  -9.506
REMARK INTRA:                  -0.485
REMARK UNBOUND:                -0.533
REMARK  Name = 
REMARK  5 active torsions:
REMARK  status: ('A' for Active; 'I' for Inactive)
REMARK    1  A    between atoms: C_2  and  C_4
REMARK    2  A    between atoms: N_8  and  C_9
REMARK    3  A    between atoms: C_9  and  C_10
REMARK    4  A    between atoms: C_14  and  C_15
REMARK    5  A    between atoms: C_19  and  O_20
REMARK                            x       y       z     vdW  Elec       q    Type
REMARK                         _______ _______ _______ _____ _____    ______ ____
ROOT
ATOM      1  C   UNL     1      47.295   8.421  13.055  0.00  0.00    +0.000 C 
ATOM      2  C   UNL     1      47.426   9.750  12.324  0.00  0.00    +0.000 C 
ATOM      3  C   UNL     1      48.080   8.533  11.763  0.00  0.00    +0.000 C 
ENDROOT
BRANCH   1   8
ATOM      4  C   UNL     1      44.532   4.281  11.566  0.00  0.00    +0.000 A 
ATOM      5  C   UNL     1      45.480   4.994  10.831  0.00  0.00    +0.000 A 
ATOM      6  C   UNL     1      45.984   6.185  11.345  0.00  0.00    +0.000 A 
ATOM      7  C   UNL     1      45.535   6.655  12.575  0.00  0.00    +0.000 A 
ATOM      8  N   UNL     1      45.920   7.886  13.114  0.00  0.00    +0.000 N 
ATOM      9  N   UNL     1      44.611   5.978  13.291  0.00  0.00    +0.000 NA
ATOM     10  C   UNL     1      44.127   4.817  12.777  0.00  0.00    +0.000 A 
ATOM     11  H   UNL     1      45.492   7.906  14.039  0.00  0.00    +0.000 HD
BRANCH   4  13
ATOM     12  N   UNL     1      44.487   2.412  10.008  0.00  0.00    +0.000 N 
ATOM     13  C   UNL     1      43.921   3.020  11.093  0.00  0.00    +0.000 C 
ATOM     14  O   UNL     1      42.963   2.524  11.669  0.00  0.00    +0.000 OA
ATOM     15  H   UNL     1      44.114   1.505   9.757  0.00  0.00    +0.000 HD
ATOM     16  H   UNL     1      45.403   2.656   9.660  0.00  0.00    +0.000 HD
ENDBRANCH   4  13
ENDBRANCH   1   8
BRANCH   1  17
ATOM     17  C   UNL     1      48.068   8.226  14.359  0.00  0.00    +0.000 A 
ATOM     18  C   UNL     1      48.489   9.311  15.144  0.00  0.00    +0.000 A 
ATOM     19  C   UNL     1      49.098   9.114  16.382  0.00  0.00    +0.000 A 
ATOM     20  C   UNL     1      49.268   7.820  16.879  0.00  0.00    +0.000 A 
ATOM     21  C   UNL     1      48.839   6.701  16.150  0.00  0.00    +0.000 A 
ATOM     22  C   UNL     1      48.283   6.935  14.877  0.00  0.00    +0.000 A 
BRANCH  21  23
ATOM     23  C   UNL     1      48.839   5.339  16.733  0.00  0.00    +0.000 A 
ATOM     24  C   UNL     1      50.015   4.795  17.286  0.00  0.00    +0.000 A 
ATOM     25  C   UNL     1      50.011   3.566  17.953  0.00  0.00    +0.000 A 
ATOM     26  C   UNL     1      48.826   2.853  18.096  0.00  0.00    +0.000 A 
ATOM     27  C   UNL     1      47.658   3.370  17.549  0.00  0.00    +0.000 A 
ATOM     28  C   UNL     1      47.661   4.580  16.856  0.00  0.00    +0.000 A 
BRANCH  27  29
ATOM     29  O   UNL     1      46.464   2.726  17.699  0.00  0.00    +0.000 OA
ATOM     30  H   UNL     1      46.352   2.113  16.953  0.00  0.00    +0.000 HD
ENDBRANCH  27  29
ENDBRANCH  21  23
ENDBRANCH   1  17
TORSDOF 5
ENDMDL
MODEL 6
REMARK VINA RESULT:    -7.330      3.645      5.386
REMARK INTER + INTRA:          -9.791
REMARK INTER:                  -8.661
REMARK INTRA:                  -1.130
REMARK UNBOUND:                -0.533
REMARK  Name = 
REMARK  5 active torsions:
REMARK  status: ('A' for Active; 'I' for Inactive)
REMARK    1  A    between atoms: C_2  and  C_4
REMARK    2  A    between atoms: N_8  and  C_9
REMARK    3  A    between atoms: C_9  and  C_10
REMARK    4  A    between atoms: C_14  and  C_15
REMARK    5  A    between atoms: C_19  and  O_20
REMARK                            x       y       z     vdW  Elec       q    Type
REMARK                         _______ _______ _______ _____ _____    ______ ____
ROOT
ATOM      1  C   UNL     1      48.909   8.328  12.569  0.00  0.00    +0.000 C 
ATOM      2  C   UNL     1      49.895   9.258  11.873  0.00  0.00    +0.000 C 
ATOM      3  C   UNL     1      50.104   7.782  11.814  0.00  0.00    +0.000 C 
ENDROOT
BRANCH   1   8
ATOM      4  C   UNL     1      44.544   5.511  12.519  0.00  0.00    +0.000 A 
ATOM      5  C   UNL     1      45.860   5.064  12.386  0.00  0.00    +0.000 A 
ATOM      6  C   UNL     1      46.884   5.996  12.248  0.00  0.00    +0.000 A 
ATOM      7  C   UNL     1      46.588   7.355  12.234  0.00  0.00    +0.000 A 
ATOM      8  N   UNL     1      47.545   8.348  12.003  0.00  0.00    +0.000 N 
ATOM      9  N   UNL     1      45.317   7.799  12.352  0.00  0.00    +0.000 NA
ATOM     10  C   UNL     1      44.328   6.878  12.487  0.00  0.00    +0.000 A 
ATOM     11  H   UNL     1      47.041   9.225  12.132  0.00  0.00    +0.000 HD
BRANCH   4  13
ATOM     12  N   UNL     1      42.288   4.861  11.881  0.00  0.00    +0.000 N 
ATOM     13  C   UNL     1      43.388   4.597  12.647  0.00  0.00    +0.000 C 
ATOM     14  O   UNL     1      43.426   3.625  13.388  0.00  0.00    +0.000 OA
ATOM     15  H   UNL     1      41.545   4.174  11.911  0.00  0.00    +0.000 HD
ATOM     16  H   UNL     1      42.306   5.498  11.097  0.00  0.00    +0.000 HD
ENDBRANCH   4  13
ENDBRANCH   1   8
BRANCH   1  17
ATOM     17  C   UNL     1      48.922   8.261  14.095  0.00  0.00    +0.000 A 
ATOM     18  C   UNL     1      48.661   9.386  14.893  0.00  0.00    +0.000 A 
ATOM     19  C   UNL     1      48.571   9.285  16.280  0.00  0.00    +0.000 A 
ATOM     20  C   UNL     1      48.707   8.041  16.900  0.00  0.00    +0.000 A 
ATOM     21  C   UNL     1      48.939   6.879  16.149  0.00  0.00    +0.000 A 
ATOM     22  C   UNL     1      49.084   7.028  14.756  0.00  0.00    +0.000 A 
BRANCH  21  23
ATOM     23  C   UNL     1      48.902   5.530  16.761  0.00  0.00    +0.000 A 
ATOM     24  C   UNL     1      50.036   5.004  17.410  0.00  0.00    +0.000 A 
ATOM     25  C   UNL     1      49.989   3.791  18.103  0.00  0.00    +0.000 A 
ATOM     26  C   UNL     1      48.799   3.076  18.177  0.00  0.00    +0.000 A 
ATOM     27  C   UNL     1      47.672   3.575  17.536  0.00  0.00    +0.000 A 
ATOM     28  C   UNL     1      47.720   4.768  16.817  0.00  0.00    +0.000 A 
BRANCH  27  29
ATOM     29  O   UNL     1      46.472   2.928  17.614  0.00  0.00    +0.000 OA
ATOM     30  H   UNL     1      46.563   2.063  17.181  0.00  0.00    +0.000 HD
ENDBRANCH  27  29
ENDBRANCH  21  23
ENDBRANCH   1  17
TORSDOF 5
ENDMDL
MODEL 7
REMARK VINA RESULT:    -7.230      2.774      7.640
REMARK INTER + INTRA:          -9.665
REMARK INTER:                  -9.587
REMARK INTRA:                  -0.078
REMARK UNBOUND:                -0.533
REMARK  Name = 
REMARK  5 active torsions:
REMARK  status: ('A' for Active; 'I' for Inactive)
REMARK    1  A    between atoms: C_2  and  C_4
REMARK    2  A    between atoms: N_8  and  C_9
REMARK    3  A    between atoms: C_9  and  C_10
REMARK    4  A    between atoms: C_14  and  C_15
REMARK    5  A    between atoms: C_19  and  O_20
REMARK                            x       y       z     vdW  Elec       q    Type
REMARK                         _______ _______ _______ _____ _____    ______ ____
ROOT
ATOM      1  C   UNL     1      44.626   3.851  12.583  0.00  0.00    +0.000 C 
ATOM      2  C   UNL     1      43.513   4.569  13.336  0.00  0.00    +0.000 C 
ATOM      3  C   UNL     1      43.257   3.222  12.748  0.00  0.00    +0.000 C 
ENDROOT
BRANCH   1   8
ATOM      4  C   UNL     1      48.350   6.017  15.486  0.00  0.00    +0.000 A 
ATOM      5  C   UNL     1      47.893   6.420  14.231  0.00  0.00    +0.000 A 
ATOM      6  C   UNL     1      47.007   5.602  13.535  0.00  0.00    +0.000 A 
ATOM      7  C   UNL     1      46.595   4.395  14.090  0.00  0.00    +0.000 A 
ATOM      8  N   UNL     1      45.786   3.476  13.416  0.00  0.00    +0.000 N 
ATOM      9  N   UNL     1      47.039   3.990  15.301  0.00  0.00    +0.000 NA
ATOM     10  C   UNL     1      47.904   4.799  15.968  0.00  0.00    +0.000 A 
ATOM     11  H   UNL     1      45.601   2.745  14.103  0.00  0.00    +0.000 HD
BRANCH   4  13
ATOM     12  N   UNL     1      50.435   6.168  16.731  0.00  0.00    +0.000 N 
ATOM     13  C   UNL     1      49.310   6.805  16.289  0.00  0.00    +0.000 C 
ATOM     14  O   UNL     1      49.120   7.990  16.523  0.00  0.00    +0.000 OA
ATOM     15  H   UNL     1      51.124   6.746  17.197  0.00  0.00    +0.000 HD
ATOM     16  H   UNL     1      50.741   5.278  16.365  0.00  0.00    +0.000 HD
ENDBRANCH   4  13
ENDBRANCH   1   8
BRANCH   1  17
ATOM     17  C   UNL     1      45.024   4.369  11.202  0.00  0.00    +0.000 A 
ATOM     18  C   UNL     1      45.275   5.729  10.961  0.00  0.00    +0.000 A 
ATOM     19  C   UNL     1      45.741   6.170   9.724  0.00  0.00    +0.000 A 
ATOM     20  C   UNL     1      46.001   5.250   8.706  0.00  0.00    +0.000 A 
ATOM     21  C   UNL     1      45.796   3.876   8.903  0.00  0.00    +0.000 A 
ATOM     22  C   UNL     1      45.267   3.473  10.144  0.00  0.00    +0.000 A 
BRANCH  21  23
ATOM     23  C   UNL     1      46.236   2.868   7.909  0.00  0.00    +0.000 A 
ATOM     24  C   UNL     1      46.761   3.269   6.665  0.00  0.00    +0.000 A 
ATOM     25  C   UNL     1      47.298   2.345   5.763  0.00  0.00    +0.000 A 
ATOM     26  C   UNL     1      47.337   0.994   6.089  0.00  0.00    +0.000 A 
ATOM     27  C   UNL     1      46.815   0.579   7.308  0.00  0.00    +0.000 A 
ATOM     28  C   UNL     1      46.250   1.492   8.198  0.00  0.00    +0.000 A 
BRANCH  27  29
ATOM     29  O   UNL     1      46.867  -0.730   7.689  0.00  0.00    +0.000 OA
ATOM     30  H   UNL     1      47.129  -0.767   8.623  0.00  0.00    +0.000 HD
ENDBRANCH  27  29
ENDBRANCH  21  23
ENDBRANCH   1  17
TORSDOF 5
ENDMDL
MODEL 8
REMARK VINA RESULT:    -7.212      1.748      2.501
REMARK INTER + INTRA:          -9.641
REMARK INTER:                  -8.520
REMARK INTRA:                  -1.122
REMARK UNBOUND:                -0.533
REMARK  Name = 
REMARK  5 active torsions:
REMARK  status: ('A' for Active; 'I' for Inactive)
REMARK    1  A    between atoms: C_2  and  C_4
REMARK    2  A    between atoms: N_8  and  C_9
REMARK    3  A    between atoms: C_9  and  C_10
REMARK    4  A    between atoms: C_14  and  C_15
REMARK    5  A    between atoms: C_19  and  O_20
REMARK                            x       y       z     vdW  Elec       q    Type
REMARK                         _______ _______ _______ _____ _____    ______ ____
ROOT
ATOM      1  C   UNL     1      45.430   7.799  12.009  0.00  0.00    +0.000 C 
ATOM      2  C   UNL     1      44.721   9.015  12.590  0.00  0.00    +0.000 C 
ATOM      3  C   UNL     1      45.269   9.073  11.204  0.00  0.00    +0.000 C 
ENDROOT
BRANCH   1   8
ATOM      4  C   UNL     1      45.318   3.271   9.464  0.00  0.00    +0.000 A 
ATOM      5  C   UNL     1      45.714   4.520   8.983  0.00  0.00    +0.000 A 
ATOM      6  C   UNL     1      45.503   5.649   9.769  0.00  0.00    +0.000 A 
ATOM      7  C   UNL     1      44.897   5.524  11.014  0.00  0.00    +0.000 A 
ATOM      8  N   UNL     1      44.564   6.617  11.821  0.00  0.00    +0.000 N 
ATOM      9  N   UNL     1      44.501   4.322  11.486  0.00  0.00    +0.000 NA
ATOM     10  C   UNL     1      44.712   3.228  10.708  0.00  0.00    +0.000 A 
ATOM     11  H   UNL     1      44.213   6.202  12.683  0.00  0.00    +0.000 HD
BRANCH   4  13
ATOM     12  N   UNL     1      46.571   1.912   7.881  0.00  0.00    +0.000 N 
ATOM     13  C   UNL     1      45.477   2.019   8.692  0.00  0.00    +0.000 C 
ATOM     14  O   UNL     1      44.675   1.102   8.800  0.00  0.00    +0.000 OA
ATOM     15  H   UNL     1      46.712   1.014   7.436  0.00  0.00    +0.000 HD
ATOM     16  H   UNL     1      47.365   2.533   7.947  0.00  0.00    +0.000 HD
ENDBRANCH   4  13
ENDBRANCH   1   8
BRANCH   1  17
ATOM     17  C   UNL     1      46.819   7.444  12.534  0.00  0.00    +0.000 A 
ATOM     18  C   UNL     1      47.984   8.037  12.021  0.00  0.00    +0.000 A 
ATOM     19  C   UNL     1      49.233   7.782  12.583  0.00  0.00    +0.000 A 
ATOM     20  C   UNL     1      49.341   6.950  13.700  0.00  0.00    +0.000 A 
ATOM     21  C   UNL     1      48.206   6.355  14.272  0.00  0.00    +0.000 A 
ATOM     22  C   UNL     1      46.969   6.586  13.641  0.00  0.00    +0.000 A 
BRANCH  21  23
ATOM     23  C   UNL     1      48.271   5.622  15.558  0.00  0.00    +0.000 A 
ATOM     24  C   UNL     1      49.184   6.008  16.559  0.00  0.00    +0.000 A 
ATOM     25  C   UNL     1      49.179   5.416  17.825  0.00  0.00    +0.000 A 
ATOM     26  C   UNL     1      48.248   4.429  18.129  0.00  0.00    +0.000 A 
ATOM     27  C   UNL     1      47.344   4.029  17.152  0.00  0.00    +0.000 A 
ATOM     28  C   UNL     1      47.365   4.594  15.877  0.00  0.00    +0.000 A 
BRANCH  27  29
ATOM     29  O   UNL     1      46.387   3.093  17.416  0.00  0.00    +0.000 OA
ATOM     30  H   UNL     1      46.807   2.216  17.407  0.00  0.00    +0.000 HD
ENDBRANCH  27  29
ENDBRANCH  21  23
ENDBRANCH   1  17
TORSDOF 5
ENDMDL
