MODEL 1
REMARK VINA RESULT:    -7.931      0.000      0.000
REMARK INTER + INTRA:         -11.689
REMARK INTER:                 -10.713
REMARK INTRA:                  -0.976
REMARK UNBOUND:                -0.976
REMARK  Name = 
REMARK  7 active torsions:
REMARK  status: ('A' for Active; 'I' for Inactive)
REMARK    1  A    between atoms: C_1  and  N_2
REMARK    2  A    between atoms: N_2  and  C_3
REMARK    3  A    between atoms: C_3  and  C_4
REMARK    4  A    between atoms: C_7  and  C_8
REMARK    5  A    between atoms: C_8  and  N_9
REMARK    6  A    between atoms: C_10  and  C_12
REMARK    7  A    between atoms: C_19  and  C_21
REMARK                            x       y       z     vdW  Elec       q    Type
REMARK                         _______ _______ _______ _____ _____    ______ ____
ROOT
ATOM      1  C   UNL     1      47.284   6.238  12.377  0.00  0.00    +0.000 C 
ENDROOT
BRANCH   1   2
ATOM      2  C   UNL     1      47.450   5.586  13.726  0.00  0.00    +0.000 A 
ATOM      3  C   UNL     1      48.175   6.222  14.747  0.00  0.00    +0.000 A 
ATOM      4  C   UNL     1      48.318   5.617  15.998  0.00  0.00    +0.000 A 
ATOM      5  C   UNL     1      47.752   4.360  16.246  0.00  0.00    +0.000 A 
ATOM      6  C   UNL     1      46.999   3.745  15.236  0.00  0.00    +0.000 A 
ATOM      7  C   UNL     1      46.858   4.347  13.984  0.00  0.00    +0.000 A 
BRANCH   5   8
ATOM      8  C   UNL     1      47.961   3.666  17.565  0.00  0.00    +0.000 C 
BRANCH   8   9
ATOM      9  N   UNL     1      49.349   3.384  17.822  0.00  0.00    +0.000 N 
ATOM     10  C   UNL     1      50.010   2.379  17.146  0.00  0.00    +0.000 C 
ATOM     11  O   UNL     1      49.449   1.693  16.297  0.00  0.00    +0.000 OA
ATOM     12  H   UNL     1      49.870   3.980  18.453  0.00  0.00    +0.000 HD
BRANCH  10  13
ATOM     13  C   UNL     1      51.403   2.189  17.500  0.00  0.00    +0.000 A 
ATOM     14  C   UNL     1      52.135   1.019  17.448  0.00  0.00    +0.000 A 
ATOM     15  N   UNL     1      53.452   1.111  17.868  0.00  0.00    +0.000 NA
ATOM     16  C   UNL     1      53.702   2.344  18.236  0.00  0.00    +0.000 A 
ATOM     17  S   UNL     1      52.405   3.456  18.092  0.00  0.00    +0.000 S 
ENDBRANCH  10  13
ENDBRANCH   8   9
ENDBRANCH   5   8
ENDBRANCH   1   2
BRANCH   1  19
ATOM     18  C   UNL     1      46.515   8.648  12.334  0.00  0.00    +0.000 C 
ATOM     19  N   UNL     1      46.212   7.226  12.214  0.00  0.00    +0.000 N 
ATOM     20  C   UNL     1      44.947   6.903  11.685  0.00  0.00    +0.000 C 
ATOM     21  O   UNL     1      44.152   7.775  11.350  0.00  0.00    +0.000 OA
BRANCH  20  22
ATOM     22  C   UNL     1      44.559   5.486  11.578  0.00  0.00    +0.000 A 
ATOM     23  C   UNL     1      43.783   4.818  12.510  0.00  0.00    +0.000 A 
ATOM     24  S   UNL     1      43.452   3.198  12.095  0.00  0.00    +0.000 S 
ATOM     25  C   UNL     1      44.213   3.378  10.585  0.00  0.00    +0.000 A 
ATOM     26  N   UNL     1      44.196   2.369   9.674  0.00  0.00    +0.000 NA
ATOM     27  C   UNL     1      44.757   2.665   8.549  0.00  0.00    +0.000 A 
ATOM     28  N   UNL     1      45.364   3.863   8.269  0.00  0.00    +0.000 N 
ATOM     29  C   UNL     1      45.515   4.867   9.204  0.00  0.00    +0.000 A 
ATOM     30  O   UNL     1      46.257   5.817   8.991  0.00  0.00    +0.000 OA
ATOM     31  C   UNL     1      44.795   4.624  10.442  0.00  0.00    +0.000 A 
ATOM     32  H   UNL     1      45.844   4.004   7.393  0.00  0.00    +0.000 HD
ENDBRANCH  20  22
ENDBRANCH   1  19
TORSDOF 6
ENDMDL
MODEL 2
REMARK VINA RESULT:    -7.127      3.720      8.364
REMARK INTER + INTRA:         -10.604
REMARK INTER:                  -9.528
REMARK INTRA:                  -1.076
REMARK UNBOUND:                -0.976
REMARK  Name = 
REMARK  7 active torsions:
REMARK  status: ('A' for Active; 'I' for Inactive)
REMARK    1  A    between atoms: C_1  and  N_2
REMARK    2  A    between atoms: N_2  and  C_3
REMARK    3  A    between atoms: C_3  and  C_4
REMARK    4  A    between atoms: C_7  and  C_8
REMARK    5  A    between atoms: C_8  and  N_9
REMARK    6  A    between atoms: C_10  and  C_12
REMARK    7  A    between atoms: C_19  and  C_21
REMARK                            x       y       z     vdW  Elec       q    Type
REMARK                         _______ _______ _______ _____ _____    ______ ____
ROOT
ATOM      1  C   UNL     1      47.054   8.872  13.869  0.00  0.00    +0.000 C 
ENDROOT
BRANCH   1   2
ATOM      2  C   UNL     1      46.380   7.810  13.038  0.00  0.00    +0.000 A 
ATOM      3  C   UNL     1      45.355   8.145  12.138  0.00  0.00    +0.000 A 
ATOM      4  C   UNL     1      44.739   7.159  11.364  0.00  0.00    +0.000 A 
ATOM      5  C   UNL     1      45.127   5.818  11.487  0.00  0.00    +0.000 A 
ATOM      6  C   UNL     1      46.176   5.493  12.359  0.00  0.00    +0.000 A 
ATOM      7  C   UNL     1      46.789   6.477  13.136  0.00  0.00    +0.000 A 
BRANCH   5   8
ATOM      8  C   UNL     1      44.422   4.737  10.712  0.00  0.00    +0.000 C 
BRANCH   8   9
ATOM      9  N   UNL     1      45.260   4.154   9.697  0.00  0.00    +0.000 N 
ATOM     10  C   UNL     1      45.013   2.888   9.209  0.00  0.00    +0.000 C 
ATOM     11  O   UNL     1      44.070   2.212   9.610  0.00  0.00    +0.000 OA
ATOM     12  H   UNL     1      45.997   4.709   9.280  0.00  0.00    +0.000 HD
BRANCH  10  13
ATOM     13  C   UNL     1      45.933   2.409   8.196  0.00  0.00    +0.000 A 
ATOM     14  C   UNL     1      46.362   1.113   7.988  0.00  0.00    +0.000 A 
ATOM     15  N   UNL     1      47.268   0.934   6.955  0.00  0.00    +0.000 NA
ATOM     16  C   UNL     1      47.518   2.093   6.396  0.00  0.00    +0.000 A 
ATOM     17  S   UNL     1      46.689   3.444   7.048  0.00  0.00    +0.000 S 
ENDBRANCH  10  13
ENDBRANCH   8   9
ENDBRANCH   5   8
ENDBRANCH   1   2
BRANCH   1  19
ATOM     18  C   UNL     1      49.010   9.278  12.316  0.00  0.00    +0.000 C 
ATOM     19  N   UNL     1      48.489   9.100  13.667  0.00  0.00    +0.000 N 
ATOM     20  C   UNL     1      49.368   9.423  14.719  0.00  0.00    +0.000 C 
ATOM     21  O   UNL     1      50.506   9.828  14.501  0.00  0.00    +0.000 OA
BRANCH  20  22
ATOM     22  C   UNL     1      48.922   9.225  16.109  0.00  0.00    +0.000 A 
ATOM     23  C   UNL     1      48.487  10.242  16.940  0.00  0.00    +0.000 A 
ATOM     24  S   UNL     1      47.986   9.706  18.479  0.00  0.00    +0.000 S 
ATOM     25  C   UNL     1      48.196   8.079  18.035  0.00  0.00    +0.000 A 
ATOM     26  N   UNL     1      47.840   7.076  18.881  0.00  0.00    +0.000 NA
ATOM     27  C   UNL     1      47.996   5.892  18.390  0.00  0.00    +0.000 A 
ATOM     28  N   UNL     1      48.509   5.621  17.147  0.00  0.00    +0.000 N 
ATOM     29  C   UNL     1      48.999   6.600  16.307  0.00  0.00    +0.000 A 
ATOM     30  O   UNL     1      49.655   6.305  15.315  0.00  0.00    +0.000 OA
ATOM     31  C   UNL     1      48.733   7.952  16.767  0.00  0.00    +0.000 A 
ATOM     32  H   UNL     1      48.668   4.670  16.853  0.00  0.00    +0.000 HD
ENDBRANCH  20  22
ENDBRANCH   1  19
TORSDOF 6
ENDMDL
MODEL 3
REMARK VINA RESULT:    -6.791      2.509      2.957
REMARK INTER + INTRA:         -10.149
REMARK INTER:                  -8.988
REMARK INTRA:                  -1.161
REMARK UNBOUND:                -0.976
REMARK  Name = 
REMARK  7 active torsions:
REMARK  status: ('A' for Active; 'I' for Inactive)
REMARK    1  A    between atoms: C_1  and  N_2
REMARK    2  A    between atoms: N_2  and  C_3
REMARK    3  A    between atoms: C_3  and  C_4
REMARK    4  A    between atoms: C_7  and  C_8
REMARK    5  A    between atoms: C_8  and  N_9
REMARK    6  A    between atoms: C_10  and  C_12
REMARK    7  A    between atoms: C_19  and  C_21
REMARK                            x       y       z     vdW  Elec       q    Type
REMARK                         _______ _______ _______ _____ _____    ______ ____
ROOT
ATOM      1  C   UNL     1      46.999   6.286  12.244  0.00  0.00    +0.000 C 
ENDROOT
BRANCH   1   2
ATOM      2  C   UNL     1      47.342   5.839  13.642  0.00  0.00    +0.000 A 
ATOM      3  C   UNL     1      46.812   4.649  14.166  0.00  0.00    +0.000 A 
ATOM      4  C   UNL     1      47.139   4.234  15.459  0.00  0.00    +0.000 A 
ATOM      5  C   UNL     1      47.993   5.009  16.256  0.00  0.00    +0.000 A 
ATOM      6  C   UNL     1      48.549   6.177  15.716  0.00  0.00    +0.000 A 
ATOM      7  C   UNL     1      48.219   6.594  14.426  0.00  0.00    +0.000 A 
BRANCH   5   8
ATOM      8  C   UNL     1      48.295   4.610  17.676  0.00  0.00    +0.000 C 
BRANCH   8   9
ATOM      9  N   UNL     1      48.969   5.651  18.406  0.00  0.00    +0.000 N 
ATOM     10  C   UNL     1      50.289   5.518  18.783  0.00  0.00    +0.000 C 
ATOM     11  O   UNL     1      50.944   4.518  18.508  0.00  0.00    +0.000 OA
ATOM     12  H   UNL     1      48.491   6.527  18.580  0.00  0.00    +0.000 HD
BRANCH  10  13
ATOM     13  C   UNL     1      50.851   6.633  19.521  0.00  0.00    +0.000 A 
ATOM     14  C   UNL     1      51.706   6.584  20.605  0.00  0.00    +0.000 A 
ATOM     15  N   UNL     1      52.076   7.807  21.139  0.00  0.00    +0.000 NA
ATOM     16  C   UNL     1      51.498   8.767  20.459  0.00  0.00    +0.000 A 
ATOM     17  S   UNL     1      50.503   8.277  19.151  0.00  0.00    +0.000 S 
ENDBRANCH  10  13
ENDBRANCH   8   9
ENDBRANCH   5   8
ENDBRANCH   1   2
BRANCH   1  19
ATOM     18  C   UNL     1      46.006   8.612  12.181  0.00  0.00    +0.000 C 
ATOM     19  N   UNL     1      45.840   7.168  12.065  0.00  0.00    +0.000 N 
ATOM     20  C   UNL     1      44.616   6.724  11.526  0.00  0.00    +0.000 C 
ATOM     21  O   UNL     1      43.746   7.515  11.178  0.00  0.00    +0.000 OA
BRANCH  20  22
ATOM     22  C   UNL     1      44.365   5.276  11.423  0.00  0.00    +0.000 A 
ATOM     23  C   UNL     1      43.606   4.551  12.325  0.00  0.00    +0.000 A 
ATOM     24  S   UNL     1      43.446   2.902  11.922  0.00  0.00    +0.000 S 
ATOM     25  C   UNL     1      44.264   3.133  10.449  0.00  0.00    +0.000 A 
ATOM     26  N   UNL     1      44.387   2.117   9.555  0.00  0.00    +0.000 NA
ATOM     27  C   UNL     1      44.976   2.450   8.455  0.00  0.00    +0.000 A 
ATOM     28  N   UNL     1      45.484   3.695   8.186  0.00  0.00    +0.000 N 
ATOM     29  C   UNL     1      45.495   4.719   9.111  0.00  0.00    +0.000 A 
ATOM     30  O   UNL     1      46.157   5.731   8.919  0.00  0.00    +0.000 OA
ATOM     31  C   UNL     1      44.737   4.426  10.315  0.00  0.00    +0.000 A 
ATOM     32  H   UNL     1      45.994   3.869   7.333  0.00  0.00    +0.000 HD
ENDBRANCH  20  22
ENDBRANCH   1  19
TORSDOF 6
ENDMDL
MODEL 4
REMARK VINA RESULT:    -6.759      3.396      8.333
REMARK INTER + INTRA:         -10.106
REMARK INTER:                  -9.391
REMARK INTRA:                  -0.715
REMARK UNBOUND:                -0.976
REMARK  Name = 
REMARK  7 active torsions:
REMARK  status: ('A' for Active; 'I' for Inactive)
REMARK    1  A    between atoms: C_1  and  N_2
REMARK    2  A    between atoms: N_2  and  C_3
REMARK    3  A    between atoms: C_3  and  C_4
REMARK    4  A    between atoms: C_7  and  C_8
REMARK    5  A    between atoms: C_8  and  N_9
REMARK    6  A    between atoms: C_10  and  C_12
REMARK    7  A    between atoms: C_19  and  C_21
REMARK                            x       y       z     vdW  Elec       q    Type
REMARK                         _______ _______ _______ _____ _____    ______ ____
ROOT
ATOM      1  C   UNL     1      46.605   7.925  13.649  0.00  0.00    +0.000 C 
ENDROOT
BRANCH   1   2
ATOM      2  C   UNL     1      45.910   7.034  12.651  0.00  0.00    +0.000 A 
ATOM      3  C   UNL     1      44.628   6.525  12.913  0.00  0.00    +0.000 A 
ATOM      4  C   UNL     1      43.985   5.706  11.981  0.00  0.00    +0.000 A 
ATOM      5  C   UNL     1      44.618   5.372  10.777  0.00  0.00    +0.000 A 
ATOM      6  C   UNL     1      45.882   5.913  10.503  0.00  0.00    +0.000 A 
ATOM      7  C   UNL     1      46.528   6.727  11.435  0.00  0.00    +0.000 A 
BRANCH   5   8
ATOM      8  C   UNL     1      43.966   4.433   9.797  0.00  0.00    +0.000 C 
BRANCH   8   9
ATOM      9  N   UNL     1      44.877   3.986   8.777  0.00  0.00    +0.000 N 
ATOM     10  C   UNL     1      45.346   2.689   8.759  0.00  0.00    +0.000 C 
ATOM     11  O   UNL     1      45.004   1.864   9.601  0.00  0.00    +0.000 OA
ATOM     12  H   UNL     1      45.118   4.609   8.016  0.00  0.00    +0.000 HD
BRANCH  10  13
ATOM     13  C   UNL     1      46.264   2.363   7.685  0.00  0.00    +0.000 A 
ATOM     14  C   UNL     1      46.970   1.189   7.503  0.00  0.00    +0.000 A 
ATOM     15  N   UNL     1      47.801   1.149   6.396  0.00  0.00    +0.000 NA
ATOM     16  C   UNL     1      47.720   2.290   5.755  0.00  0.00    +0.000 A 
ATOM     17  S   UNL     1      46.652   3.456   6.415  0.00  0.00    +0.000 S 
ENDBRANCH  10  13
ENDBRANCH   8   9
ENDBRANCH   5   8
ENDBRANCH   1   2
BRANCH   1  19
ATOM     18  C   UNL     1      48.680   9.056  12.747  0.00  0.00    +0.000 C 
ATOM     19  N   UNL     1      48.067   8.030  13.582  0.00  0.00    +0.000 N 
ATOM     20  C   UNL     1      48.924   7.367  14.482  0.00  0.00    +0.000 C 
ATOM     21  O   UNL     1      50.118   7.643  14.551  0.00  0.00    +0.000 OA
BRANCH  20  22
ATOM     22  C   UNL     1      48.379   6.288  15.324  0.00  0.00    +0.000 A 
ATOM     23  C   UNL     1      47.883   5.092  14.834  0.00  0.00    +0.000 A 
ATOM     24  S   UNL     1      47.366   4.013  16.049  0.00  0.00    +0.000 S 
ATOM     25  C   UNL     1      47.924   5.049  17.276  0.00  0.00    +0.000 A 
ATOM     26  N   UNL     1      47.877   4.670  18.580  0.00  0.00    +0.000 NA
ATOM     27  C   UNL     1      48.390   5.529  19.398  0.00  0.00    +0.000 A 
ATOM     28  N   UNL     1      48.910   6.744  19.032  0.00  0.00    +0.000 N 
ATOM     29  C   UNL     1      48.864   7.222  17.738  0.00  0.00    +0.000 A 
ATOM     30  O   UNL     1      49.125   8.394  17.492  0.00  0.00    +0.000 OA
ATOM     31  C   UNL     1      48.406   6.242  16.769  0.00  0.00    +0.000 A 
ATOM     32  H   UNL     1      49.233   7.396  19.729  0.00  0.00    +0.000 HD
ENDBRANCH  20  22
ENDBRANCH   1  19
TORSDOF 6
ENDMDL
MODEL 5
REMARK VINA RESULT:    -6.464      2.081      2.620
REMARK INTER + INTRA:          -9.708
REMARK INTER:                  -8.868
REMARK INTRA:                  -0.840
REMARK UNBOUND:                -0.976
REMARK  Name = 
REMARK  7 active torsions:
REMARK  status: ('A' for Active; 'I' for Inactive)
REMARK    1  A    between atoms: C_1  and  N_2
REMARK    2  A    between atoms: N_2  and  C_3
REMARK    3  A    between atoms: C_3  and  C_4
REMARK    4  A    between atoms: C_7  and  C_8
REMARK    5  A    between atoms: C_8  and  N_9
REMARK    6  A    between atoms: C_10  and  C_12
REMARK    7  A    between atoms: C_19  and  C_21
REMARK                            x       y       z     vdW  Elec       q    Type
REMARK                         _______ _______ _______ _____ _____    ______ ____
ROOT
ATOM      1  C   UNL     1      47.288   5.905  12.912  0.00  0.00    +0.000 C 
ENDROOT
BRANCH   1   2
ATOM      2  C   UNL     1      47.581   5.515  14.338  0.00  0.00    +0.000 A 
ATOM      3  C   UNL     1      48.505   6.242  15.106  0.00  0.00    +0.000 A 
ATOM      4  C   UNL     1      48.767   5.881  16.430  0.00  0.00    +0.000 A 
ATOM      5  C   UNL     1      48.120   4.779  17.005  0.00  0.00    +0.000 A 
ATOM      6  C   UNL     1      47.171   4.079  16.247  0.00  0.00    +0.000 A 
ATOM      7  C   UNL     1      46.912   4.436  14.923  0.00  0.00    +0.000 A 
BRANCH   5   8
ATOM      8  C   UNL     1      48.448   4.337  18.407  0.00  0.00    +0.000 C 
BRANCH   8   9
ATOM      9  N   UNL     1      49.849   4.060  18.580  0.00  0.00    +0.000 N 
ATOM     10  C   UNL     1      50.619   4.800  19.454  0.00  0.00    +0.000 C 
ATOM     11  O   UNL     1      50.144   5.713  20.122  0.00  0.00    +0.000 OA
ATOM     12  H   UNL     1      50.262   3.263  18.113  0.00  0.00    +0.000 HD
BRANCH  10  13
ATOM     13  C   UNL     1      52.018   4.428  19.534  0.00  0.00    +0.000 A 
ATOM     14  C   UNL     1      52.832   3.975  18.514  0.00  0.00    +0.000 A 
ATOM     15  N   UNL     1      54.135   3.667  18.871  0.00  0.00    +0.000 NA
ATOM     16  C   UNL     1      54.293   3.886  20.154  0.00  0.00    +0.000 A 
ATOM     17  S   UNL     1      52.922   4.477  20.997  0.00  0.00    +0.000 S 
ENDBRANCH  10  13
ENDBRANCH   8   9
ENDBRANCH   5   8
ENDBRANCH   1   2
BRANCH   1  19
ATOM     18  C   UNL     1      46.613   8.294  13.403  0.00  0.00    +0.000 C 
ATOM     19  N   UNL     1      46.398   7.047  12.677  0.00  0.00    +0.000 N 
ATOM     20  C   UNL     1      45.499   7.107  11.593  0.00  0.00    +0.000 C 
ATOM     21  O   UNL     1      44.934   8.153  11.288  0.00  0.00    +0.000 OA
BRANCH  20  22
ATOM     22  C   UNL     1      45.201   5.875  10.844  0.00  0.00    +0.000 A 
ATOM     23  C   UNL     1      45.717   5.579   9.594  0.00  0.00    +0.000 A 
ATOM     24  S   UNL     1      45.236   4.057   8.993  0.00  0.00    +0.000 S 
ATOM     25  C   UNL     1      44.440   3.681  10.447  0.00  0.00    +0.000 A 
ATOM     26  N   UNL     1      43.885   2.454  10.639  0.00  0.00    +0.000 NA
ATOM     27  C   UNL     1      43.369   2.286  11.811  0.00  0.00    +0.000 A 
ATOM     28  N   UNL     1      43.325   3.244  12.791  0.00  0.00    +0.000 N 
ATOM     29  C   UNL     1      43.761   4.539  12.598  0.00  0.00    +0.000 A 
ATOM     30  O   UNL     1      43.496   5.419  13.408  0.00  0.00    +0.000 OA
ATOM     31  C   UNL     1      44.457   4.738  11.338  0.00  0.00    +0.000 A 
ATOM     32  H   UNL     1      42.845   3.068  13.661  0.00  0.00    +0.000 HD
ENDBRANCH  20  22
ENDBRANCH   1  19
TORSDOF 6
ENDMDL
MODEL 6
REMARK VINA RESULT:    -6.039      3.260      4.487
REMARK INTER + INTRA:          -9.134
REMARK INTER:                  -8.251
REMARK INTRA:                  -0.883
REMARK UNBOUND:                -0.976
REMARK  Name = 
REMARK  7 active torsions:
REMARK  status: ('A' for Active; 'I' for Inactive)
REMARK    1  A    between atoms: C_1  and  N_2
REMARK    2  A    between atoms: N_2  and  C_3
REMARK    3  A    between atoms: C_3  and  C_4
REMARK    4  A    between atoms: C_7  and  C_8
REMARK    5  A    between atoms: C_8  and  N_9
REMARK    6  A    between atoms: C_10  and  C_12
REMARK    7  A    between atoms: C_19  and  C_21
REMARK                            x       y       z     vdW  Elec       q    Type
REMARK                         _______ _______ _______ _____ _____    ______ ____
ROOT
ATOM      1  C   UNL     1      46.663   6.331  11.789  0.00  0.00    +0.000 C 
ENDROOT
BRANCH   1   2
ATOM      2  C   UNL     1      47.365   6.246  13.121  0.00  0.00    +0.000 A 
ATOM      3  C   UNL     1      46.934   5.341  14.104  0.00  0.00    +0.000 A 
ATOM      4  C   UNL     1      47.593   5.261  15.334  0.00  0.00    +0.000 A 
ATOM      5  C   UNL     1      48.686   6.095  15.606  0.00  0.00    +0.000 A 
ATOM      6  C   UNL     1      49.136   6.970  14.609  0.00  0.00    +0.000 A 
ATOM      7  C   UNL     1      48.476   7.054  13.381  0.00  0.00    +0.000 A 
BRANCH   5   8
ATOM      8  C   UNL     1      49.358   6.069  16.953  0.00  0.00    +0.000 C 
BRANCH   8   9
ATOM      9  N   UNL     1      48.813   7.048  17.857  0.00  0.00    +0.000 N 
ATOM     10  C   UNL     1      49.448   8.255  18.067  0.00  0.00    +0.000 C 
ATOM     11  O   UNL     1      50.492   8.547  17.491  0.00  0.00    +0.000 OA
ATOM     12  H   UNL     1      47.912   6.883  18.287  0.00  0.00    +0.000 HD
BRANCH  10  13
ATOM     13  C   UNL     1      48.804   9.153  19.006  0.00  0.00    +0.000 A 
ATOM     14  C   UNL     1      49.277  10.361  19.479  0.00  0.00    +0.000 A 
ATOM     15  N   UNL     1      48.465  11.012  20.393  0.00  0.00    +0.000 NA
ATOM     16  C   UNL     1      47.390  10.291  20.606  0.00  0.00    +0.000 A 
ATOM     17  S   UNL     1      47.279   8.822  19.729  0.00  0.00    +0.000 S 
ENDBRANCH  10  13
ENDBRANCH   8   9
ENDBRANCH   5   8
ENDBRANCH   1   2
BRANCH   1  19
ATOM     18  C   UNL     1      45.388   8.516  11.825  0.00  0.00    +0.000 C 
ATOM     19  N   UNL     1      45.393   7.061  11.722  0.00  0.00    +0.000 N 
ATOM     20  C   UNL     1      44.189   6.464  11.299  0.00  0.00    +0.000 C 
ATOM     21  O   UNL     1      43.198   7.139  11.036  0.00  0.00    +0.000 OA
BRANCH  20  22
ATOM     22  C   UNL     1      44.110   4.996  11.216  0.00  0.00    +0.000 A 
ATOM     23  C   UNL     1      43.412   4.201  12.110  0.00  0.00    +0.000 A 
ATOM     24  S   UNL     1      43.457   2.539  11.733  0.00  0.00    +0.000 S 
ATOM     25  C   UNL     1      44.289   2.840  10.281  0.00  0.00    +0.000 A 
ATOM     26  N   UNL     1      44.556   1.831   9.411  0.00  0.00    +0.000 NA
ATOM     27  C   UNL     1      45.137   2.213   8.323  0.00  0.00    +0.000 A 
ATOM     28  N   UNL     1      45.506   3.504   8.044  0.00  0.00    +0.000 N 
ATOM     29  C   UNL     1      45.369   4.537   8.949  0.00  0.00    +0.000 A 
ATOM     30  O   UNL     1      45.916   5.616   8.758  0.00  0.00    +0.000 OA
ATOM     31  C   UNL     1      44.613   4.177  10.136  0.00  0.00    +0.000 A 
ATOM     32  H   UNL     1      46.019   3.723   7.204  0.00  0.00    +0.000 HD
ENDBRANCH  20  22
ENDBRANCH   1  19
TORSDOF 6
ENDMDL
MODEL 7
REMARK VINA RESULT:    -5.722      2.220      2.894
REMARK INTER + INTRA:          -8.706
REMARK INTER:                  -7.823
REMARK INTRA:                  -0.882
REMARK UNBOUND:                -0.976
REMARK  Name = 
REMARK  7 active torsions:
REMARK  status: ('A' for Active; 'I' for Inactive)
REMARK    1  A    between atoms: C_1  and  N_2
REMARK    2  A    between atoms: N_2  and  C_3
REMARK    3  A    between atoms: C_3  and  C_4
REMARK    4  A    between atoms: C_7  and  C_8
REMARK    5  A    between atoms: C_8  and  N_9
REMARK    6  A    between atoms: C_10  and  C_12
REMARK    7  A    between atoms: C_19  and  C_21
REMARK                            x       y       z     vdW  Elec       q    Type
REMARK                         _______ _______ _______ _____ _____    ______ ____
ROOT
ATOM      1  C   UNL     1      45.575   3.926  12.562  0.00  0.00    +0.000 C 
ENDROOT
BRANCH   1   2
ATOM      2  C   UNL     1      46.530   4.758  13.379  0.00  0.00    +0.000 A 
ATOM      3  C   UNL     1      47.121   5.911  12.839  0.00  0.00    +0.000 A 
ATOM      4  C   UNL     1      47.999   6.684  13.604  0.00  0.00    +0.000 A 
ATOM      5  C   UNL     1      48.311   6.309  14.918  0.00  0.00    +0.000 A 
ATOM      6  C   UNL     1      47.690   5.178  15.465  0.00  0.00    +0.000 A 
ATOM      7  C   UNL     1      46.816   4.403  14.701  0.00  0.00    +0.000 A 
BRANCH   5   8
ATOM      8  C   UNL     1      49.310   7.092  15.727  0.00  0.00    +0.000 C 
BRANCH   8   9
ATOM      9  N   UNL     1      50.428   6.288  16.145  0.00  0.00    +0.000 N 
ATOM     10  C   UNL     1      50.529   5.826  17.441  0.00  0.00    +0.000 C 
ATOM     11  O   UNL     1      49.674   6.073  18.285  0.00  0.00    +0.000 OA
ATOM     12  H   UNL     1      51.112   5.991  15.460  0.00  0.00    +0.000 HD
BRANCH  10  13
ATOM     13  C   UNL     1      51.705   5.033  17.740  0.00  0.00    +0.000 A 
ATOM     14  C   UNL     1      51.767   3.677  17.994  0.00  0.00    +0.000 A 
ATOM     15  N   UNL     1      53.026   3.171  18.275  0.00  0.00    +0.000 NA
ATOM     16  C   UNL     1      53.901   4.146  18.235  0.00  0.00    +0.000 A 
ATOM     17  S   UNL     1      53.287   5.700  17.850  0.00  0.00    +0.000 S 
ENDBRANCH  10  13
ENDBRANCH   8   9
ENDBRANCH   5   8
ENDBRANCH   1   2
BRANCH   1  19
ATOM     18  C   UNL     1      43.703   5.605  12.841  0.00  0.00    +0.000 C 
ATOM     19  N   UNL     1      44.360   4.569  12.051  0.00  0.00    +0.000 N 
ATOM     20  C   UNL     1      43.927   4.437  10.717  0.00  0.00    +0.000 C 
ATOM     21  O   UNL     1      43.045   5.156  10.256  0.00  0.00    +0.000 OA
BRANCH  20  22
ATOM     22  C   UNL     1      44.516   3.382   9.876  0.00  0.00    +0.000 A 
ATOM     23  C   UNL     1      44.091   2.064   9.867  0.00  0.00    +0.000 A 
ATOM     24  S   UNL     1      44.927   1.079   8.754  0.00  0.00    +0.000 S 
ATOM     25  C   UNL     1      45.785   2.413   8.143  0.00  0.00    +0.000 A 
ATOM     26  N   UNL     1      46.618   2.275   7.078  0.00  0.00    +0.000 NA
ATOM     27  C   UNL     1      47.156   3.380   6.682  0.00  0.00    +0.000 A 
ATOM     28  N   UNL     1      46.964   4.601   7.277  0.00  0.00    +0.000 N 
ATOM     29  C   UNL     1      46.230   4.767   8.433  0.00  0.00    +0.000 A 
ATOM     30  O   UNL     1      46.271   5.819   9.059  0.00  0.00    +0.000 OA
ATOM     31  C   UNL     1      45.510   3.573   8.844  0.00  0.00    +0.000 A 
ATOM     32  H   UNL     1      47.469   5.414   6.958  0.00  0.00    +0.000 HD
ENDBRANCH  20  22
ENDBRANCH   1  19
TORSDOF 6
ENDMDL
MODEL 8
REMARK VINA RESULT:    -5.704      3.391      5.637
REMARK INTER + INTRA:          -8.681
REMARK INTER:                  -7.515
REMARK INTRA:                  -1.166
REMARK UNBOUND:                -0.976
REMARK  Name = 
REMARK  7 active torsions:
REMARK  status: ('A' for Active; 'I' for Inactive)
REMARK    1  A    between atoms: C_1  and  N_2
REMARK    2  A    between atoms: N_2  and  C_3
REMARK    3  A    between atoms: C_3  and  C_4
REMARK    4  A    between atoms: C_7  and  C_8
REMARK    5  A    between atoms: C_8  and  N_9
REMARK    6  A    between atoms: C_10  and  C_12
REMARK    7  A    between atoms: C_19  and  C_21
REMARK                            x       y       z     vdW  Elec       q    Type
REMARK                         _______ _______ _______ _____ _____    ______ ____
ROOT
ATOM      1  C   UNL     1      47.634   7.009  12.125  0.00  0.00    +0.000 C 
ENDROOT
BRANCH   1   2
ATOM      2  C   UNL     1      47.601   6.148  13.362  0.00  0.00    +0.000 A 
ATOM      3  C   UNL     1      48.307   6.523  14.517  0.00  0.00    +0.000 A 
ATOM      4  C   UNL     1      48.267   5.725  15.664  0.00  0.00    +0.000 A 
ATOM      5  C   UNL     1      47.532   4.532  15.671  0.00  0.00    +0.000 A 
ATOM      6  C   UNL     1      46.799   4.181  14.529  0.00  0.00    +0.000 A 
ATOM      7  C   UNL     1      46.842   4.975  13.381  0.00  0.00    +0.000 A 
BRANCH   5   8
ATOM      8  C   UNL     1      47.540   3.629  16.875  0.00  0.00    +0.000 C 
BRANCH   8   9
ATOM      9  N   UNL     1      48.869   3.389  17.372  0.00  0.00    +0.000 N 
ATOM     10  C   UNL     1      49.654   2.382  16.850  0.00  0.00    +0.000 C 
ATOM     11  O   UNL     1      49.259   1.657  15.942  0.00  0.00    +0.000 OA
ATOM     12  H   UNL     1      49.265   4.016  18.061  0.00  0.00    +0.000 HD
BRANCH  10  13
ATOM     13  C   UNL     1      50.971   2.236  17.440  0.00  0.00    +0.000 A 
ATOM     14  C   UNL     1      51.689   1.071  17.624  0.00  0.00    +0.000 A 
ATOM     15  N   UNL     1      52.923   1.212  18.238  0.00  0.00    +0.000 NA
ATOM     16  C   UNL     1      53.125   2.478  18.514  0.00  0.00    +0.000 A 
ATOM     17  S   UNL     1      51.879   3.562  18.052  0.00  0.00    +0.000 S 
ENDBRANCH  10  13
ENDBRANCH   8   9
ENDBRANCH   5   8
ENDBRANCH   1   2
BRANCH   1  19
ATOM     18  C   UNL     1      45.325   8.045  12.099  0.00  0.00    +0.000 C 
ATOM     19  N   UNL     1      46.776   8.198  12.089  0.00  0.00    +0.000 N 
ATOM     20  C   UNL     1      47.264   9.501  12.309  0.00  0.00    +0.000 C 
ATOM     21  O   UNL     1      46.504  10.446  12.497  0.00  0.00    +0.000 OA
BRANCH  20  22
ATOM     22  C   UNL     1      48.717   9.736  12.267  0.00  0.00    +0.000 A 
ATOM     23  C   UNL     1      49.454   9.856  11.101  0.00  0.00    +0.000 A 
ATOM     24  S   UNL     1      51.108  10.175  11.361  0.00  0.00    +0.000 S 
ATOM     25  C   UNL     1      50.868  10.310  13.039  0.00  0.00    +0.000 A 
ATOM     26  N   UNL     1      51.887  10.678  13.860  0.00  0.00    +0.000 NA
ATOM     27  C   UNL     1      51.548  10.800  15.100  0.00  0.00    +0.000 A 
ATOM     28  N   UNL     1      50.294  10.552  15.596  0.00  0.00    +0.000 N 
ATOM     29  C   UNL     1      49.264  10.056  14.823  0.00  0.00    +0.000 A 
ATOM     30  O   UNL     1      48.238   9.631  15.340  0.00  0.00    +0.000 OA
ATOM     31  C   UNL     1      49.566  10.018  13.402  0.00  0.00    +0.000 A 
ATOM     32  H   UNL     1      50.114  10.601  16.587  0.00  0.00    +0.000 HD
ENDBRANCH  20  22
ENDBRANCH   1  19
TORSDOF 6
ENDMDL
MODEL 9
REMARK VINA RESULT:    -5.687      2.624      3.417
REMARK INTER + INTRA:          -8.658
REMARK INTER:                  -7.608
REMARK INTRA:                  -1.050
REMARK UNBOUND:                -0.976
REMARK  Name = 
REMARK  7 active torsions:
REMARK  status: ('A' for Active; 'I' for Inactive)
REMARK    1  A    between atoms: C_1  and  N_2
REMARK    2  A    between atoms: N_2  and  C_3
REMARK    3  A    between atoms: C_3  and  C_4
REMARK    4  A    between atoms: C_7  and  C_8
REMARK    5  A    between atoms: C_8  and  N_9
REMARK    6  A    between atoms: C_10  and  C_12
REMARK    7  A    between atoms: C_19  and  C_21
REMARK                            x       y       z     vdW  Elec       q    Type
REMARK                         _______ _______ _______ _____ _____    ______ ____
ROOT
ATOM      1  C   UNL     1      45.586   3.747  12.504  0.00  0.00    +0.000 C 
ENDROOT
BRANCH   1   2
ATOM      2  C   UNL     1      46.502   4.640  13.301  0.00  0.00    +0.000 A 
ATOM      3  C   UNL     1      47.069   5.787  12.724  0.00  0.00    +0.000 A 
ATOM      4  C   UNL     1      47.911   6.616  13.470  0.00  0.00    +0.000 A 
ATOM      5  C   UNL     1      48.212   6.304  14.802  0.00  0.00    +0.000 A 
ATOM      6  C   UNL     1      47.615   5.178  15.386  0.00  0.00    +0.000 A 
ATOM      7  C   UNL     1      46.777   4.347  14.640  0.00  0.00    +0.000 A 
BRANCH   5   8
ATOM      8  C   UNL     1      49.175   7.148  15.594  0.00  0.00    +0.000 C 
BRANCH   8   9
ATOM      9  N   UNL     1      49.993   6.362  16.480  0.00  0.00    +0.000 N 
ATOM     10  C   UNL     1      51.370   6.428  16.425  0.00  0.00    +0.000 C 
ATOM     11  O   UNL     1      51.952   7.160  15.631  0.00  0.00    +0.000 OA
ATOM     12  H   UNL     1      49.553   5.810  17.206  0.00  0.00    +0.000 HD
BRANCH  10  13
ATOM     13  C   UNL     1      52.081   5.583  17.365  0.00  0.00    +0.000 A 
ATOM     14  C   UNL     1      53.299   5.830  17.969  0.00  0.00    +0.000 A 
ATOM     15  N   UNL     1      53.766   4.837  18.814  0.00  0.00    +0.000 NA
ATOM     16  C   UNL     1      52.903   3.851  18.839  0.00  0.00    +0.000 A 
ATOM     17  S   UNL     1      51.495   4.051  17.882  0.00  0.00    +0.000 S 
ENDBRANCH  10  13
ENDBRANCH   8   9
ENDBRANCH   5   8
ENDBRANCH   1   2
BRANCH   1  19
ATOM     18  C   UNL     1      43.266   4.502  13.174  0.00  0.00    +0.000 C 
ATOM     19  N   UNL     1      44.264   4.266  12.136  0.00  0.00    +0.000 N 
ATOM     20  C   UNL     1      43.978   4.803  10.865  0.00  0.00    +0.000 C 
ATOM     21  O   UNL     1      42.945   5.430  10.653  0.00  0.00    +0.000 OA
BRANCH  20  22
ATOM     22  C   UNL     1      44.922   4.563   9.760  0.00  0.00    +0.000 A 
ATOM     23  C   UNL     1      45.774   5.523   9.242  0.00  0.00    +0.000 A 
ATOM     24  S   UNL     1      46.788   4.943   8.000  0.00  0.00    +0.000 S 
ATOM     25  C   UNL     1      46.225   3.354   8.214  0.00  0.00    +0.000 A 
ATOM     26  N   UNL     1      46.771   2.323   7.517  0.00  0.00    +0.000 NA
ATOM     27  C   UNL     1      46.289   1.164   7.824  0.00  0.00    +0.000 A 
ATOM     28  N   UNL     1      45.289   0.950   8.738  0.00  0.00    +0.000 N 
ATOM     29  C   UNL     1      44.620   1.976   9.375  0.00  0.00    +0.000 A 
ATOM     30  O   UNL     1      43.589   1.761  10.000  0.00  0.00    +0.000 OA
ATOM     31  C   UNL     1      45.208   3.285   9.150  0.00  0.00    +0.000 A 
ATOM     32  H   UNL     1      44.912   0.026   8.880  0.00  0.00    +0.000 HD
ENDBRANCH  20  22
ENDBRANCH   1  19
TORSDOF 6
ENDMDL
