MODEL 1
REMARK VINA RESULT:    -8.096      0.000      0.000
REMARK INTER + INTRA:         -11.565
REMARK INTER:                 -10.462
REMARK INTRA:                  -1.103
REMARK UNBOUND:                -1.103
REMARK  Name = 
REMARK  5 active torsions:
REMARK  status: ('A' for Active; 'I' for Inactive)
REMARK    1  A    between atoms: N_3  and  C_4
REMARK    2  A    between atoms: C_4  and  C_5
REMARK    3  A    between atoms: C_8  and  C_25
REMARK    4  A    between atoms: C_9  and  N_10
REMARK    5  A    between atoms: C_11  and  C_13
REMARK                            x       y       z     vdW  Elec       q    Type
REMARK                         _______ _______ _______ _____ _____    ______ ____
ROOT
ATOM      1  C   UNL     1      44.940   3.512  10.048  0.00  0.00    +0.000 C 
ATOM      2  C   UNL     1      45.567   4.610   9.570  0.00  0.00    +0.000 C 
ATOM      3  C   UNL     1      45.684   5.893  10.245  0.00  0.00    +0.000 C 
ATOM      4  C   UNL     1      45.921   6.053  11.568  0.00  0.00    +0.000 C 
ATOM      5  C   UNL     1      46.121   4.811  12.441  0.00  0.00    +0.000 C 
ATOM      6  C   UNL     1      44.857   3.993  12.479  0.00  0.00    +0.000 C 
ATOM      7  C   UNL     1      44.335   3.427  11.376  0.00  0.00    +0.000 C 
ENDROOT
BRANCH   4   8
ATOM      8  C   UNL     1      45.831   7.389  12.050  0.00  0.00    +0.000 A 
ATOM      9  C   UNL     1      46.737   8.301  12.546  0.00  0.00    +0.000 A 
ATOM     10  N   UNL     1      46.129   9.507  12.795  0.00  0.00    +0.000 NA
ATOM     11  C   UNL     1      44.872   9.332  12.461  0.00  0.00    +0.000 A 
ATOM     12  N   UNL     1      44.635   8.061  12.028  0.00  0.00    +0.000 N 
ATOM     13  H   UNL     1      43.745   7.686  11.719  0.00  0.00    +0.000 HD
ENDBRANCH   4   8
BRANCH   5  14
ATOM     14  N   UNL     1      46.500   5.166  13.786  0.00  0.00    +0.000 N 
ATOM     15  C   UNL     1      47.161   4.284  14.598  0.00  0.00    +0.000 C 
ATOM     16  O   UNL     1      47.450   3.147  14.229  0.00  0.00    +0.000 OA
ATOM     17  H   UNL     1      46.322   6.112  14.102  0.00  0.00    +0.000 HD
BRANCH  15  18
ATOM     18  C   UNL     1      47.570   4.773  15.919  0.00  0.00    +0.000 A 
ATOM     19  C   UNL     1      47.053   4.172  17.057  0.00  0.00    +0.000 A 
ATOM     20  S   UNL     1      47.611   4.863  18.510  0.00  0.00    +0.000 S 
ATOM     21  C   UNL     1      48.526   6.025  17.667  0.00  0.00    +0.000 A 
ATOM     22  N   UNL     1      49.221   6.981  18.338  0.00  0.00    +0.000 NA
ATOM     23  C   UNL     1      49.844   7.818  17.577  0.00  0.00    +0.000 A 
ATOM     24  N   UNL     1      49.849   7.773  16.206  0.00  0.00    +0.000 N 
ATOM     25  C   UNL     1      49.217   6.784  15.490  0.00  0.00    +0.000 A 
ATOM     26  O   UNL     1      49.343   6.702  14.271  0.00  0.00    +0.000 OA
ATOM     27  C   UNL     1      48.450   5.852  16.295  0.00  0.00    +0.000 A 
ATOM     28  H   UNL     1      50.389   8.437  15.671  0.00  0.00    +0.000 HD
ENDBRANCH  15  18
ENDBRANCH   5  14
BRANCH   1  29
ATOM     29  C   UNL     1      44.804   2.271   9.201  0.00  0.00    +0.000 C 
BRANCH  29  32
ATOM     30  O   UNL     1      46.457   0.213   8.172  0.00  0.00    +0.000 OA
ATOM     31  C   UNL     1      46.463   1.326   7.669  0.00  0.00    +0.000 C 
ATOM     32  N   UNL     1      45.703   2.386   8.078  0.00  0.00    +0.000 N 
ATOM     33  H   UNL     1      45.793   3.274   7.602  0.00  0.00    +0.000 HD
ENDBRANCH  29  32
ENDBRANCH   1  29
TORSDOF 5
ENDMDL
MODEL 2
REMARK VINA RESULT:    -7.632      1.433      2.134
REMARK INTER + INTRA:         -10.965
REMARK INTER:                 -10.333
REMARK INTRA:                  -0.632
REMARK UNBOUND:                -1.103
REMARK  Name = 
REMARK  5 active torsions:
REMARK  status: ('A' for Active; 'I' for Inactive)
REMARK    1  A    between atoms: N_3  and  C_4
REMARK    2  A    between atoms: C_4  and  C_5
REMARK    3  A    between atoms: C_8  and  C_25
REMARK    4  A    between atoms: C_9  and  N_10
REMARK    5  A    between atoms: C_11  and  C_13
REMARK                            x       y       z     vdW  Elec       q    Type
REMARK                         _______ _______ _______ _____ _____    ______ ____
ROOT
ATOM      1  C   UNL     1      44.554   3.729  10.632  0.00  0.00    +0.000 C 
ATOM      2  C   UNL     1      45.165   4.725   9.953  0.00  0.00    +0.000 C 
ATOM      3  C   UNL     1      45.457   6.056  10.462  0.00  0.00    +0.000 C 
ATOM      4  C   UNL     1      45.900   6.327  11.712  0.00  0.00    +0.000 C 
ATOM      5  C   UNL     1      46.156   5.164  12.676  0.00  0.00    +0.000 C 
ATOM      6  C   UNL     1      44.866   4.450  12.983  0.00  0.00    +0.000 C 
ATOM      7  C   UNL     1      44.151   3.818  12.035  0.00  0.00    +0.000 C 
ENDROOT
BRANCH   4   8
ATOM      8  C   UNL     1      45.961   7.706  12.056  0.00  0.00    +0.000 A 
ATOM      9  C   UNL     1      46.983   8.587  12.338  0.00  0.00    +0.000 A 
ATOM     10  N   UNL     1      46.494   9.856  12.528  0.00  0.00    +0.000 NA
ATOM     11  C   UNL     1      45.195   9.750  12.369  0.00  0.00    +0.000 A 
ATOM     12  N   UNL     1      44.820   8.466  12.107  0.00  0.00    +0.000 N 
ATOM     13  H   UNL     1      43.875   8.135  11.950  0.00  0.00    +0.000 HD
ENDBRANCH   4   8
BRANCH   5  14
ATOM     14  N   UNL     1      46.754   5.621  13.906  0.00  0.00    +0.000 N 
ATOM     15  C   UNL     1      47.475   4.775  14.706  0.00  0.00    +0.000 C 
ATOM     16  O   UNL     1      47.636   3.589  14.425  0.00  0.00    +0.000 OA
ATOM     17  H   UNL     1      46.682   6.604  14.141  0.00  0.00    +0.000 HD
BRANCH  15  18
ATOM     18  C   UNL     1      48.107   5.360  15.894  0.00  0.00    +0.000 A 
ATOM     19  C   UNL     1      48.807   6.552  15.774  0.00  0.00    +0.000 A 
ATOM     20  S   UNL     1      49.495   7.092  17.236  0.00  0.00    +0.000 S 
ATOM     21  C   UNL     1      48.924   5.722  18.071  0.00  0.00    +0.000 A 
ATOM     22  N   UNL     1      49.219   5.537  19.384  0.00  0.00    +0.000 NA
ATOM     23  C   UNL     1      48.752   4.442  19.885  0.00  0.00    +0.000 A 
ATOM     24  N   UNL     1      48.000   3.526  19.195  0.00  0.00    +0.000 N 
ATOM     25  C   UNL     1      47.620   3.707  17.886  0.00  0.00    +0.000 A 
ATOM     26  O   UNL     1      46.845   2.929  17.335  0.00  0.00    +0.000 OA
ATOM     27  C   UNL     1      48.170   4.893  17.256  0.00  0.00    +0.000 A 
ATOM     28  H   UNL     1      47.632   2.708  19.658  0.00  0.00    +0.000 HD
ENDBRANCH  15  18
ENDBRANCH   5  14
BRANCH   1  29
ATOM     29  C   UNL     1      44.218   2.424   9.953  0.00  0.00    +0.000 C 
BRANCH  29  32
ATOM     30  O   UNL     1      46.312   1.199   8.488  0.00  0.00    +0.000 OA
ATOM     31  C   UNL     1      45.514   1.938   7.933  0.00  0.00    +0.000 C 
ATOM     32  N   UNL     1      44.465   2.572   8.538  0.00  0.00    +0.000 N 
ATOM     33  H   UNL     1      43.868   3.178   7.990  0.00  0.00    +0.000 HD
ENDBRANCH  29  32
ENDBRANCH   1  29
TORSDOF 5
ENDMDL
MODEL 3
REMARK VINA RESULT:    -6.984      2.929      8.288
REMARK INTER + INTRA:         -10.128
REMARK INTER:                  -8.823
REMARK INTRA:                  -1.305
REMARK UNBOUND:                -1.103
REMARK  Name = 
REMARK  5 active torsions:
REMARK  status: ('A' for Active; 'I' for Inactive)
REMARK    1  A    between atoms: N_3  and  C_4
REMARK    2  A    between atoms: C_4  and  C_5
REMARK    3  A    between atoms: C_8  and  C_25
REMARK    4  A    between atoms: C_9  and  N_10
REMARK    5  A    between atoms: C_11  and  C_13
REMARK                            x       y       z     vdW  Elec       q    Type
REMARK                         _______ _______ _______ _____ _____    ______ ____
ROOT
ATOM      1  C   UNL     1      51.172   8.166  17.904  0.00  0.00    +0.000 C 
ATOM      2  C   UNL     1      51.463   6.848  17.837  0.00  0.00    +0.000 C 
ATOM      3  C   UNL     1      50.503   5.763  17.712  0.00  0.00    +0.000 C 
ATOM      4  C   UNL     1      49.399   5.792  16.930  0.00  0.00    +0.000 C 
ATOM      5  C   UNL     1      49.130   7.033  16.073  0.00  0.00    +0.000 C 
ATOM      6  C   UNL     1      48.883   8.229  16.954  0.00  0.00    +0.000 C 
ATOM      7  C   UNL     1      49.822   8.715  17.786  0.00  0.00    +0.000 C 
ENDROOT
BRANCH   4   8
ATOM      8  C   UNL     1      48.508   4.693  17.085  0.00  0.00    +0.000 A 
ATOM      9  C   UNL     1      47.176   4.568  17.413  0.00  0.00    +0.000 A 
ATOM     10  N   UNL     1      46.776   3.257  17.337  0.00  0.00    +0.000 NA
ATOM     11  C   UNL     1      47.848   2.592  16.974  0.00  0.00    +0.000 A 
ATOM     12  N   UNL     1      48.928   3.412  16.833  0.00  0.00    +0.000 N 
ATOM     13  H   UNL     1      49.865   3.133  16.563  0.00  0.00    +0.000 HD
ENDBRANCH   4   8
BRANCH   5  14
ATOM     14  N   UNL     1      47.997   6.838  15.204  0.00  0.00    +0.000 N 
ATOM     15  C   UNL     1      48.156   6.630  13.860  0.00  0.00    +0.000 C 
ATOM     16  O   UNL     1      49.264   6.612  13.328  0.00  0.00    +0.000 OA
ATOM     17  H   UNL     1      47.072   6.796  15.618  0.00  0.00    +0.000 HD
BRANCH  15  18
ATOM     18  C   UNL     1      46.942   6.363  13.079  0.00  0.00    +0.000 A 
ATOM     19  C   UNL     1      46.274   7.421  12.479  0.00  0.00    +0.000 A 
ATOM     20  S   UNL     1      44.878   6.952  11.624  0.00  0.00    +0.000 S 
ATOM     21  C   UNL     1      45.090   5.322  12.069  0.00  0.00    +0.000 A 
ATOM     22  N   UNL     1      44.185   4.379  11.698  0.00  0.00    +0.000 NA
ATOM     23  C   UNL     1      44.449   3.190  12.130  0.00  0.00    +0.000 A 
ATOM     24  N   UNL     1      45.545   2.859  12.883  0.00  0.00    +0.000 N 
ATOM     25  C   UNL     1      46.521   3.767  13.222  0.00  0.00    +0.000 A 
ATOM     26  O   UNL     1      47.550   3.414  13.791  0.00  0.00    +0.000 OA
ATOM     27  C   UNL     1      46.242   5.131  12.814  0.00  0.00    +0.000 A 
ATOM     28  H   UNL     1      45.713   1.901  13.156  0.00  0.00    +0.000 HD
ENDBRANCH  15  18
ENDBRANCH   5  14
BRANCH   1  29
ATOM     29  C   UNL     1      52.259   9.187  18.135  0.00  0.00    +0.000 C 
BRANCH  29  32
ATOM     30  O   UNL     1      51.924  10.740  15.789  0.00  0.00    +0.000 OA
ATOM     31  C   UNL     1      52.870   9.975  15.898  0.00  0.00    +0.000 C 
ATOM     32  N   UNL     1      53.133   9.187  16.984  0.00  0.00    +0.000 N 
ATOM     33  H   UNL     1      53.937   8.575  16.970  0.00  0.00    +0.000 HD
ENDBRANCH  29  32
ENDBRANCH   1  29
TORSDOF 5
ENDMDL
MODEL 4
REMARK VINA RESULT:    -6.570      2.155      2.670
REMARK INTER + INTRA:          -9.593
REMARK INTER:                  -8.467
REMARK INTRA:                  -1.126
REMARK UNBOUND:                -1.103
REMARK  Name = 
REMARK  5 active torsions:
REMARK  status: ('A' for Active; 'I' for Inactive)
REMARK    1  A    between atoms: N_3  and  C_4
REMARK    2  A    between atoms: C_4  and  C_5
REMARK    3  A    between atoms: C_8  and  C_25
REMARK    4  A    between atoms: C_9  and  N_10
REMARK    5  A    between atoms: C_11  and  C_13
REMARK                            x       y       z     vdW  Elec       q    Type
REMARK                         _______ _______ _______ _____ _____    ______ ____
ROOT
ATOM      1  C   UNL     1      45.440   5.689  11.014  0.00  0.00    +0.000 C 
ATOM      2  C   UNL     1      46.593   6.352  10.772  0.00  0.00    +0.000 C 
ATOM      3  C   UNL     1      47.324   7.176  11.722  0.00  0.00    +0.000 C 
ATOM      4  C   UNL     1      47.503   6.877  13.029  0.00  0.00    +0.000 C 
ATOM      5  C   UNL     1      46.936   5.562  13.573  0.00  0.00    +0.000 C 
ATOM      6  C   UNL     1      45.433   5.569  13.490  0.00  0.00    +0.000 C 
ATOM      7  C   UNL     1      44.779   5.642  12.316  0.00  0.00    +0.000 C 
ENDROOT
BRANCH   4   8
ATOM      8  C   UNL     1      48.102   7.900  13.817  0.00  0.00    +0.000 A 
ATOM      9  C   UNL     1      49.353   8.474  13.863  0.00  0.00    +0.000 A 
ATOM     10  N   UNL     1      49.383   9.504  14.771  0.00  0.00    +0.000 NA
ATOM     11  C   UNL     1      48.171   9.553  15.273  0.00  0.00    +0.000 A 
ATOM     12  N   UNL     1      47.366   8.588  14.747  0.00  0.00    +0.000 N 
ATOM     13  H   UNL     1      46.393   8.424  14.978  0.00  0.00    +0.000 HD
ENDBRANCH   4   8
BRANCH   5  14
ATOM     14  N   UNL     1      47.337   5.340  14.940  0.00  0.00    +0.000 N 
ATOM     15  C   UNL     1      47.587   4.080  15.415  0.00  0.00    +0.000 C 
ATOM     16  O   UNL     1      47.468   3.080  14.709  0.00  0.00    +0.000 OA
ATOM     17  H   UNL     1      47.493   6.146  15.534  0.00  0.00    +0.000 HD
BRANCH  15  18
ATOM     18  C   UNL     1      48.066   3.972  16.798  0.00  0.00    +0.000 A 
ATOM     19  C   UNL     1      47.433   3.099  17.671  0.00  0.00    +0.000 A 
ATOM     20  S   UNL     1      48.094   3.101  19.240  0.00  0.00    +0.000 S 
ATOM     21  C   UNL     1      49.219   4.309  18.822  0.00  0.00    +0.000 A 
ATOM     22  N   UNL     1      50.072   4.814  19.750  0.00  0.00    +0.000 NA
ATOM     23  C   UNL     1      50.848   5.747  19.307  0.00  0.00    +0.000 A 
ATOM     24  N   UNL     1      50.860   6.205  18.015  0.00  0.00    +0.000 N 
ATOM     25  C   UNL     1      50.063   5.675  17.028  0.00  0.00    +0.000 A 
ATOM     26  O   UNL     1      50.184   6.022  15.856  0.00  0.00    +0.000 OA
ATOM     27  C   UNL     1      49.127   4.665  17.486  0.00  0.00    +0.000 A 
ATOM     28  H   UNL     1      51.520   6.911  17.724  0.00  0.00    +0.000 HD
ENDBRANCH  15  18
ENDBRANCH   5  14
BRANCH   1  29
ATOM     29  C   UNL     1      44.729   4.947   9.908  0.00  0.00    +0.000 C 
BRANCH  29  32
ATOM     30  O   UNL     1      43.083   2.969  11.094  0.00  0.00    +0.000 OA
ATOM     31  C   UNL     1      44.173   2.674  10.629  0.00  0.00    +0.000 C 
ATOM     32  N   UNL     1      45.042   3.543  10.029  0.00  0.00    +0.000 N 
ATOM     33  H   UNL     1      45.931   3.200   9.689  0.00  0.00    +0.000 HD
ENDBRANCH  29  32
ENDBRANCH   1  29
TORSDOF 5
ENDMDL
MODEL 5
REMARK VINA RESULT:    -5.396      3.208      4.412
REMARK INTER + INTRA:          -8.076
REMARK INTER:                  -6.671
REMARK INTRA:                  -1.406
REMARK UNBOUND:                -1.103
REMARK  Name = 
REMARK  5 active torsions:
REMARK  status: ('A' for Active; 'I' for Inactive)
REMARK    1  A    between atoms: N_3  and  C_4
REMARK    2  A    between atoms: C_4  and  C_5
REMARK    3  A    between atoms: C_8  and  C_25
REMARK    4  A    between atoms: C_9  and  N_10
REMARK    5  A    between atoms: C_11  and  C_13
REMARK                            x       y       z     vdW  Elec       q    Type
REMARK                         _______ _______ _______ _____ _____    ______ ____
ROOT
ATOM      1  C   UNL     1      45.181   7.003  11.765  0.00  0.00    +0.000 C 
ATOM      2  C   UNL     1      46.191   6.483  11.032  0.00  0.00    +0.000 C 
ATOM      3  C   UNL     1      47.556   6.981  10.979  0.00  0.00    +0.000 C 
ATOM      4  C   UNL     1      48.257   7.435  12.044  0.00  0.00    +0.000 C 
ATOM      5  C   UNL     1      47.605   7.402  13.429  0.00  0.00    +0.000 C 
ATOM      6  C   UNL     1      46.413   8.321  13.465  0.00  0.00    +0.000 C 
ATOM      7  C   UNL     1      45.331   8.126  12.689  0.00  0.00    +0.000 C 
ENDROOT
BRANCH   4   8
ATOM      8  C   UNL     1      49.513   8.032  11.743  0.00  0.00    +0.000 A 
ATOM      9  C   UNL     1      49.941   9.322  11.519  0.00  0.00    +0.000 A 
ATOM     10  N   UNL     1      51.303   9.362  11.351  0.00  0.00    +0.000 NA
ATOM     11  C   UNL     1      51.699   8.116  11.466  0.00  0.00    +0.000 A 
ATOM     12  N   UNL     1      50.652   7.269  11.678  0.00  0.00    +0.000 N 
ATOM     13  H   UNL     1      50.705   6.264  11.795  0.00  0.00    +0.000 HD
ENDBRANCH   4   8
BRANCH   5  14
ATOM     14  N   UNL     1      48.536   7.787  14.460  0.00  0.00    +0.000 N 
ATOM     15  C   UNL     1      48.991   6.885  15.384  0.00  0.00    +0.000 C 
ATOM     16  O   UNL     1      48.620   5.712  15.390  0.00  0.00    +0.000 OA
ATOM     17  H   UNL     1      48.900   8.733  14.452  0.00  0.00    +0.000 HD
BRANCH  15  18
ATOM     18  C   UNL     1      49.997   7.361  16.341  0.00  0.00    +0.000 A 
ATOM     19  C   UNL     1      51.204   6.685  16.451  0.00  0.00    +0.000 A 
ATOM     20  S   UNL     1      52.256   7.349  17.614  0.00  0.00    +0.000 S 
ATOM     21  C   UNL     1      51.114   8.535  18.047  0.00  0.00    +0.000 A 
ATOM     22  N   UNL     1      51.374   9.416  19.048  0.00  0.00    +0.000 NA
ATOM     23  C   UNL     1      50.410  10.239  19.296  0.00  0.00    +0.000 A 
ATOM     24  N   UNL     1      49.218  10.272  18.619  0.00  0.00    +0.000 N 
ATOM     25  C   UNL     1      48.940   9.446  17.556  0.00  0.00    +0.000 A 
ATOM     26  O   UNL     1      47.915   9.582  16.894  0.00  0.00    +0.000 OA
ATOM     27  C   UNL     1      49.966   8.459  17.275  0.00  0.00    +0.000 A 
ATOM     28  H   UNL     1      48.520  10.968  18.838  0.00  0.00    +0.000 HD
ENDBRANCH  15  18
ENDBRANCH   5  14
BRANCH   1  29
ATOM     29  C   UNL     1      43.781   6.450  11.653  0.00  0.00    +0.000 C 
BRANCH  29  32
ATOM     30  O   UNL     1      43.624   3.682  12.236  0.00  0.00    +0.000 OA
ATOM     31  C   UNL     1      43.368   4.513  13.093  0.00  0.00    +0.000 C 
ATOM     32  N   UNL     1      43.420   5.869  12.925  0.00  0.00    +0.000 N 
ATOM     33  H   UNL     1      43.174   6.475  13.697  0.00  0.00    +0.000 HD
ENDBRANCH  29  32
ENDBRANCH   1  29
TORSDOF 5
ENDMDL
MODEL 6
REMARK VINA RESULT:    -5.321      3.180      8.818
REMARK INTER + INTRA:          -7.979
REMARK INTER:                  -7.476
REMARK INTRA:                  -0.503
REMARK UNBOUND:                -1.103
REMARK  Name = 
REMARK  5 active torsions:
REMARK  status: ('A' for Active; 'I' for Inactive)
REMARK    1  A    between atoms: N_3  and  C_4
REMARK    2  A    between atoms: C_4  and  C_5
REMARK    3  A    between atoms: C_8  and  C_25
REMARK    4  A    between atoms: C_9  and  N_10
REMARK    5  A    between atoms: C_11  and  C_13
REMARK                            x       y       z     vdW  Elec       q    Type
REMARK                         _______ _______ _______ _____ _____    ______ ____
ROOT
ATOM      1  C   UNL     1      50.290   7.837  18.981  0.00  0.00    +0.000 C 
ATOM      2  C   UNL     1      51.234   7.009  18.481  0.00  0.00    +0.000 C 
ATOM      3  C   UNL     1      51.020   5.650  18.009  0.00  0.00    +0.000 C 
ATOM      4  C   UNL     1      49.953   5.241  17.285  0.00  0.00    +0.000 C 
ATOM      5  C   UNL     1      48.890   6.269  16.886  0.00  0.00    +0.000 C 
ATOM      6  C   UNL     1      48.206   6.813  18.113  0.00  0.00    +0.000 C 
ATOM      7  C   UNL     1      48.867   7.509  19.055  0.00  0.00    +0.000 C 
ENDROOT
BRANCH   4   8
ATOM      8  C   UNL     1      49.857   3.837  17.072  0.00  0.00    +0.000 A 
ATOM      9  C   UNL     1      48.892   3.003  16.552  0.00  0.00    +0.000 A 
ATOM     10  N   UNL     1      49.347   1.708  16.492  0.00  0.00    +0.000 NA
ATOM     11  C   UNL     1      50.567   1.752  16.973  0.00  0.00    +0.000 A 
ATOM     12  N   UNL     1      50.914   3.012  17.361  0.00  0.00    +0.000 N 
ATOM     13  H   UNL     1      51.800   3.296  17.763  0.00  0.00    +0.000 HD
ENDBRANCH   4   8
BRANCH   5  14
ATOM     14  N   UNL     1      47.904   5.694  16.005  0.00  0.00    +0.000 N 
ATOM     15  C   UNL     1      47.915   5.948  14.659  0.00  0.00    +0.000 C 
ATOM     16  O   UNL     1      48.752   6.684  14.140  0.00  0.00    +0.000 OA
ATOM     17  H   UNL     1      47.232   5.043  16.394  0.00  0.00    +0.000 HD
BRANCH  15  18
ATOM     18  C   UNL     1      46.916   5.250  13.842  0.00  0.00    +0.000 A 
ATOM     19  C   UNL     1      46.943   3.864  13.773  0.00  0.00    +0.000 A 
ATOM     20  S   UNL     1      45.732   3.206  12.772  0.00  0.00    +0.000 S 
ATOM     21  C   UNL     1      45.160   4.755  12.356  0.00  0.00    +0.000 A 
ATOM     22  N   UNL     1      44.142   4.904  11.469  0.00  0.00    +0.000 NA
ATOM     23  C   UNL     1      43.831   6.131  11.217  0.00  0.00    +0.000 A 
ATOM     24  N   UNL     1      44.434   7.222  11.788  0.00  0.00    +0.000 N 
ATOM     25  C   UNL     1      45.419   7.117  12.742  0.00  0.00    +0.000 A 
ATOM     26  O   UNL     1      45.852   8.109  13.323  0.00  0.00    +0.000 OA
ATOM     27  C   UNL     1      45.850   5.759  13.016  0.00  0.00    +0.000 A 
ATOM     28  H   UNL     1      44.115   8.157  11.577  0.00  0.00    +0.000 HD
ENDBRANCH  15  18
ENDBRANCH   5  14
BRANCH   1  29
ATOM     29  C   UNL     1      50.664   9.192  19.531  0.00  0.00    +0.000 C 
BRANCH  29  32
ATOM     30  O   UNL     1      49.174  11.119  20.979  0.00  0.00    +0.000 OA
ATOM     31  C   UNL     1      49.092  11.055  19.762  0.00  0.00    +0.000 C 
ATOM     32  N   UNL     1      49.769  10.174  18.965  0.00  0.00    +0.000 N 
ATOM     33  H   UNL     1      49.619  10.193  17.965  0.00  0.00    +0.000 HD
ENDBRANCH  29  32
ENDBRANCH   1  29
TORSDOF 5
ENDMDL
MODEL 7
REMARK VINA RESULT:    -5.318      2.828      4.874
REMARK INTER + INTRA:          -7.975
REMARK INTER:                  -6.470
REMARK INTRA:                  -1.505
REMARK UNBOUND:                -1.103
REMARK  Name = 
REMARK  5 active torsions:
REMARK  status: ('A' for Active; 'I' for Inactive)
REMARK    1  A    between atoms: N_3  and  C_4
REMARK    2  A    between atoms: C_4  and  C_5
REMARK    3  A    between atoms: C_8  and  C_25
REMARK    4  A    between atoms: C_9  and  N_10
REMARK    5  A    between atoms: C_11  and  C_13
REMARK                            x       y       z     vdW  Elec       q    Type
REMARK                         _______ _______ _______ _____ _____    ______ ____
ROOT
ATOM      1  C   UNL     1      46.046   5.747  12.042  0.00  0.00    +0.000 C 
ATOM      2  C   UNL     1      45.377   5.057  12.992  0.00  0.00    +0.000 C 
ATOM      3  C   UNL     1      45.965   4.397  14.147  0.00  0.00    +0.000 C 
ATOM      4  C   UNL     1      46.972   4.902  14.898  0.00  0.00    +0.000 C 
ATOM      5  C   UNL     1      47.532   6.285  14.553  0.00  0.00    +0.000 C 
ATOM      6  C   UNL     1      48.180   6.260  13.195  0.00  0.00    +0.000 C 
ATOM      7  C   UNL     1      47.486   5.999  12.072  0.00  0.00    +0.000 C 
ENDROOT
BRANCH   4   8
ATOM      8  C   UNL     1      47.509   4.019  15.876  0.00  0.00    +0.000 A 
ATOM      9  C   UNL     1      48.382   2.954  15.841  0.00  0.00    +0.000 A 
ATOM     10  N   UNL     1      48.641   2.493  17.108  0.00  0.00    +0.000 NA
ATOM     11  C   UNL     1      47.933   3.261  17.903  0.00  0.00    +0.000 A 
ATOM     12  N   UNL     1      47.211   4.184  17.205  0.00  0.00    +0.000 N 
ATOM     13  H   UNL     1      46.590   4.883  17.596  0.00  0.00    +0.000 HD
ENDBRANCH   4   8
BRANCH   5  14
ATOM     14  N   UNL     1      48.494   6.724  15.534  0.00  0.00    +0.000 N 
ATOM     15  C   UNL     1      48.641   8.049  15.846  0.00  0.00    +0.000 C 
ATOM     16  O   UNL     1      47.975   8.926  15.301  0.00  0.00    +0.000 OA
ATOM     17  H   UNL     1      49.023   6.021  16.038  0.00  0.00    +0.000 HD
BRANCH  15  18
ATOM     18  C   UNL     1      49.592   8.379  16.914  0.00  0.00    +0.000 A 
ATOM     19  C   UNL     1      50.674   9.200  16.630  0.00  0.00    +0.000 A 
ATOM     20  S   UNL     1      51.693   9.476  17.967  0.00  0.00    +0.000 S 
ATOM     21  C   UNL     1      50.749   8.465  18.961  0.00  0.00    +0.000 A 
ATOM     22  N   UNL     1      51.112   8.223  20.248  0.00  0.00    +0.000 NA
ATOM     23  C   UNL     1      50.327   7.413  20.878  0.00  0.00    +0.000 A 
ATOM     24  N   UNL     1      49.202   6.841  20.342  0.00  0.00    +0.000 N 
ATOM     25  C   UNL     1      48.760   7.113  19.069  0.00  0.00    +0.000 A 
ATOM     26  O   UNL     1      47.685   6.681  18.662  0.00  0.00    +0.000 OA
ATOM     27  C   UNL     1      49.640   7.969  18.295  0.00  0.00    +0.000 A 
ATOM     28  H   UNL     1      48.610   6.246  20.903  0.00  0.00    +0.000 HD
ENDBRANCH  15  18
ENDBRANCH   5  14
BRANCH   1  29
ATOM     29  C   UNL     1      45.325   6.300  10.837  0.00  0.00    +0.000 C 
BRANCH  29  32
ATOM     30  O   UNL     1      46.257   5.077   8.457  0.00  0.00    +0.000 OA
ATOM     31  C   UNL     1      45.228   4.693   8.992  0.00  0.00    +0.000 C 
ATOM     32  N   UNL     1      44.693   5.203  10.143  0.00  0.00    +0.000 N 
ATOM     33  H   UNL     1      43.826   4.823  10.498  0.00  0.00    +0.000 HD
ENDBRANCH  29  32
ENDBRANCH   1  29
TORSDOF 5
ENDMDL
MODEL 8
REMARK VINA RESULT:    -5.166      3.586      5.755
REMARK INTER + INTRA:          -7.779
REMARK INTER:                  -6.706
REMARK INTRA:                  -1.073
REMARK UNBOUND:                -1.103
REMARK  Name = 
REMARK  5 active torsions:
REMARK  status: ('A' for Active; 'I' for Inactive)
REMARK    1  A    between atoms: N_3  and  C_4
REMARK    2  A    between atoms: C_4  and  C_5
REMARK    3  A    between atoms: C_8  and  C_25
REMARK    4  A    between atoms: C_9  and  N_10
REMARK    5  A    between atoms: C_11  and  C_13
REMARK                            x       y       z     vdW  Elec       q    Type
REMARK                         _______ _______ _______ _____ _____    ______ ____
ROOT
ATOM      1  C   UNL     1      49.801   9.010  11.719  0.00  0.00    +0.000 C 
ATOM      2  C   UNL     1      48.504   8.792  11.407  0.00  0.00    +0.000 C 
ATOM      3  C   UNL     1      47.676   7.699  11.892  0.00  0.00    +0.000 C 
ATOM      4  C   UNL     1      47.689   7.221  13.158  0.00  0.00    +0.000 C 
ATOM      5  C   UNL     1      48.607   7.883  14.191  0.00  0.00    +0.000 C 
ATOM      6  C   UNL     1      50.049   7.691  13.804  0.00  0.00    +0.000 C 
ATOM      7  C   UNL     1      50.562   8.201  12.670  0.00  0.00    +0.000 C 
ENDROOT
BRANCH   4   8
ATOM      8  C   UNL     1      46.926   6.040  13.376  0.00  0.00    +0.000 A 
ATOM      9  C   UNL     1      47.227   4.753  13.765  0.00  0.00    +0.000 A 
ATOM     10  N   UNL     1      46.084   4.006  13.907  0.00  0.00    +0.000 NA
ATOM     11  C   UNL     1      45.102   4.823  13.605  0.00  0.00    +0.000 A 
ATOM     12  N   UNL     1      45.560   6.057  13.253  0.00  0.00    +0.000 N 
ATOM     13  H   UNL     1      44.995   6.853  12.977  0.00  0.00    +0.000 HD
ENDBRANCH   4   8
BRANCH   5  14
ATOM     14  N   UNL     1      48.390   7.343  15.510  0.00  0.00    +0.000 N 
ATOM     15  C   UNL     1      48.749   8.039  16.634  0.00  0.00    +0.000 C 
ATOM     16  O   UNL     1      49.284   9.145  16.574  0.00  0.00    +0.000 OA
ATOM     17  H   UNL     1      47.906   6.457  15.595  0.00  0.00    +0.000 HD
BRANCH  15  18
ATOM     18  C   UNL     1      48.413   7.435  17.927  0.00  0.00    +0.000 A 
ATOM     19  C   UNL     1      47.807   8.213  18.904  0.00  0.00    +0.000 A 
ATOM     20  S   UNL     1      47.496   7.372  20.352  0.00  0.00    +0.000 S 
ATOM     21  C   UNL     1      48.207   5.951  19.742  0.00  0.00    +0.000 A 
ATOM     22  N   UNL     1      48.315   4.840  20.517  0.00  0.00    +0.000 NA
ATOM     23  C   UNL     1      48.904   3.845  19.943  0.00  0.00    +0.000 A 
ATOM     24  N   UNL     1      49.377   3.855  18.656  0.00  0.00    +0.000 N 
ATOM     25  C   UNL     1      49.227   4.932  17.814  0.00  0.00    +0.000 A 
ATOM     26  O   UNL     1      49.550   4.866  16.631  0.00  0.00    +0.000 OA
ATOM     27  C   UNL     1      48.626   6.100  18.430  0.00  0.00    +0.000 A 
ATOM     28  H   UNL     1      49.793   3.028  18.253  0.00  0.00    +0.000 HD
ENDBRANCH  15  18
ENDBRANCH   5  14
BRANCH   1  29
ATOM     29  C   UNL     1      50.575  10.129  11.067  0.00  0.00    +0.000 C 
BRANCH  29  32
ATOM     30  O   UNL     1      52.466  10.030   8.959  0.00  0.00    +0.000 OA
ATOM     31  C   UNL     1      52.808   9.815  10.112  0.00  0.00    +0.000 C 
ATOM     32  N   UNL     1      51.985   9.845  11.203  0.00  0.00    +0.000 N 
ATOM     33  H   UNL     1      52.364   9.637  12.117  0.00  0.00    +0.000 HD
ENDBRANCH  29  32
ENDBRANCH   1  29
TORSDOF 5
ENDMDL
MODEL 9
REMARK VINA RESULT:    -5.120      3.345      5.923
REMARK INTER + INTRA:          -7.719
REMARK INTER:                  -6.586
REMARK INTRA:                  -1.133
REMARK UNBOUND:                -1.103
REMARK  Name = 
REMARK  5 active torsions:
REMARK  status: ('A' for Active; 'I' for Inactive)
REMARK    1  A    between atoms: N_3  and  C_4
REMARK    2  A    between atoms: C_4  and  C_5
REMARK    3  A    between atoms: C_8  and  C_25
REMARK    4  A    between atoms: C_9  and  N_10
REMARK    5  A    between atoms: C_11  and  C_13
REMARK                            x       y       z     vdW  Elec       q    Type
REMARK                         _______ _______ _______ _____ _____    ______ ____
ROOT
ATOM      1  C   UNL     1      50.719  10.105  11.238  0.00  0.00    +0.000 C 
ATOM      2  C   UNL     1      49.437  10.526  11.164  0.00  0.00    +0.000 C 
ATOM      3  C   UNL     1      48.255   9.729  11.452  0.00  0.00    +0.000 C 
ATOM      4  C   UNL     1      48.146   8.845  12.470  0.00  0.00    +0.000 C 
ATOM      5  C   UNL     1      49.326   8.673  13.432  0.00  0.00    +0.000 C 
ATOM      6  C   UNL     1      50.516   8.113  12.700  0.00  0.00    +0.000 C 
ATOM      7  C   UNL     1      51.121   8.777  11.699  0.00  0.00    +0.000 C 
ENDROOT
BRANCH   4   8
ATOM      8  C   UNL     1      46.965   8.050  12.470  0.00  0.00    +0.000 A 
ATOM      9  C   UNL     1      45.678   8.231  12.925  0.00  0.00    +0.000 A 
ATOM     10  N   UNL     1      44.886   7.160  12.590  0.00  0.00    +0.000 NA
ATOM     11  C   UNL     1      45.680   6.337  11.946  0.00  0.00    +0.000 A 
ATOM     12  N   UNL     1      46.953   6.817  11.868  0.00  0.00    +0.000 N 
ATOM     13  H   UNL     1      47.742   6.362  11.423  0.00  0.00    +0.000 HD
ENDBRANCH   4   8
BRANCH   5  14
ATOM     14  N   UNL     1      48.988   7.803  14.531  0.00  0.00    +0.000 N 
ATOM     15  C   UNL     1      49.876   7.553  15.543  0.00  0.00    +0.000 C 
ATOM     16  O   UNL     1      51.004   8.043  15.557  0.00  0.00    +0.000 OA
ATOM     17  H   UNL     1      48.049   7.424  14.575  0.00  0.00    +0.000 HD
BRANCH  15  18
ATOM     18  C   UNL     1      49.404   6.717  16.652  0.00  0.00    +0.000 A 
ATOM     19  C   UNL     1      49.818   7.006  17.945  0.00  0.00    +0.000 A 
ATOM     20  S   UNL     1      49.198   5.936  19.117  0.00  0.00    +0.000 S 
ATOM     21  C   UNL     1      48.394   5.018  17.930  0.00  0.00    +0.000 A 
ATOM     22  N   UNL     1      47.700   3.901  18.269  0.00  0.00    +0.000 NA
ATOM     23  C   UNL     1      47.167   3.281  17.269  0.00  0.00    +0.000 A 
ATOM     24  N   UNL     1      47.250   3.691  15.963  0.00  0.00    +0.000 N 
ATOM     25  C   UNL     1      47.881   4.852  15.583  0.00  0.00    +0.000 A 
ATOM     26  O   UNL     1      47.832   5.254  14.424  0.00  0.00    +0.000 OA
ATOM     27  C   UNL     1      48.551   5.555  16.662  0.00  0.00    +0.000 A 
ATOM     28  H   UNL     1      46.776   3.181  15.232  0.00  0.00    +0.000 HD
ENDBRANCH  15  18
ENDBRANCH   5  14
BRANCH   1  29
ATOM     29  C   UNL     1      51.854  11.005  10.815  0.00  0.00    +0.000 C 
BRANCH  29  32
ATOM     30  O   UNL     1      53.430   9.483   9.020  0.00  0.00    +0.000 OA
ATOM     31  C   UNL     1      52.651  10.325   8.602  0.00  0.00    +0.000 C 
ATOM     32  N   UNL     1      51.839  11.108   9.375  0.00  0.00    +0.000 N 
ATOM     33  H   UNL     1      51.237  11.789   8.931  0.00  0.00    +0.000 HD
ENDBRANCH  29  32
ENDBRANCH   1  29
TORSDOF 5
ENDMDL
