MODEL 1
REMARK VINA RESULT:    -7.264      0.000      0.000
REMARK INTER + INTRA:          -9.840
REMARK INTER:                  -9.175
REMARK INTRA:                  -0.665
REMARK UNBOUND:                -0.665
REMARK  Name = 
REMARK  5 active torsions:
REMARK  status: ('A' for Active; 'I' for Inactive)
REMARK    1  A    between atoms: N_1  and  C_2
REMARK    2  A    between atoms: C_2  and  C_3
REMARK    3  A    between atoms: C_3  and  C_4
REMARK    4  A    between atoms: C_8  and  C_9
REMARK    5  A    between atoms: C_9  and  N_10
REMARK                            x       y       z     vdW  Elec       q    Type
REMARK                         _______ _______ _______ _____ _____    ______ ____
ROOT
ATOM      1  C   UNL     1      45.856   3.470   8.021  0.00  0.00    +0.000 A 
ATOM      2  C   UNL     1      45.683   2.122   8.313  0.00  0.00    +0.000 A 
ATOM      3  N   UNL     1      44.852   1.656   9.270  0.00  0.00    +0.000 NA
ATOM      4  C   UNL     1      44.160   2.577   9.975  0.00  0.00    +0.000 A 
ATOM      5  C   UNL     1      44.255   3.951   9.777  0.00  0.00    +0.000 A 
ATOM      6  C   UNL     1      45.118   4.392   8.768  0.00  0.00    +0.000 A 
ENDROOT
BRANCH   1   7
ATOM      7  C   UNL     1      46.782   3.908   6.918  0.00  0.00    +0.000 C 
BRANCH   7   8
ATOM      8  C   UNL     1      47.203   2.725   6.041  0.00  0.00    +0.000 C 
BRANCH   8   9
ATOM      9  N   UNL     1      48.637   2.470   6.149  0.00  0.00    +0.000 NA
ATOM     10  H   UNL     1      49.060   3.190   6.736  0.00  0.00    +0.000 HD
ATOM     11  H   UNL     1      49.074   2.564   5.233  0.00  0.00    +0.000 HD
ENDBRANCH   8   9
ENDBRANCH   7   8
ENDBRANCH   1   7
BRANCH   5  12
ATOM     12  C   UNL     1      43.533   4.903  10.678  0.00  0.00    +0.000 C 
BRANCH  12  13
ATOM     13  N   UNL     1      44.403   5.748  11.499  0.00  0.00    +0.000 N 
ATOM     14  C   UNL     1      44.588   7.093  11.269  0.00  0.00    +0.000 A 
ATOM     15  C   UNL     1      45.808   7.448  11.795  0.00  0.00    +0.000 A 
ATOM     16  C   UNL     1      46.349   6.307  12.446  0.00  0.00    +0.000 A 
ATOM     17  C   UNL     1      47.554   6.047  13.114  0.00  0.00    +0.000 A 
ATOM     18  N   UNL     1      47.768   4.847  13.709  0.00  0.00    +0.000 NA
ATOM     19  C   UNL     1      46.796   3.914  13.653  0.00  0.00    +0.000 A 
ATOM     20  C   UNL     1      45.592   4.054  12.977  0.00  0.00    +0.000 A 
ATOM     21  C   UNL     1      45.399   5.284  12.341  0.00  0.00    +0.000 A 
ENDBRANCH  12  13
ENDBRANCH   5  12
TORSDOF 5
ENDMDL
MODEL 2
REMARK VINA RESULT:    -6.744      1.397      2.241
REMARK INTER + INTRA:          -9.183
REMARK INTER:                  -8.743
REMARK INTRA:                  -0.440
REMARK UNBOUND:                -0.665
REMARK  Name = 
REMARK  5 active torsions:
REMARK  status: ('A' for Active; 'I' for Inactive)
REMARK    1  A    between atoms: N_1  and  C_2
REMARK    2  A    between atoms: C_2  and  C_3
REMARK    3  A    between atoms: C_3  and  C_4
REMARK    4  A    between atoms: C_8  and  C_9
REMARK    5  A    between atoms: C_9  and  N_10
REMARK                            x       y       z     vdW  Elec       q    Type
REMARK                         _______ _______ _______ _____ _____    ______ ____
ROOT
ATOM      1  C   UNL     1      45.733   3.284   8.039  0.00  0.00    +0.000 A 
ATOM      2  C   UNL     1      44.894   2.234   8.398  0.00  0.00    +0.000 A 
ATOM      3  N   UNL     1      44.111   2.234   9.497  0.00  0.00    +0.000 NA
ATOM      4  C   UNL     1      44.165   3.331  10.283  0.00  0.00    +0.000 A 
ATOM      5  C   UNL     1      44.968   4.438  10.030  0.00  0.00    +0.000 A 
ATOM      6  C   UNL     1      45.756   4.405   8.875  0.00  0.00    +0.000 A 
ENDROOT
BRANCH   1   7
ATOM      7  C   UNL     1      46.556   3.220   6.780  0.00  0.00    +0.000 C 
BRANCH   7   8
ATOM      8  C   UNL     1      47.747   2.271   6.942  0.00  0.00    +0.000 C 
BRANCH   8   9
ATOM      9  N   UNL     1      48.345   1.949   5.649  0.00  0.00    +0.000 NA
ATOM     10  H   UNL     1      48.287   2.766   5.041  0.00  0.00    +0.000 HD
ATOM     11  H   UNL     1      47.801   1.220   5.190  0.00  0.00    +0.000 HD
ENDBRANCH   8   9
ENDBRANCH   7   8
ENDBRANCH   1   7
BRANCH   5  12
ATOM     12  C   UNL     1      45.047   5.563  11.013  0.00  0.00    +0.000 C 
BRANCH  12  13
ATOM     13  N   UNL     1      46.048   5.387  12.068  0.00  0.00    +0.000 N 
ATOM     14  C   UNL     1      45.879   4.538  13.138  0.00  0.00    +0.000 A 
ATOM     15  C   UNL     1      46.663   4.996  14.170  0.00  0.00    +0.000 A 
ATOM     16  C   UNL     1      47.404   6.109  13.692  0.00  0.00    +0.000 A 
ATOM     17  C   UNL     1      48.316   6.997  14.279  0.00  0.00    +0.000 A 
ATOM     18  N   UNL     1      48.931   7.948  13.534  0.00  0.00    +0.000 NA
ATOM     19  C   UNL     1      48.654   8.018  12.215  0.00  0.00    +0.000 A 
ATOM     20  C   UNL     1      47.732   7.221  11.550  0.00  0.00    +0.000 A 
ATOM     21  C   UNL     1      47.082   6.266  12.338  0.00  0.00    +0.000 A 
ENDBRANCH  12  13
ENDBRANCH   5  12
TORSDOF 5
ENDMDL
MODEL 3
REMARK VINA RESULT:    -6.633      1.368      2.678
REMARK INTER + INTRA:          -9.043
REMARK INTER:                  -8.559
REMARK INTRA:                  -0.485
REMARK UNBOUND:                -0.665
REMARK  Name = 
REMARK  5 active torsions:
REMARK  status: ('A' for Active; 'I' for Inactive)
REMARK    1  A    between atoms: N_1  and  C_2
REMARK    2  A    between atoms: C_2  and  C_3
REMARK    3  A    between atoms: C_3  and  C_4
REMARK    4  A    between atoms: C_8  and  C_9
REMARK    5  A    between atoms: C_9  and  N_10
REMARK                            x       y       z     vdW  Elec       q    Type
REMARK                         _______ _______ _______ _____ _____    ______ ____
ROOT
ATOM      1  C   UNL     1      45.877   3.266   7.960  0.00  0.00    +0.000 A 
ATOM      2  C   UNL     1      45.533   1.974   8.342  0.00  0.00    +0.000 A 
ATOM      3  N   UNL     1      44.699   1.684   9.364  0.00  0.00    +0.000 NA
ATOM      4  C   UNL     1      44.182   2.731  10.042  0.00  0.00    +0.000 A 
ATOM      5  C   UNL     1      44.457   4.064   9.756  0.00  0.00    +0.000 A 
ATOM      6  C   UNL     1      45.316   4.323   8.683  0.00  0.00    +0.000 A 
ENDROOT
BRANCH   1   7
ATOM      7  C   UNL     1      46.793   3.507   6.790  0.00  0.00    +0.000 C 
BRANCH   7   8
ATOM      8  C   UNL     1      47.953   2.507   6.776  0.00  0.00    +0.000 C 
BRANCH   8   9
ATOM      9  N   UNL     1      48.406   2.242   5.413  0.00  0.00    +0.000 NA
ATOM     10  H   UNL     1      48.323   3.097   4.862  0.00  0.00    +0.000 HD
ATOM     11  H   UNL     1      47.788   1.563   4.970  0.00  0.00    +0.000 HD
ENDBRANCH   8   9
ENDBRANCH   7   8
ENDBRANCH   1   7
BRANCH   5  12
ATOM     12  C   UNL     1      43.926   5.156  10.629  0.00  0.00    +0.000 C 
BRANCH  12  13
ATOM     13  N   UNL     1      44.951   5.985  11.267  0.00  0.00    +0.000 N 
ATOM     14  C   UNL     1      45.932   5.476  12.089  0.00  0.00    +0.000 A 
ATOM     15  C   UNL     1      46.344   6.484  12.930  0.00  0.00    +0.000 A 
ATOM     16  C   UNL     1      45.659   7.670  12.554  0.00  0.00    +0.000 A 
ATOM     17  C   UNL     1      45.632   8.979  13.055  0.00  0.00    +0.000 A 
ATOM     18  N   UNL     1      44.913   9.942  12.429  0.00  0.00    +0.000 NA
ATOM     19  C   UNL     1      44.231   9.619  11.311  0.00  0.00    +0.000 A 
ATOM     20  C   UNL     1      44.153   8.346  10.764  0.00  0.00    +0.000 A 
ATOM     21  C   UNL     1      44.874   7.356  11.438  0.00  0.00    +0.000 A 
ENDBRANCH  12  13
ENDBRANCH   5  12
TORSDOF 5
ENDMDL
MODEL 4
REMARK VINA RESULT:    -6.562      1.452      5.883
REMARK INTER + INTRA:          -8.954
REMARK INTER:                  -8.915
REMARK INTRA:                  -0.038
REMARK UNBOUND:                -0.665
REMARK  Name = 
REMARK  5 active torsions:
REMARK  status: ('A' for Active; 'I' for Inactive)
REMARK    1  A    between atoms: N_1  and  C_2
REMARK    2  A    between atoms: C_2  and  C_3
REMARK    3  A    between atoms: C_3  and  C_4
REMARK    4  A    between atoms: C_8  and  C_9
REMARK    5  A    between atoms: C_9  and  N_10
REMARK                            x       y       z     vdW  Elec       q    Type
REMARK                         _______ _______ _______ _____ _____    ______ ____
ROOT
ATOM      1  C   UNL     1      46.101   6.185  12.510  0.00  0.00    +0.000 A 
ATOM      2  C   UNL     1      44.914   5.830  13.142  0.00  0.00    +0.000 A 
ATOM      3  N   UNL     1      43.880   5.223  12.522  0.00  0.00    +0.000 NA
ATOM      4  C   UNL     1      44.030   4.958  11.206  0.00  0.00    +0.000 A 
ATOM      5  C   UNL     1      45.167   5.270  10.468  0.00  0.00    +0.000 A 
ATOM      6  C   UNL     1      46.221   5.887  11.149  0.00  0.00    +0.000 A 
ENDROOT
BRANCH   1   7
ATOM      7  C   UNL     1      47.221   6.835  13.278  0.00  0.00    +0.000 C 
BRANCH   7   8
ATOM      8  C   UNL     1      48.374   7.233  12.353  0.00  0.00    +0.000 C 
BRANCH   8   9
ATOM      9  N   UNL     1      49.654   6.754  12.867  0.00  0.00    +0.000 NA
ATOM     10  H   UNL     1      50.037   7.448  13.509  0.00  0.00    +0.000 HD
ATOM     11  H   UNL     1      50.326   6.679  12.104  0.00  0.00    +0.000 HD
ENDBRANCH   8   9
ENDBRANCH   7   8
ENDBRANCH   1   7
BRANCH   5  12
ATOM     12  C   UNL     1      45.204   5.038   8.990  0.00  0.00    +0.000 C 
BRANCH  12  13
ATOM     13  N   UNL     1      45.154   3.630   8.589  0.00  0.00    +0.000 N 
ATOM     14  C   UNL     1      44.408   2.681   9.250  0.00  0.00    +0.000 A 
ATOM     15  C   UNL     1      44.982   1.453   9.016  0.00  0.00    +0.000 A 
ATOM     16  C   UNL     1      46.060   1.644   8.111  0.00  0.00    +0.000 A 
ATOM     17  C   UNL     1      47.021   0.793   7.549  0.00  0.00    +0.000 A 
ATOM     18  N   UNL     1      47.910   1.261   6.639  0.00  0.00    +0.000 NA
ATOM     19  C   UNL     1      47.845   2.560   6.279  0.00  0.00    +0.000 A 
ATOM     20  C   UNL     1      46.967   3.493   6.812  0.00  0.00    +0.000 A 
ATOM     21  C   UNL     1      46.078   3.002   7.773  0.00  0.00    +0.000 A 
ENDBRANCH  12  13
ENDBRANCH   5  12
TORSDOF 5
ENDMDL
MODEL 5
REMARK VINA RESULT:    -6.446      1.685      2.236
REMARK INTER + INTRA:          -8.807
REMARK INTER:                  -8.354
REMARK INTRA:                  -0.453
REMARK UNBOUND:                -0.665
REMARK  Name = 
REMARK  5 active torsions:
REMARK  status: ('A' for Active; 'I' for Inactive)
REMARK    1  A    between atoms: N_1  and  C_2
REMARK    2  A    between atoms: C_2  and  C_3
REMARK    3  A    between atoms: C_3  and  C_4
REMARK    4  A    between atoms: C_8  and  C_9
REMARK    5  A    between atoms: C_9  and  N_10
REMARK                            x       y       z     vdW  Elec       q    Type
REMARK                         _______ _______ _______ _____ _____    ______ ____
ROOT
ATOM      1  C   UNL     1      46.354   2.348   7.637  0.00  0.00    +0.000 A 
ATOM      2  C   UNL     1      46.644   3.668   7.307  0.00  0.00    +0.000 A 
ATOM      3  N   UNL     1      46.135   4.738   7.952  0.00  0.00    +0.000 NA
ATOM      4  C   UNL     1      45.292   4.487   8.977  0.00  0.00    +0.000 A 
ATOM      5  C   UNL     1      44.925   3.212   9.396  0.00  0.00    +0.000 A 
ATOM      6  C   UNL     1      45.483   2.129   8.708  0.00  0.00    +0.000 A 
ENDROOT
BRANCH   1   7
ATOM      7  C   UNL     1      46.985   1.207   6.885  0.00  0.00    +0.000 C 
BRANCH   7   8
ATOM      8  C   UNL     1      47.008  -0.071   7.728  0.00  0.00    +0.000 C 
BRANCH   8   9
ATOM      9  N   UNL     1      46.528  -1.218   6.962  0.00  0.00    +0.000 NA
ATOM     10  H   UNL     1      46.041  -1.858   7.589  0.00  0.00    +0.000 HD
ATOM     11  H   UNL     1      47.321  -1.740   6.591  0.00  0.00    +0.000 HD
ENDBRANCH   8   9
ENDBRANCH   7   8
ENDBRANCH   1   7
BRANCH   5  12
ATOM     12  C   UNL     1      43.900   3.028  10.470  0.00  0.00    +0.000 C 
BRANCH  12  13
ATOM     13  N   UNL     1      43.972   4.003  11.560  0.00  0.00    +0.000 N 
ATOM     14  C   UNL     1      43.203   5.145  11.607  0.00  0.00    +0.000 A 
ATOM     15  C   UNL     1      43.865   6.069  12.381  0.00  0.00    +0.000 A 
ATOM     16  C   UNL     1      45.033   5.447  12.898  0.00  0.00    +0.000 A 
ATOM     17  C   UNL     1      46.097   5.885  13.697  0.00  0.00    +0.000 A 
ATOM     18  N   UNL     1      47.063   5.021  14.096  0.00  0.00    +0.000 NA
ATOM     19  C   UNL     1      46.973   3.730  13.716  0.00  0.00    +0.000 A 
ATOM     20  C   UNL     1      45.990   3.208  12.887  0.00  0.00    +0.000 A 
ATOM     21  C   UNL     1      45.019   4.118  12.457  0.00  0.00    +0.000 A 
ENDBRANCH  12  13
ENDBRANCH   5  12
TORSDOF 5
ENDMDL
MODEL 6
REMARK VINA RESULT:    -6.129      1.900      5.453
REMARK INTER + INTRA:          -8.407
REMARK INTER:                  -7.820
REMARK INTRA:                  -0.587
REMARK UNBOUND:                -0.665
REMARK  Name = 
REMARK  5 active torsions:
REMARK  status: ('A' for Active; 'I' for Inactive)
REMARK    1  A    between atoms: N_1  and  C_2
REMARK    2  A    between atoms: C_2  and  C_3
REMARK    3  A    between atoms: C_3  and  C_4
REMARK    4  A    between atoms: C_8  and  C_9
REMARK    5  A    between atoms: C_9  and  N_10
REMARK                            x       y       z     vdW  Elec       q    Type
REMARK                         _______ _______ _______ _____ _____    ______ ____
ROOT
ATOM      1  C   UNL     1      48.156   7.210  12.154  0.00  0.00    +0.000 A 
ATOM      2  C   UNL     1      48.434   6.260  13.132  0.00  0.00    +0.000 A 
ATOM      3  N   UNL     1      47.569   5.299  13.520  0.00  0.00    +0.000 NA
ATOM      4  C   UNL     1      46.364   5.282  12.909  0.00  0.00    +0.000 A 
ATOM      5  C   UNL     1      45.973   6.181  11.923  0.00  0.00    +0.000 A 
ATOM      6  C   UNL     1      46.902   7.155  11.540  0.00  0.00    +0.000 A 
ENDROOT
BRANCH   1   7
ATOM      7  C   UNL     1      49.187   8.233  11.758  0.00  0.00    +0.000 C 
BRANCH   7   8
ATOM      8  C   UNL     1      50.471   7.565  11.256  0.00  0.00    +0.000 C 
BRANCH   8   9
ATOM      9  N   UNL     1      51.636   8.040  11.996  0.00  0.00    +0.000 NA
ATOM     10  H   UNL     1      52.389   7.357  11.907  0.00  0.00    +0.000 HD
ATOM     11  H   UNL     1      51.418   8.085  12.991  0.00  0.00    +0.000 HD
ENDBRANCH   8   9
ENDBRANCH   7   8
ENDBRANCH   1   7
BRANCH   5  12
ATOM     12  C   UNL     1      44.579   6.156  11.377  0.00  0.00    +0.000 C 
BRANCH  12  13
ATOM     13  N   UNL     1      44.161   4.867  10.823  0.00  0.00    +0.000 N 
ATOM     14  C   UNL     1      43.373   3.969  11.507  0.00  0.00    +0.000 A 
ATOM     15  C   UNL     1      43.623   2.715  11.000  0.00  0.00    +0.000 A 
ATOM     16  C   UNL     1      44.525   2.858   9.912  0.00  0.00    +0.000 A 
ATOM     17  C   UNL     1      45.162   1.955   9.051  0.00  0.00    +0.000 A 
ATOM     18  N   UNL     1      45.940   2.402   8.034  0.00  0.00    +0.000 NA
ATOM     19  C   UNL     1      46.080   3.733   7.863  0.00  0.00    +0.000 A 
ATOM     20  C   UNL     1      45.534   4.706   8.689  0.00  0.00    +0.000 A 
ATOM     21  C   UNL     1      44.762   4.229   9.752  0.00  0.00    +0.000 A 
ENDBRANCH  12  13
ENDBRANCH   5  12
TORSDOF 5
ENDMDL
MODEL 7
REMARK VINA RESULT:    -5.746      1.740      5.996
REMARK INTER + INTRA:          -7.923
REMARK INTER:                  -8.296
REMARK INTRA:                   0.373
REMARK UNBOUND:                -0.665
REMARK  Name = 
REMARK  5 active torsions:
REMARK  status: ('A' for Active; 'I' for Inactive)
REMARK    1  A    between atoms: N_1  and  C_2
REMARK    2  A    between atoms: C_2  and  C_3
REMARK    3  A    between atoms: C_3  and  C_4
REMARK    4  A    between atoms: C_8  and  C_9
REMARK    5  A    between atoms: C_9  and  N_10
REMARK                            x       y       z     vdW  Elec       q    Type
REMARK                         _______ _______ _______ _____ _____    ______ ____
ROOT
ATOM      1  C   UNL     1      44.992   5.179  12.544  0.00  0.00    +0.000 A 
ATOM      2  C   UNL     1      45.865   6.155  13.011  0.00  0.00    +0.000 A 
ATOM      3  N   UNL     1      46.686   6.877  12.218  0.00  0.00    +0.000 NA
ATOM      4  C   UNL     1      46.639   6.614  10.894  0.00  0.00    +0.000 A 
ATOM      5  C   UNL     1      45.810   5.659  10.313  0.00  0.00    +0.000 A 
ATOM      6  C   UNL     1      44.967   4.941  11.167  0.00  0.00    +0.000 A 
ENDROOT
BRANCH   1   7
ATOM      7  C   UNL     1      44.088   4.436  13.491  0.00  0.00    +0.000 C 
BRANCH   7   8
ATOM      8  C   UNL     1      43.092   3.553  12.734  0.00  0.00    +0.000 C 
BRANCH   8   9
ATOM      9  N   UNL     1      43.596   2.191  12.590  0.00  0.00    +0.000 NA
ATOM     10  H   UNL     1      43.289   1.813  11.694  0.00  0.00    +0.000 HD
ATOM     11  H   UNL     1      43.179   1.592  13.302  0.00  0.00    +0.000 HD
ENDBRANCH   8   9
ENDBRANCH   7   8
ENDBRANCH   1   7
BRANCH   5  12
ATOM     12  C   UNL     1      45.902   5.358   8.850  0.00  0.00    +0.000 C 
BRANCH  12  13
ATOM     13  N   UNL     1      45.548   3.986   8.483  0.00  0.00    +0.000 N 
ATOM     14  C   UNL     1      44.557   3.266   9.111  0.00  0.00    +0.000 A 
ATOM     15  C   UNL     1      44.839   1.929   8.953  0.00  0.00    +0.000 A 
ATOM     16  C   UNL     1      45.990   1.823   8.127  0.00  0.00    +0.000 A 
ATOM     17  C   UNL     1      46.758   0.748   7.662  0.00  0.00    +0.000 A 
ATOM     18  N   UNL     1      47.792   0.956   6.809  0.00  0.00    +0.000 NA
ATOM     19  C   UNL     1      48.060   2.217   6.411  0.00  0.00    +0.000 A 
ATOM     20  C   UNL     1      47.394   3.351   6.852  0.00  0.00    +0.000 A 
ATOM     21  C   UNL     1      46.351   3.124   7.756  0.00  0.00    +0.000 A 
ENDBRANCH  12  13
ENDBRANCH   5  12
TORSDOF 5
ENDMDL
MODEL 8
REMARK VINA RESULT:    -5.504      1.806      6.290
REMARK INTER + INTRA:          -7.617
REMARK INTER:                  -7.566
REMARK INTRA:                  -0.051
REMARK UNBOUND:                -0.665
REMARK  Name = 
REMARK  5 active torsions:
REMARK  status: ('A' for Active; 'I' for Inactive)
REMARK    1  A    between atoms: N_1  and  C_2
REMARK    2  A    between atoms: C_2  and  C_3
REMARK    3  A    between atoms: C_3  and  C_4
REMARK    4  A    between atoms: C_8  and  C_9
REMARK    5  A    between atoms: C_9  and  N_10
REMARK                            x       y       z     vdW  Elec       q    Type
REMARK                         _______ _______ _______ _____ _____    ______ ____
ROOT
ATOM      1  C   UNL     1      47.927   6.234  14.419  0.00  0.00    +0.000 A 
ATOM      2  C   UNL     1      47.625   5.063  15.106  0.00  0.00    +0.000 A 
ATOM      3  N   UNL     1      46.610   4.235  14.778  0.00  0.00    +0.000 NA
ATOM      4  C   UNL     1      45.854   4.589  13.716  0.00  0.00    +0.000 A 
ATOM      5  C   UNL     1      46.057   5.737  12.958  0.00  0.00    +0.000 A 
ATOM      6  C   UNL     1      47.126   6.563  13.322  0.00  0.00    +0.000 A 
ENDROOT
BRANCH   1   7
ATOM      7  C   UNL     1      49.095   7.090  14.831  0.00  0.00    +0.000 C 
BRANCH   7   8
ATOM      8  C   UNL     1      48.692   8.563  14.946  0.00  0.00    +0.000 C 
BRANCH   8   9
ATOM      9  N   UNL     1      48.006   8.826  16.208  0.00  0.00    +0.000 NA
ATOM     10  H   UNL     1      47.686   9.795  16.219  0.00  0.00    +0.000 HD
ATOM     11  H   UNL     1      48.664   8.741  16.982  0.00  0.00    +0.000 HD
ENDBRANCH   8   9
ENDBRANCH   7   8
ENDBRANCH   1   7
BRANCH   5  12
ATOM     12  C   UNL     1      45.104   6.108  11.866  0.00  0.00    +0.000 C 
BRANCH  12  13
ATOM     13  N   UNL     1      44.446   4.973  11.214  0.00  0.00    +0.000 N 
ATOM     14  C   UNL     1      43.562   4.138  11.860  0.00  0.00    +0.000 A 
ATOM     15  C   UNL     1      43.570   2.927  11.208  0.00  0.00    +0.000 A 
ATOM     16  C   UNL     1      44.419   3.050  10.075  0.00  0.00    +0.000 A 
ATOM     17  C   UNL     1      44.846   2.163   9.078  0.00  0.00    +0.000 A 
ATOM     18  N   UNL     1      45.626   2.595   8.057  0.00  0.00    +0.000 NA
ATOM     19  C   UNL     1      45.974   3.898   8.014  0.00  0.00    +0.000 A 
ATOM     20  C   UNL     1      45.646   4.843   8.976  0.00  0.00    +0.000 A 
ATOM     21  C   UNL     1      44.869   4.375  10.040  0.00  0.00    +0.000 A 
ENDBRANCH  12  13
ENDBRANCH   5  12
TORSDOF 5
ENDMDL
MODEL 9
REMARK VINA RESULT:    -5.475      2.194      3.405
REMARK INTER + INTRA:          -7.580
REMARK INTER:                  -7.012
REMARK INTRA:                  -0.567
REMARK UNBOUND:                -0.665
REMARK  Name = 
REMARK  5 active torsions:
REMARK  status: ('A' for Active; 'I' for Inactive)
REMARK    1  A    between atoms: N_1  and  C_2
REMARK    2  A    between atoms: C_2  and  C_3
REMARK    3  A    between atoms: C_3  and  C_4
REMARK    4  A    between atoms: C_8  and  C_9
REMARK    5  A    between atoms: C_9  and  N_10
REMARK                            x       y       z     vdW  Elec       q    Type
REMARK                         _______ _______ _______ _____ _____    ______ ____
ROOT
ATOM      1  C   UNL     1      44.575   3.973   9.742  0.00  0.00    +0.000 A 
ATOM      2  C   UNL     1      43.999   2.856  10.335  0.00  0.00    +0.000 A 
ATOM      3  N   UNL     1      43.700   2.766  11.649  0.00  0.00    +0.000 NA
ATOM      4  C   UNL     1      43.991   3.841  12.413  0.00  0.00    +0.000 A 
ATOM      5  C   UNL     1      44.571   5.011  11.934  0.00  0.00    +0.000 A 
ATOM      6  C   UNL     1      44.855   5.068  10.565  0.00  0.00    +0.000 A 
ENDROOT
BRANCH   1   7
ATOM      7  C   UNL     1      44.853   4.005   8.263  0.00  0.00    +0.000 C 
BRANCH   7   8
ATOM      8  C   UNL     1      46.357   3.959   7.978  0.00  0.00    +0.000 C 
BRANCH   8   9
ATOM      9  N   UNL     1      46.628   4.092   6.549  0.00  0.00    +0.000 NA
ATOM     10  H   UNL     1      47.463   4.664   6.419  0.00  0.00    +0.000 HD
ATOM     11  H   UNL     1      45.868   4.602   6.100  0.00  0.00    +0.000 HD
ENDBRANCH   8   9
ENDBRANCH   7   8
ENDBRANCH   1   7
BRANCH   5  12
ATOM     12  C   UNL     1      44.959   6.110  12.872  0.00  0.00    +0.000 C 
BRANCH  12  13
ATOM     13  N   UNL     1      46.333   6.593  12.717  0.00  0.00    +0.000 N 
ATOM     14  C   UNL     1      47.437   5.881  13.130  0.00  0.00    +0.000 A 
ATOM     15  C   UNL     1      48.454   6.777  13.365  0.00  0.00    +0.000 A 
ATOM     16  C   UNL     1      47.988   8.068  13.000  0.00  0.00    +0.000 A 
ATOM     17  C   UNL     1      48.543   9.354  13.052  0.00  0.00    +0.000 A 
ATOM     18  N   UNL     1      47.867  10.418  12.555  0.00  0.00    +0.000 NA
ATOM     19  C   UNL     1      46.653  10.214  12.003  0.00  0.00    +0.000 A 
ATOM     20  C   UNL     1      45.996   8.993  11.948  0.00  0.00    +0.000 A 
ATOM     21  C   UNL     1      46.693   7.910  12.493  0.00  0.00    +0.000 A 
ENDBRANCH  12  13
ENDBRANCH   5  12
TORSDOF 5
ENDMDL
