MODEL 1
REMARK VINA RESULT:    -8.606      0.000      0.000
REMARK INTER + INTRA:         -12.584
REMARK INTER:                 -11.624
REMARK INTRA:                  -0.960
REMARK UNBOUND:                -0.960
REMARK  Name = 
REMARK  6 active torsions:
REMARK  status: ('A' for Active; 'I' for Inactive)
REMARK    1  A    between atoms: C_2  and  C_4
REMARK    2  A    between atoms: C_7  and  N_8
REMARK    3  A    between atoms: N_8  and  C_9
REMARK    4  A    between atoms: C_9  and  C_10
REMARK    5  A    between atoms: C_10  and  C_11
REMARK    6  A    between atoms: C_15  and  C_16
REMARK                            x       y       z     vdW  Elec       q    Type
REMARK                         _______ _______ _______ _____ _____    ______ ____
ROOT
ATOM      1  C   UNL     1      43.045   4.223  11.358  0.00  0.00    +0.000 C 
ENDROOT
BRANCH   1   2
ATOM      2  N   UNL     1      43.700   4.743  10.162  0.00  0.00    +0.000 N 
ATOM      3  H   UNL     1      43.145   5.396   9.613  0.00  0.00    +0.000 HD
BRANCH   2   7
ATOM      4  C   UNL     1      46.284   2.325   7.862  0.00  0.00    +0.000 A 
ATOM      5  C   UNL     1      45.403   1.722   8.761  0.00  0.00    +0.000 A 
ATOM      6  C   UNL     1      44.522   2.510   9.513  0.00  0.00    +0.000 A 
ATOM      7  C   UNL     1      44.479   3.902   9.365  0.00  0.00    +0.000 A 
ATOM      8  C   UNL     1      45.369   4.489   8.455  0.00  0.00    +0.000 A 
ATOM      9  C   UNL     1      46.269   3.713   7.715  0.00  0.00    +0.000 A 
BRANCH   4  11
ATOM     10  N   UNL     1      48.380   2.203   6.624  0.00  0.00    +0.000 N 
ATOM     11  C   UNL     1      47.289   1.536   7.104  0.00  0.00    +0.000 C 
ATOM     12  O   UNL     1      47.161   0.330   6.930  0.00  0.00    +0.000 OA
ATOM     13  H   UNL     1      49.094   1.635   6.183  0.00  0.00    +0.000 HD
ATOM     14  H   UNL     1      48.643   3.121   6.949  0.00  0.00    +0.000 HD
ENDBRANCH   4  11
ENDBRANCH   2   7
ENDBRANCH   1   2
BRANCH   1  15
ATOM     15  C   UNL     1      43.199   5.199  12.528  0.00  0.00    +0.000 C 
BRANCH  15  16
ATOM     16  C   UNL     1      44.657   5.481  12.800  0.00  0.00    +0.000 A 
ATOM     17  C   UNL     1      45.495   4.478  13.292  0.00  0.00    +0.000 A 
ATOM     18  C   UNL     1      46.848   4.733  13.485  0.00  0.00    +0.000 A 
ATOM     19  C   UNL     1      47.377   5.988  13.171  0.00  0.00    +0.000 A 
ATOM     20  C   UNL     1      46.573   7.015  12.643  0.00  0.00    +0.000 A 
ATOM     21  C   UNL     1      45.202   6.737  12.482  0.00  0.00    +0.000 A 
BRANCH  20  22
ATOM     22  C   UNL     1      47.149   8.313  12.237  0.00  0.00    +0.000 A 
ATOM     23  C   UNL     1      48.498   8.463  11.878  0.00  0.00    +0.000 A 
ATOM     24  C   UNL     1      49.005   9.714  11.528  0.00  0.00    +0.000 A 
ATOM     25  C   UNL     1      48.150  10.796  11.535  0.00  0.00    +0.000 A 
ATOM     26  N   UNL     1      46.847  10.717  11.873  0.00  0.00    +0.000 NA
ATOM     27  C   UNL     1      46.388   9.486  12.217  0.00  0.00    +0.000 A 
ENDBRANCH  20  22
ENDBRANCH  15  16
ENDBRANCH   1  15
TORSDOF 6
ENDMDL
MODEL 2
REMARK VINA RESULT:    -8.390      2.389      3.833
REMARK INTER + INTRA:         -12.293
REMARK INTER:                 -11.269
REMARK INTRA:                  -1.023
REMARK UNBOUND:                -0.960
REMARK  Name = 
REMARK  6 active torsions:
REMARK  status: ('A' for Active; 'I' for Inactive)
REMARK    1  A    between atoms: C_2  and  C_4
REMARK    2  A    between atoms: C_7  and  N_8
REMARK    3  A    between atoms: N_8  and  C_9
REMARK    4  A    between atoms: C_9  and  C_10
REMARK    5  A    between atoms: C_10  and  C_11
REMARK    6  A    between atoms: C_15  and  C_16
REMARK                            x       y       z     vdW  Elec       q    Type
REMARK                         _______ _______ _______ _____ _____    ______ ____
ROOT
ATOM      1  C   UNL     1      43.453   5.158  10.725  0.00  0.00    +0.000 C 
ENDROOT
BRANCH   1   2
ATOM      2  N   UNL     1      43.731   3.738  10.530  0.00  0.00    +0.000 N 
ATOM      3  H   UNL     1      43.872   3.203  11.383  0.00  0.00    +0.000 HD
BRANCH   2   7
ATOM      4  C   UNL     1      46.464   2.631   7.510  0.00  0.00    +0.000 A 
ATOM      5  C   UNL     1      45.871   1.639   8.293  0.00  0.00    +0.000 A 
ATOM      6  C   UNL     1      44.944   1.990   9.282  0.00  0.00    +0.000 A 
ATOM      7  C   UNL     1      44.566   3.322   9.492  0.00  0.00    +0.000 A 
ATOM      8  C   UNL     1      45.170   4.304   8.693  0.00  0.00    +0.000 A 
ATOM      9  C   UNL     1      46.115   3.967   7.717  0.00  0.00    +0.000 A 
BRANCH   4  11
ATOM     10  N   UNL     1      47.549   3.077   5.374  0.00  0.00    +0.000 N 
ATOM     11  C   UNL     1      47.510   2.312   6.505  0.00  0.00    +0.000 C 
ATOM     12  O   UNL     1      48.323   1.413   6.687  0.00  0.00    +0.000 OA
ATOM     13  H   UNL     1      48.319   2.900   4.740  0.00  0.00    +0.000 HD
ATOM     14  H   UNL     1      47.071   3.962   5.299  0.00  0.00    +0.000 HD
ENDBRANCH   4  11
ENDBRANCH   2   7
ENDBRANCH   1   2
BRANCH   1  15
ATOM     15  C   UNL     1      43.684   5.559  12.185  0.00  0.00    +0.000 C 
BRANCH  15  16
ATOM     16  C   UNL     1      45.159   5.708  12.470  0.00  0.00    +0.000 A 
ATOM     17  C   UNL     1      45.976   6.457  11.619  0.00  0.00    +0.000 A 
ATOM     18  C   UNL     1      47.322   6.632  11.922  0.00  0.00    +0.000 A 
ATOM     19  C   UNL     1      47.858   6.076  13.087  0.00  0.00    +0.000 A 
ATOM     20  C   UNL     1      47.061   5.342  13.986  0.00  0.00    +0.000 A 
ATOM     21  C   UNL     1      45.709   5.158  13.641  0.00  0.00    +0.000 A 
BRANCH  20  22
ATOM     22  C   UNL     1      47.611   4.823  15.255  0.00  0.00    +0.000 A 
ATOM     23  C   UNL     1      47.433   3.493  15.668  0.00  0.00    +0.000 A 
ATOM     24  C   UNL     1      47.946   3.054  16.888  0.00  0.00    +0.000 A 
ATOM     25  C   UNL     1      48.638   3.952  17.673  0.00  0.00    +0.000 A 
ATOM     26  N   UNL     1      48.838   5.242  17.333  0.00  0.00    +0.000 NA
ATOM     27  C   UNL     1      48.318   5.639  16.144  0.00  0.00    +0.000 A 
ENDBRANCH  20  22
ENDBRANCH  15  16
ENDBRANCH   1  15
TORSDOF 6
ENDMDL
MODEL 3
REMARK VINA RESULT:    -8.365      1.416      1.914
REMARK INTER + INTRA:         -12.259
REMARK INTER:                 -11.191
REMARK INTRA:                  -1.068
REMARK UNBOUND:                -0.960
REMARK  Name = 
REMARK  6 active torsions:
REMARK  status: ('A' for Active; 'I' for Inactive)
REMARK    1  A    between atoms: C_2  and  C_4
REMARK    2  A    between atoms: C_7  and  N_8
REMARK    3  A    between atoms: N_8  and  C_9
REMARK    4  A    between atoms: C_9  and  C_10
REMARK    5  A    between atoms: C_10  and  C_11
REMARK    6  A    between atoms: C_15  and  C_16
REMARK                            x       y       z     vdW  Elec       q    Type
REMARK                         _______ _______ _______ _____ _____    ______ ____
ROOT
ATOM      1  C   UNL     1      43.614   3.040  11.893  0.00  0.00    +0.000 C 
ENDROOT
BRANCH   1   2
ATOM      2  N   UNL     1      43.586   3.676  10.579  0.00  0.00    +0.000 N 
ATOM      3  H   UNL     1      42.669   3.732  10.144  0.00  0.00    +0.000 HD
BRANCH   2   7
ATOM      4  C   UNL     1      46.470   2.778   7.631  0.00  0.00    +0.000 A 
ATOM      5  C   UNL     1      46.181   4.112   7.921  0.00  0.00    +0.000 A 
ATOM      6  C   UNL     1      45.245   4.426   8.914  0.00  0.00    +0.000 A 
ATOM      7  C   UNL     1      44.603   3.426   9.655  0.00  0.00    +0.000 A 
ATOM      8  C   UNL     1      44.907   2.091   9.352  0.00  0.00    +0.000 A 
ATOM      9  C   UNL     1      45.826   1.766   8.345  0.00  0.00    +0.000 A 
BRANCH   4  11
ATOM     10  N   UNL     1      47.283   3.080   5.353  0.00  0.00    +0.000 N 
ATOM     11  C   UNL     1      47.395   2.399   6.533  0.00  0.00    +0.000 C 
ATOM     12  O   UNL     1      48.243   1.527   6.678  0.00  0.00    +0.000 OA
ATOM     13  H   UNL     1      47.975   2.866   4.645  0.00  0.00    +0.000 HD
ATOM     14  H   UNL     1      46.780   3.951   5.273  0.00  0.00    +0.000 HD
ENDBRANCH   4  11
ENDBRANCH   2   7
ENDBRANCH   1   2
BRANCH   1  15
ATOM     15  C   UNL     1      43.515   4.088  13.005  0.00  0.00    +0.000 C 
BRANCH  15  16
ATOM     16  C   UNL     1      44.687   5.038  12.949  0.00  0.00    +0.000 A 
ATOM     17  C   UNL     1      45.983   4.583  13.205  0.00  0.00    +0.000 A 
ATOM     18  C   UNL     1      47.061   5.455  13.096  0.00  0.00    +0.000 A 
ATOM     19  C   UNL     1      46.854   6.783  12.713  0.00  0.00    +0.000 A 
ATOM     20  C   UNL     1      45.568   7.271  12.415  0.00  0.00    +0.000 A 
ATOM     21  C   UNL     1      44.492   6.374  12.559  0.00  0.00    +0.000 A 
BRANCH  20  22
ATOM     22  C   UNL     1      45.360   8.652  11.933  0.00  0.00    +0.000 A 
ATOM     23  C   UNL     1      46.219   9.708  12.274  0.00  0.00    +0.000 A 
ATOM     24  C   UNL     1      45.968  11.003  11.819  0.00  0.00    +0.000 A 
ATOM     25  C   UNL     1      44.864  11.217  11.020  0.00  0.00    +0.000 A 
ATOM     26  N   UNL     1      44.001  10.245  10.662  0.00  0.00    +0.000 NA
ATOM     27  C   UNL     1      44.269   8.999  11.130  0.00  0.00    +0.000 A 
ENDBRANCH  20  22
ENDBRANCH  15  16
ENDBRANCH   1  15
TORSDOF 6
ENDMDL
MODEL 4
REMARK VINA RESULT:    -8.018      1.548      2.392
REMARK INTER + INTRA:         -11.790
REMARK INTER:                 -10.882
REMARK INTRA:                  -0.909
REMARK UNBOUND:                -0.960
REMARK  Name = 
REMARK  6 active torsions:
REMARK  status: ('A' for Active; 'I' for Inactive)
REMARK    1  A    between atoms: C_2  and  C_4
REMARK    2  A    between atoms: C_7  and  N_8
REMARK    3  A    between atoms: N_8  and  C_9
REMARK    4  A    between atoms: C_9  and  C_10
REMARK    5  A    between atoms: C_10  and  C_11
REMARK    6  A    between atoms: C_15  and  C_16
REMARK                            x       y       z     vdW  Elec       q    Type
REMARK                         _______ _______ _______ _____ _____    ______ ____
ROOT
ATOM      1  C   UNL     1      44.152   4.984  11.535  0.00  0.00    +0.000 C 
ENDROOT
BRANCH   1   2
ATOM      2  N   UNL     1      43.997   4.992  10.084  0.00  0.00    +0.000 N 
ATOM      3  H   UNL     1      43.049   5.146   9.750  0.00  0.00    +0.000 HD
BRANCH   2   7
ATOM      4  C   UNL     1      46.359   2.329   7.816  0.00  0.00    +0.000 A 
ATOM      5  C   UNL     1      45.418   1.816   8.710  0.00  0.00    +0.000 A 
ATOM      6  C   UNL     1      44.610   2.687   9.451  0.00  0.00    +0.000 A 
ATOM      7  C   UNL     1      44.700   4.076   9.297  0.00  0.00    +0.000 A 
ATOM      8  C   UNL     1      45.650   4.573   8.393  0.00  0.00    +0.000 A 
ATOM      9  C   UNL     1      46.478   3.711   7.663  0.00  0.00    +0.000 A 
BRANCH   4  11
ATOM     10  N   UNL     1      48.375   2.029   6.478  0.00  0.00    +0.000 N 
ATOM     11  C   UNL     1      47.291   1.444   7.070  0.00  0.00    +0.000 C 
ATOM     12  O   UNL     1      47.112   0.234   7.001  0.00  0.00    +0.000 OA
ATOM     13  H   UNL     1      49.042   1.401   6.046  0.00  0.00    +0.000 HD
ATOM     14  H   UNL     1      48.687   2.959   6.713  0.00  0.00    +0.000 HD
ENDBRANCH   4  11
ENDBRANCH   2   7
ENDBRANCH   1   2
BRANCH   1  15
ATOM     15  C   UNL     1      45.631   5.074  11.923  0.00  0.00    +0.000 C 
BRANCH  15  16
ATOM     16  C   UNL     1      46.056   6.514  12.073  0.00  0.00    +0.000 A 
ATOM     17  C   UNL     1      45.189   7.457  12.630  0.00  0.00    +0.000 A 
ATOM     18  C   UNL     1      45.612   8.769  12.814  0.00  0.00    +0.000 A 
ATOM     19  C   UNL     1      46.911   9.145  12.460  0.00  0.00    +0.000 A 
ATOM     20  C   UNL     1      47.825   8.217  11.927  0.00  0.00    +0.000 A 
ATOM     21  C   UNL     1      47.362   6.903  11.726  0.00  0.00    +0.000 A 
BRANCH  20  22
ATOM     22  C   UNL     1      49.221   8.596  11.628  0.00  0.00    +0.000 A 
ATOM     23  C   UNL     1      49.643   9.933  11.558  0.00  0.00    +0.000 A 
ATOM     24  C   UNL     1      50.966  10.245  11.245  0.00  0.00    +0.000 A 
ATOM     25  C   UNL     1      51.850   9.211  11.015  0.00  0.00    +0.000 A 
ATOM     26  N   UNL     1      51.504   7.908  11.064  0.00  0.00    +0.000 NA
ATOM     27  C   UNL     1      50.207   7.640  11.362  0.00  0.00    +0.000 A 
ENDBRANCH  20  22
ENDBRANCH  15  16
ENDBRANCH   1  15
TORSDOF 6
ENDMDL
MODEL 5
REMARK VINA RESULT:    -7.926      1.777      2.541
REMARK INTER + INTRA:         -11.666
REMARK INTER:                 -10.925
REMARK INTRA:                  -0.741
REMARK UNBOUND:                -0.960
REMARK  Name = 
REMARK  6 active torsions:
REMARK  status: ('A' for Active; 'I' for Inactive)
REMARK    1  A    between atoms: C_2  and  C_4
REMARK    2  A    between atoms: C_7  and  N_8
REMARK    3  A    between atoms: N_8  and  C_9
REMARK    4  A    between atoms: C_9  and  C_10
REMARK    5  A    between atoms: C_10  and  C_11
REMARK    6  A    between atoms: C_15  and  C_16
REMARK                            x       y       z     vdW  Elec       q    Type
REMARK                         _______ _______ _______ _____ _____    ______ ____
ROOT
ATOM      1  C   UNL     1      43.887   2.919  11.785  0.00  0.00    +0.000 C 
ENDROOT
BRANCH   1   2
ATOM      2  N   UNL     1      43.757   3.463  10.437  0.00  0.00    +0.000 N 
ATOM      3  H   UNL     1      42.829   3.391  10.028  0.00  0.00    +0.000 HD
BRANCH   2   7
ATOM      4  C   UNL     1      46.643   2.711   7.452  0.00  0.00    +0.000 A 
ATOM      5  C   UNL     1      46.271   4.028   7.727  0.00  0.00    +0.000 A 
ATOM      6  C   UNL     1      45.333   4.294   8.732  0.00  0.00    +0.000 A 
ATOM      7  C   UNL     1      44.772   3.266   9.499  0.00  0.00    +0.000 A 
ATOM      8  C   UNL     1      45.160   1.950   9.210  0.00  0.00    +0.000 A 
ATOM      9  C   UNL     1      46.081   1.671   8.192  0.00  0.00    +0.000 A 
BRANCH   4  11
ATOM     10  N   UNL     1      47.424   3.062   5.169  0.00  0.00    +0.000 N 
ATOM     11  C   UNL     1      47.574   2.378   6.342  0.00  0.00    +0.000 C 
ATOM     12  O   UNL     1      48.456   1.538   6.473  0.00  0.00    +0.000 OA
ATOM     13  H   UNL     1      48.118   2.881   4.454  0.00  0.00    +0.000 HD
ATOM     14  H   UNL     1      46.888   3.914   5.101  0.00  0.00    +0.000 HD
ENDBRANCH   4  11
ENDBRANCH   2   7
ENDBRANCH   1   2
BRANCH   1  15
ATOM     15  C   UNL     1      43.676   4.013  12.835  0.00  0.00    +0.000 C 
BRANCH  15  16
ATOM     16  C   UNL     1      44.380   5.285  12.427  0.00  0.00    +0.000 A 
ATOM     17  C   UNL     1      43.717   6.252  11.668  0.00  0.00    +0.000 A 
ATOM     18  C   UNL     1      44.357   7.444  11.345  0.00  0.00    +0.000 A 
ATOM     19  C   UNL     1      45.658   7.686  11.795  0.00  0.00    +0.000 A 
ATOM     20  C   UNL     1      46.347   6.752  12.590  0.00  0.00    +0.000 A 
ATOM     21  C   UNL     1      45.686   5.543  12.879  0.00  0.00    +0.000 A 
BRANCH  20  22
ATOM     22  C   UNL     1      47.691   7.043  13.131  0.00  0.00    +0.000 A 
ATOM     23  C   UNL     1      48.614   7.862  12.462  0.00  0.00    +0.000 A 
ATOM     24  C   UNL     1      49.882   8.087  12.997  0.00  0.00    +0.000 A 
ATOM     25  C   UNL     1      50.204   7.495  14.200  0.00  0.00    +0.000 A 
ATOM     26  N   UNL     1      49.363   6.696  14.888  0.00  0.00    +0.000 NA
ATOM     27  C   UNL     1      48.140   6.490  14.334  0.00  0.00    +0.000 A 
ENDBRANCH  20  22
ENDBRANCH  15  16
ENDBRANCH   1  15
TORSDOF 6
ENDMDL
MODEL 6
REMARK VINA RESULT:    -7.685      1.881      2.507
REMARK INTER + INTRA:         -11.341
REMARK INTER:                 -10.645
REMARK INTRA:                  -0.696
REMARK UNBOUND:                -0.960
REMARK  Name = 
REMARK  6 active torsions:
REMARK  status: ('A' for Active; 'I' for Inactive)
REMARK    1  A    between atoms: C_2  and  C_4
REMARK    2  A    between atoms: C_7  and  N_8
REMARK    3  A    between atoms: N_8  and  C_9
REMARK    4  A    between atoms: C_9  and  C_10
REMARK    5  A    between atoms: C_10  and  C_11
REMARK    6  A    between atoms: C_15  and  C_16
REMARK                            x       y       z     vdW  Elec       q    Type
REMARK                         _______ _______ _______ _____ _____    ______ ____
ROOT
ATOM      1  C   UNL     1      43.758   5.463  11.019  0.00  0.00    +0.000 C 
ENDROOT
BRANCH   1   2
ATOM      2  N   UNL     1      43.508   4.721   9.787  0.00  0.00    +0.000 N 
ATOM      3  H   UNL     1      42.606   4.256   9.736  0.00  0.00    +0.000 HD
BRANCH   2   7
ATOM      4  C   UNL     1      46.398   2.308   7.879  0.00  0.00    +0.000 A 
ATOM      5  C   UNL     1      46.384   3.682   7.633  0.00  0.00    +0.000 A 
ATOM      6  C   UNL     1      45.447   4.499   8.278  0.00  0.00    +0.000 A 
ATOM      7  C   UNL     1      44.530   3.974   9.197  0.00  0.00    +0.000 A 
ATOM      8  C   UNL     1      44.561   2.593   9.434  0.00  0.00    +0.000 A 
ATOM      9  C   UNL     1      45.479   1.763   8.778  0.00  0.00    +0.000 A 
BRANCH   4  11
ATOM     10  N   UNL     1      48.389   1.956   6.518  0.00  0.00    +0.000 N 
ATOM     11  C   UNL     1      47.321   1.394   7.158  0.00  0.00    +0.000 C 
ATOM     12  O   UNL     1      47.149   0.181   7.150  0.00  0.00    +0.000 OA
ATOM     13  H   UNL     1      49.051   1.313   6.103  0.00  0.00    +0.000 HD
ATOM     14  H   UNL     1      48.699   2.898   6.701  0.00  0.00    +0.000 HD
ENDBRANCH   4  11
ENDBRANCH   2   7
ENDBRANCH   1   2
BRANCH   1  15
ATOM     15  C   UNL     1      45.121   6.159  10.968  0.00  0.00    +0.000 C 
BRANCH  15  16
ATOM     16  C   UNL     1      45.926   5.846  12.206  0.00  0.00    +0.000 A 
ATOM     17  C   UNL     1      45.591   4.758  13.015  0.00  0.00    +0.000 A 
ATOM     18  C   UNL     1      46.373   4.446  14.122  0.00  0.00    +0.000 A 
ATOM     19  C   UNL     1      47.506   5.209  14.418  0.00  0.00    +0.000 A 
ATOM     20  C   UNL     1      47.896   6.292  13.609  0.00  0.00    +0.000 A 
ATOM     21  C   UNL     1      47.071   6.602  12.511  0.00  0.00    +0.000 A 
BRANCH  20  22
ATOM     22  C   UNL     1      49.137   7.047  13.877  0.00  0.00    +0.000 A 
ATOM     23  C   UNL     1      49.673   7.187  15.166  0.00  0.00    +0.000 A 
ATOM     24  C   UNL     1      50.833   7.933  15.377  0.00  0.00    +0.000 A 
ATOM     25  C   UNL     1      51.444   8.521  14.288  0.00  0.00    +0.000 A 
ATOM     26  N   UNL     1      50.975   8.426  13.028  0.00  0.00    +0.000 NA
ATOM     27  C   UNL     1      49.840   7.701  12.860  0.00  0.00    +0.000 A 
ENDBRANCH  20  22
ENDBRANCH  15  16
ENDBRANCH   1  15
TORSDOF 6
ENDMDL
MODEL 7
REMARK VINA RESULT:    -7.385      3.426      7.276
REMARK INTER + INTRA:         -10.936
REMARK INTER:                 -10.278
REMARK INTRA:                  -0.657
REMARK UNBOUND:                -0.960
REMARK  Name = 
REMARK  6 active torsions:
REMARK  status: ('A' for Active; 'I' for Inactive)
REMARK    1  A    between atoms: C_2  and  C_4
REMARK    2  A    between atoms: C_7  and  N_8
REMARK    3  A    between atoms: N_8  and  C_9
REMARK    4  A    between atoms: C_9  and  C_10
REMARK    5  A    between atoms: C_10  and  C_11
REMARK    6  A    between atoms: C_15  and  C_16
REMARK                            x       y       z     vdW  Elec       q    Type
REMARK                         _______ _______ _______ _____ _____    ______ ____
ROOT
ATOM      1  C   UNL     1      47.395   7.262  11.748  0.00  0.00    +0.000 C 
ENDROOT
BRANCH   1   2
ATOM      2  N   UNL     1      47.988   7.527  13.055  0.00  0.00    +0.000 N 
ATOM      3  H   UNL     1      48.912   7.952  13.033  0.00  0.00    +0.000 HD
BRANCH   2   7
ATOM      4  C   UNL     1      47.677   4.537  16.017  0.00  0.00    +0.000 A 
ATOM      5  C   UNL     1      48.443   5.675  16.272  0.00  0.00    +0.000 A 
ATOM      6  C   UNL     1      48.535   6.688  15.309  0.00  0.00    +0.000 A 
ATOM      7  C   UNL     1      47.848   6.602  14.091  0.00  0.00    +0.000 A 
ATOM      8  C   UNL     1      47.082   5.452  13.853  0.00  0.00    +0.000 A 
ATOM      9  C   UNL     1      47.001   4.424  14.801  0.00  0.00    +0.000 A 
BRANCH   4  11
ATOM     10  N   UNL     1      48.801   2.842  17.361  0.00  0.00    +0.000 N 
ATOM     11  C   UNL     1      47.616   3.405  16.976  0.00  0.00    +0.000 C 
ATOM     12  O   UNL     1      46.551   2.999  17.426  0.00  0.00    +0.000 OA
ATOM     13  H   UNL     1      48.745   2.128  18.077  0.00  0.00    +0.000 HD
ATOM     14  H   UNL     1      49.691   3.293  17.213  0.00  0.00    +0.000 HD
ENDBRANCH   4  11
ENDBRANCH   2   7
ENDBRANCH   1   2
BRANCH   1  15
ATOM     15  C   UNL     1      45.893   7.559  11.763  0.00  0.00    +0.000 C 
BRANCH  15  16
ATOM     16  C   UNL     1      45.112   6.383  11.228  0.00  0.00    +0.000 A 
ATOM     17  C   UNL     1      43.752   6.245  11.515  0.00  0.00    +0.000 A 
ATOM     18  C   UNL     1      43.030   5.187  10.971  0.00  0.00    +0.000 A 
ATOM     19  C   UNL     1      43.658   4.272  10.122  0.00  0.00    +0.000 A 
ATOM     20  C   UNL     1      45.018   4.395   9.783  0.00  0.00    +0.000 A 
ATOM     21  C   UNL     1      45.731   5.459  10.368  0.00  0.00    +0.000 A 
BRANCH  20  22
ATOM     22  C   UNL     1      45.660   3.473   8.823  0.00  0.00    +0.000 A 
ATOM     23  C   UNL     1      46.316   3.923   7.667  0.00  0.00    +0.000 A 
ATOM     24  C   UNL     1      46.884   3.014   6.774  0.00  0.00    +0.000 A 
ATOM     25  C   UNL     1      46.792   1.667   7.058  0.00  0.00    +0.000 A 
ATOM     26  N   UNL     1      46.172   1.174   8.149  0.00  0.00    +0.000 NA
ATOM     27  C   UNL     1      45.623   2.086   8.993  0.00  0.00    +0.000 A 
ENDBRANCH  20  22
ENDBRANCH  15  16
ENDBRANCH   1  15
TORSDOF 6
ENDMDL
MODEL 8
REMARK VINA RESULT:    -7.212      2.878      7.076
REMARK INTER + INTRA:         -10.702
REMARK INTER:                  -9.892
REMARK INTRA:                  -0.810
REMARK UNBOUND:                -0.960
REMARK  Name = 
REMARK  6 active torsions:
REMARK  status: ('A' for Active; 'I' for Inactive)
REMARK    1  A    between atoms: C_2  and  C_4
REMARK    2  A    between atoms: C_7  and  N_8
REMARK    3  A    between atoms: N_8  and  C_9
REMARK    4  A    between atoms: C_9  and  C_10
REMARK    5  A    between atoms: C_10  and  C_11
REMARK    6  A    between atoms: C_15  and  C_16
REMARK                            x       y       z     vdW  Elec       q    Type
REMARK                         _______ _______ _______ _____ _____    ______ ____
ROOT
ATOM      1  C   UNL     1      45.209   6.471  12.886  0.00  0.00    +0.000 C 
ENDROOT
BRANCH   1   2
ATOM      2  N   UNL     1      45.807   7.779  13.138  0.00  0.00    +0.000 N 
ATOM      3  H   UNL     1      45.186   8.573  13.002  0.00  0.00    +0.000 HD
BRANCH   2   7
ATOM      4  C   UNL     1      49.733   8.376  11.709  0.00  0.00    +0.000 A 
ATOM      5  C   UNL     1      48.812   9.422  11.635  0.00  0.00    +0.000 A 
ATOM      6  C   UNL     1      47.513   9.247  12.128  0.00  0.00    +0.000 A 
ATOM      7  C   UNL     1      47.114   8.045  12.728  0.00  0.00    +0.000 A 
ATOM      8  C   UNL     1      48.054   7.007  12.795  0.00  0.00    +0.000 A 
ATOM      9  C   UNL     1      49.349   7.164  12.286  0.00  0.00    +0.000 A 
BRANCH   4  11
ATOM     10  N   UNL     1      51.877   7.372  11.132  0.00  0.00    +0.000 N 
ATOM     11  C   UNL     1      51.095   8.492  11.128  0.00  0.00    +0.000 C 
ATOM     12  O   UNL     1      51.500   9.541  10.642  0.00  0.00    +0.000 OA
ATOM     13  H   UNL     1      52.769   7.447  10.658  0.00  0.00    +0.000 HD
ATOM     14  H   UNL     1      51.504   6.448  11.291  0.00  0.00    +0.000 HD
ENDBRANCH   4  11
ENDBRANCH   2   7
ENDBRANCH   1   2
BRANCH   1  15
ATOM     15  C   UNL     1      44.638   6.401  11.467  0.00  0.00    +0.000 C 
BRANCH  15  16
ATOM     16  C   UNL     1      44.521   4.967  11.010  0.00  0.00    +0.000 A 
ATOM     17  C   UNL     1      43.597   4.105  11.605  0.00  0.00    +0.000 A 
ATOM     18  C   UNL     1      43.459   2.802  11.139  0.00  0.00    +0.000 A 
ATOM     19  C   UNL     1      44.231   2.356  10.062  0.00  0.00    +0.000 A 
ATOM     20  C   UNL     1      45.149   3.204   9.414  0.00  0.00    +0.000 A 
ATOM     21  C   UNL     1      45.287   4.509   9.924  0.00  0.00    +0.000 A 
BRANCH  20  22
ATOM     22  C   UNL     1      45.905   2.757   8.226  0.00  0.00    +0.000 A 
ATOM     23  C   UNL     1      46.121   3.583   7.113  0.00  0.00    +0.000 A 
ATOM     24  C   UNL     1      46.817   3.109   6.001  0.00  0.00    +0.000 A 
ATOM     25  C   UNL     1      47.294   1.815   6.026  0.00  0.00    +0.000 A 
ATOM     26  N   UNL     1      47.116   0.973   7.063  0.00  0.00    +0.000 NA
ATOM     27  C   UNL     1      46.426   1.463   8.125  0.00  0.00    +0.000 A 
ENDBRANCH  20  22
ENDBRANCH  15  16
ENDBRANCH   1  15
TORSDOF 6
ENDMDL
MODEL 9
REMARK VINA RESULT:    -6.812      3.806      7.531
REMARK INTER + INTRA:         -10.161
REMARK INTER:                  -9.015
REMARK INTRA:                  -1.146
REMARK UNBOUND:                -0.960
REMARK  Name = 
REMARK  6 active torsions:
REMARK  status: ('A' for Active; 'I' for Inactive)
REMARK    1  A    between atoms: C_2  and  C_4
REMARK    2  A    between atoms: C_7  and  N_8
REMARK    3  A    between atoms: N_8  and  C_9
REMARK    4  A    between atoms: C_9  and  C_10
REMARK    5  A    between atoms: C_10  and  C_11
REMARK    6  A    between atoms: C_15  and  C_16
REMARK                            x       y       z     vdW  Elec       q    Type
REMARK                         _______ _______ _______ _____ _____    ______ ____
ROOT
ATOM      1  C   UNL     1      49.695   7.381  13.055  0.00  0.00    +0.000 C 
ENDROOT
BRANCH   1   2
ATOM      2  N   UNL     1      49.334   7.749  14.421  0.00  0.00    +0.000 N 
ATOM      3  H   UNL     1      49.952   8.421  14.867  0.00  0.00    +0.000 HD
BRANCH   2   7
ATOM      4  C   UNL     1      48.018   4.619  16.928  0.00  0.00    +0.000 A 
ATOM      5  C   UNL     1      48.949   5.539  17.414  0.00  0.00    +0.000 A 
ATOM      6  C   UNL     1      49.376   6.597  16.602  0.00  0.00    +0.000 A 
ATOM      7  C   UNL     1      48.867   6.778  15.310  0.00  0.00    +0.000 A 
ATOM      8  C   UNL     1      47.931   5.845  14.840  0.00  0.00    +0.000 A 
ATOM      9  C   UNL     1      47.514   4.771  15.636  0.00  0.00    +0.000 A 
BRANCH   4  11
ATOM     10  N   UNL     1      48.388   3.079  18.781  0.00  0.00    +0.000 N 
ATOM     11  C   UNL     1      47.598   3.438  17.725  0.00  0.00    +0.000 C 
ATOM     12  O   UNL     1      46.574   2.818  17.465  0.00  0.00    +0.000 OA
ATOM     13  H   UNL     1      48.043   2.324  19.362  0.00  0.00    +0.000 HD
ATOM     14  H   UNL     1      49.086   3.693  19.172  0.00  0.00    +0.000 HD
ENDBRANCH   4  11
ENDBRANCH   2   7
ENDBRANCH   1   2
BRANCH   1  15
ATOM     15  C   UNL     1      48.946   8.252  12.043  0.00  0.00    +0.000 C 
BRANCH  15  16
ATOM     16  C   UNL     1      47.485   7.874  11.993  0.00  0.00    +0.000 A 
ATOM     17  C   UNL     1      46.511   8.733  12.508  0.00  0.00    +0.000 A 
ATOM     18  C   UNL     1      45.164   8.400  12.407  0.00  0.00    +0.000 A 
ATOM     19  C   UNL     1      44.780   7.215  11.774  0.00  0.00    +0.000 A 
ATOM     20  C   UNL     1      45.729   6.339  11.213  0.00  0.00    +0.000 A 
ATOM     21  C   UNL     1      47.085   6.688  11.354  0.00  0.00    +0.000 A 
BRANCH  20  22
ATOM     22  C   UNL     1      45.317   5.128  10.475  0.00  0.00    +0.000 A 
ATOM     23  C   UNL     1      45.590   4.945   9.111  0.00  0.00    +0.000 A 
ATOM     24  C   UNL     1      45.157   3.796   8.447  0.00  0.00    +0.000 A 
ATOM     25  C   UNL     1      44.464   2.844   9.164  0.00  0.00    +0.000 A 
ATOM     26  N   UNL     1      44.167   2.964  10.474  0.00  0.00    +0.000 NA
ATOM     27  C   UNL     1      44.595   4.098  11.087  0.00  0.00    +0.000 A 
ENDBRANCH  20  22
ENDBRANCH  15  16
ENDBRANCH   1  15
TORSDOF 6
ENDMDL
