MODEL 1
REMARK VINA RESULT:    -8.504      0.000      0.000
REMARK INTER + INTRA:         -13.818
REMARK INTER:                 -12.481
REMARK INTRA:                  -1.338
REMARK UNBOUND:                -1.338
REMARK  Name = 
REMARK  9 active torsions:
REMARK  status: ('A' for Active; 'I' for Inactive)
REMARK    1  A    between atoms: C_1  and  O_2
REMARK    2  A    between atoms: O_2  and  C_3
REMARK    3  A    between atoms: C_10  and  C_11
REMARK    4  A    between atoms: N_13  and  C_14
REMARK    5  A    between atoms: C_14  and  C_15
REMARK    6  A    between atoms: C_18  and  C_19
REMARK    7  A    between atoms: C_19  and  O_20
REMARK    8  A    between atoms: O_20  and  C_21
REMARK    9  A    between atoms: C_21  and  C_22
REMARK                            x       y       z     vdW  Elec       q    Type
REMARK                         _______ _______ _______ _____ _____    ______ ____
ROOT
ATOM      1  C   UNL     1      48.078   6.656  13.242  0.00  0.00    +0.000 C 
ENDROOT
BRANCH   1   2
ATOM      2  C   UNL     1      46.873   5.954  12.674  0.00  0.00    +0.000 A 
ATOM      3  C   UNL     1      46.262   4.912  13.383  0.00  0.00    +0.000 A 
ATOM      4  C   UNL     1      45.186   4.215  12.830  0.00  0.00    +0.000 A 
ATOM      5  C   UNL     1      44.704   4.543  11.557  0.00  0.00    +0.000 A 
ATOM      6  C   UNL     1      45.306   5.594  10.852  0.00  0.00    +0.000 A 
ATOM      7  C   UNL     1      46.383   6.292  11.406  0.00  0.00    +0.000 A 
BRANCH   5   8
ATOM      8  C   UNL     1      43.539   3.787  10.966  0.00  0.00    +0.000 C 
BRANCH   8   9
ATOM      9  O   UNL     1      43.824   3.297   9.655  0.00  0.00    +0.000 OA
BRANCH   9  10
ATOM     10  C   UNL     1      44.743   2.207   9.669  0.00  0.00    +0.000 C 
BRANCH  10  11
ATOM     11  C   UNL     1      45.640   2.298   8.462  0.00  0.00    +0.000 A 
ATOM     12  C   UNL     1      46.386   1.183   8.047  0.00  0.00    +0.000 A 
ATOM     13  C   UNL     1      47.192   1.257   6.910  0.00  0.00    +0.000 A 
ATOM     14  C   UNL     1      47.253   2.443   6.191  0.00  0.00    +0.000 A 
ATOM     15  F   UNL     1      48.020   2.510   5.095  0.00  0.00    +0.000 F 
ATOM     16  C   UNL     1      46.531   3.562   6.590  0.00  0.00    +0.000 A 
ATOM     17  C   UNL     1      45.725   3.491   7.726  0.00  0.00    +0.000 A 
ENDBRANCH  10  11
ENDBRANCH   9  10
ENDBRANCH   8   9
ENDBRANCH   5   8
ENDBRANCH   1   2
BRANCH   1  20
ATOM     18  C   UNL     1      49.123   6.890  15.447  0.00  0.00    +0.000 C 
ATOM     19  O   UNL     1      50.236   6.951  14.929  0.00  0.00    +0.000 OA
ATOM     20  N   UNL     1      48.000   6.733  14.682  0.00  0.00    +0.000 N 
ATOM     21  H   UNL     1      47.084   6.703  15.111  0.00  0.00    +0.000 HD
BRANCH  18  29
ATOM     22  C   UNL     1      48.921   4.567  17.995  0.00  0.00    +0.000 A 
ATOM     23  N   UNL     1      48.771   3.897  19.156  0.00  0.00    +0.000 NA
ATOM     24  C   UNL     1      48.593   4.606  20.274  0.00  0.00    +0.000 A 
ATOM     25  N   UNL     1      48.550   5.929  20.382  0.00  0.00    +0.000 NA
ATOM     26  C   UNL     1      48.690   6.559  19.204  0.00  0.00    +0.000 A 
ATOM     27  S   UNL     1      48.667   8.253  19.155  0.00  0.00    +0.000 S 
ATOM     28  C   UNL     1      48.869   8.256  17.470  0.00  0.00    +0.000 A 
ATOM     29  C   UNL     1      48.958   6.988  16.908  0.00  0.00    +0.000 A 
ATOM     30  C   UNL     1      48.864   5.969  17.952  0.00  0.00    +0.000 A 
BRANCH  22  32
ATOM     31  C   UNL     1      47.896   3.262  16.357  0.00  0.00    +0.000 C 
ATOM     32  O   UNL     1      49.111   3.832  16.844  0.00  0.00    +0.000 OA
ENDBRANCH  22  32
ENDBRANCH  18  29
ENDBRANCH   1  20
TORSDOF 8
ENDMDL
MODEL 2
REMARK VINA RESULT:    -8.051      1.463      2.463
REMARK INTER + INTRA:         -13.153
REMARK INTER:                 -12.071
REMARK INTRA:                  -1.082
REMARK UNBOUND:                -1.338
REMARK  Name = 
REMARK  9 active torsions:
REMARK  status: ('A' for Active; 'I' for Inactive)
REMARK    1  A    between atoms: C_1  and  O_2
REMARK    2  A    between atoms: O_2  and  C_3
REMARK    3  A    between atoms: C_10  and  C_11
REMARK    4  A    between atoms: N_13  and  C_14
REMARK    5  A    between atoms: C_14  and  C_15
REMARK    6  A    between atoms: C_18  and  C_19
REMARK    7  A    between atoms: C_19  and  O_20
REMARK    8  A    between atoms: O_20  and  C_21
REMARK    9  A    between atoms: C_21  and  C_22
REMARK                            x       y       z     vdW  Elec       q    Type
REMARK                         _______ _______ _______ _____ _____    ______ ____
ROOT
ATOM      1  C   UNL     1      48.101   6.564  13.674  0.00  0.00    +0.000 C 
ENDROOT
BRANCH   1   2
ATOM      2  C   UNL     1      46.925   5.970  12.944  0.00  0.00    +0.000 A 
ATOM      3  C   UNL     1      46.248   4.865  13.476  0.00  0.00    +0.000 A 
ATOM      4  C   UNL     1      45.201   4.270  12.770  0.00  0.00    +0.000 A 
ATOM      5  C   UNL     1      44.814   4.765  11.518  0.00  0.00    +0.000 A 
ATOM      6  C   UNL     1      45.482   5.878  10.991  0.00  0.00    +0.000 A 
ATOM      7  C   UNL     1      46.530   6.473  11.698  0.00  0.00    +0.000 A 
BRANCH   5   8
ATOM      8  C   UNL     1      43.680   4.117  10.761  0.00  0.00    +0.000 C 
BRANCH   8   9
ATOM      9  O   UNL     1      44.064   3.730   9.441  0.00  0.00    +0.000 OA
BRANCH   9  10
ATOM     10  C   UNL     1      44.638   2.426   9.403  0.00  0.00    +0.000 C 
BRANCH  10  11
ATOM     11  C   UNL     1      45.633   2.355   8.274  0.00  0.00    +0.000 A 
ATOM     12  C   UNL     1      46.385   1.188   8.063  0.00  0.00    +0.000 A 
ATOM     13  C   UNL     1      47.284   1.110   6.998  0.00  0.00    +0.000 A 
ATOM     14  C   UNL     1      47.432   2.197   6.147  0.00  0.00    +0.000 A 
ATOM     15  F   UNL     1      48.289   2.119   5.121  0.00  0.00    +0.000 F 
ATOM     16  C   UNL     1      46.707   3.367   6.345  0.00  0.00    +0.000 A 
ATOM     17  C   UNL     1      45.808   3.447   7.408  0.00  0.00    +0.000 A 
ENDBRANCH  10  11
ENDBRANCH   9  10
ENDBRANCH   8   9
ENDBRANCH   5   8
ENDBRANCH   1   2
BRANCH   1  20
ATOM     18  C   UNL     1      48.988   6.502  15.959  0.00  0.00    +0.000 C 
ATOM     19  O   UNL     1      50.137   6.583  15.529  0.00  0.00    +0.000 OA
ATOM     20  N   UNL     1      47.919   6.475  15.104  0.00  0.00    +0.000 N 
ATOM     21  H   UNL     1      46.975   6.427  15.462  0.00  0.00    +0.000 HD
BRANCH  18  29
ATOM     22  C   UNL     1      47.817   8.769  18.287  0.00  0.00    +0.000 A 
ATOM     23  N   UNL     1      47.434   9.442  19.392  0.00  0.00    +0.000 NA
ATOM     24  C   UNL     1      47.434   8.790  20.557  0.00  0.00    +0.000 A 
ATOM     25  N   UNL     1      47.772   7.522  20.763  0.00  0.00    +0.000 NA
ATOM     26  C   UNL     1      48.159   6.891  19.643  0.00  0.00    +0.000 A 
ATOM     27  S   UNL     1      48.619   5.261  19.719  0.00  0.00    +0.000 S 
ATOM     28  C   UNL     1      48.947   5.225  18.054  0.00  0.00    +0.000 A 
ATOM     29  C   UNL     1      48.719   6.433  17.405  0.00  0.00    +0.000 A 
ATOM     30  C   UNL     1      48.233   7.429  18.358  0.00  0.00    +0.000 A 
BRANCH  22  32
ATOM     31  C   UNL     1      48.603  10.628  17.119  0.00  0.00    +0.000 C 
ATOM     32  O   UNL     1      47.809   9.442  17.083  0.00  0.00    +0.000 OA
ENDBRANCH  22  32
ENDBRANCH  18  29
ENDBRANCH   1  20
TORSDOF 8
ENDMDL
MODEL 3
REMARK VINA RESULT:    -7.359      3.102      5.146
REMARK INTER + INTRA:         -12.139
REMARK INTER:                 -10.739
REMARK INTRA:                  -1.399
REMARK UNBOUND:                -1.338
REMARK  Name = 
REMARK  9 active torsions:
REMARK  status: ('A' for Active; 'I' for Inactive)
REMARK    1  A    between atoms: C_1  and  O_2
REMARK    2  A    between atoms: O_2  and  C_3
REMARK    3  A    between atoms: C_10  and  C_11
REMARK    4  A    between atoms: N_13  and  C_14
REMARK    5  A    between atoms: C_14  and  C_15
REMARK    6  A    between atoms: C_18  and  C_19
REMARK    7  A    between atoms: C_19  and  O_20
REMARK    8  A    between atoms: O_20  and  C_21
REMARK    9  A    between atoms: C_21  and  C_22
REMARK                            x       y       z     vdW  Elec       q    Type
REMARK                         _______ _______ _______ _____ _____    ______ ____
ROOT
ATOM      1  C   UNL     1      47.891   5.944  14.218  0.00  0.00    +0.000 C 
ENDROOT
BRANCH   1   2
ATOM      2  C   UNL     1      46.766   5.604  13.277  0.00  0.00    +0.000 A 
ATOM      3  C   UNL     1      46.675   6.230  12.027  0.00  0.00    +0.000 A 
ATOM      4  C   UNL     1      45.597   5.967  11.180  0.00  0.00    +0.000 A 
ATOM      5  C   UNL     1      44.587   5.077  11.569  0.00  0.00    +0.000 A 
ATOM      6  C   UNL     1      44.684   4.440  12.813  0.00  0.00    +0.000 A 
ATOM      7  C   UNL     1      45.763   4.704  13.660  0.00  0.00    +0.000 A 
BRANCH   5   8
ATOM      8  C   UNL     1      43.425   4.796  10.647  0.00  0.00    +0.000 C 
BRANCH   8   9
ATOM      9  O   UNL     1      43.845   4.218   9.411  0.00  0.00    +0.000 OA
BRANCH   9  10
ATOM     10  C   UNL     1      44.402   2.916   9.581  0.00  0.00    +0.000 C 
BRANCH  10  11
ATOM     11  C   UNL     1      45.448   2.682   8.522  0.00  0.00    +0.000 A 
ATOM     12  C   UNL     1      46.009   1.407   8.350  0.00  0.00    +0.000 A 
ATOM     13  C   UNL     1      46.955   1.181   7.348  0.00  0.00    +0.000 A 
ATOM     14  C   UNL     1      47.339   2.228   6.522  0.00  0.00    +0.000 A 
ATOM     15  F   UNL     1      48.239   2.009   5.555  0.00  0.00    +0.000 F 
ATOM     16  C   UNL     1      46.804   3.502   6.683  0.00  0.00    +0.000 A 
ATOM     17  C   UNL     1      45.859   3.730   7.683  0.00  0.00    +0.000 A 
ENDBRANCH  10  11
ENDBRANCH   9  10
ENDBRANCH   8   9
ENDBRANCH   5   8
ENDBRANCH   1   2
BRANCH   1  20
ATOM     18  C   UNL     1      49.631   7.666  14.357  0.00  0.00    +0.000 C 
ATOM     19  O   UNL     1      49.581   7.636  15.586  0.00  0.00    +0.000 OA
ATOM     20  N   UNL     1      48.818   6.865  13.602  0.00  0.00    +0.000 N 
ATOM     21  H   UNL     1      48.876   6.879  12.592  0.00  0.00    +0.000 HD
BRANCH  18  29
ATOM     22  C   UNL     1      49.275  10.029  11.864  0.00  0.00    +0.000 A 
ATOM     23  N   UNL     1      49.434  10.952  10.893  0.00  0.00    +0.000 NA
ATOM     24  C   UNL     1      50.665  11.413  10.657  0.00  0.00    +0.000 A 
ATOM     25  N   UNL     1      51.782  11.063  11.286  0.00  0.00    +0.000 NA
ATOM     26  C   UNL     1      51.584  10.134  12.235  0.00  0.00    +0.000 A 
ATOM     27  S   UNL     1      52.902   9.575  13.144  0.00  0.00    +0.000 S 
ATOM     28  C   UNL     1      51.908   8.517  14.024  0.00  0.00    +0.000 A 
ATOM     29  C   UNL     1      50.569   8.559  13.656  0.00  0.00    +0.000 A 
ATOM     30  C   UNL     1      50.373   9.540  12.591  0.00  0.00    +0.000 A 
BRANCH  22  32
ATOM     31  C   UNL     1      46.996  10.505  11.745  0.00  0.00    +0.000 C 
ATOM     32  O   UNL     1      48.001   9.561  12.109  0.00  0.00    +0.000 OA
ENDBRANCH  22  32
ENDBRANCH  18  29
ENDBRANCH   1  20
TORSDOF 8
ENDMDL
MODEL 4
REMARK VINA RESULT:    -7.301      1.691      2.246
REMARK INTER + INTRA:         -12.053
REMARK INTER:                 -10.717
REMARK INTRA:                  -1.336
REMARK UNBOUND:                -1.338
REMARK  Name = 
REMARK  9 active torsions:
REMARK  status: ('A' for Active; 'I' for Inactive)
REMARK    1  A    between atoms: C_1  and  O_2
REMARK    2  A    between atoms: O_2  and  C_3
REMARK    3  A    between atoms: C_10  and  C_11
REMARK    4  A    between atoms: N_13  and  C_14
REMARK    5  A    between atoms: C_14  and  C_15
REMARK    6  A    between atoms: C_18  and  C_19
REMARK    7  A    between atoms: C_19  and  O_20
REMARK    8  A    between atoms: O_20  and  C_21
REMARK    9  A    between atoms: C_21  and  C_22
REMARK                            x       y       z     vdW  Elec       q    Type
REMARK                         _______ _______ _______ _____ _____    ______ ____
ROOT
ATOM      1  C   UNL     1      48.365   9.075  13.914  0.00  0.00    +0.000 C 
ENDROOT
BRANCH   1   2
ATOM      2  C   UNL     1      47.353   8.261  13.153  0.00  0.00    +0.000 A 
ATOM      3  C   UNL     1      46.020   8.685  13.070  0.00  0.00    +0.000 A 
ATOM      4  C   UNL     1      45.066   7.899  12.423  0.00  0.00    +0.000 A 
ATOM      5  C   UNL     1      45.423   6.672  11.850  0.00  0.00    +0.000 A 
ATOM      6  C   UNL     1      46.758   6.252  11.921  0.00  0.00    +0.000 A 
ATOM      7  C   UNL     1      47.714   7.039  12.568  0.00  0.00    +0.000 A 
BRANCH   5   8
ATOM      8  C   UNL     1      44.386   5.828  11.150  0.00  0.00    +0.000 C 
BRANCH   8   9
ATOM      9  O   UNL     1      44.884   5.253   9.942  0.00  0.00    +0.000 OA
BRANCH   9  10
ATOM     10  C   UNL     1      44.438   3.911   9.754  0.00  0.00    +0.000 C 
BRANCH  10  11
ATOM     11  C   UNL     1      45.337   3.225   8.758  0.00  0.00    +0.000 A 
ATOM     12  C   UNL     1      46.005   3.971   7.774  0.00  0.00    +0.000 A 
ATOM     13  C   UNL     1      46.864   3.342   6.871  0.00  0.00    +0.000 A 
ATOM     14  C   UNL     1      47.050   1.968   6.950  0.00  0.00    +0.000 A 
ATOM     15  F   UNL     1      47.879   1.365   6.088  0.00  0.00    +0.000 F 
ATOM     16  C   UNL     1      46.389   1.208   7.908  0.00  0.00    +0.000 A 
ATOM     17  C   UNL     1      45.531   1.836   8.812  0.00  0.00    +0.000 A 
ENDBRANCH  10  11
ENDBRANCH   9  10
ENDBRANCH   8   9
ENDBRANCH   5   8
ENDBRANCH   1   2
BRANCH   1  20
ATOM     18  C   UNL     1      48.704   8.463  16.263  0.00  0.00    +0.000 C 
ATOM     19  O   UNL     1      47.901   9.324  16.617  0.00  0.00    +0.000 OA
ATOM     20  N   UNL     1      49.000   8.281  14.940  0.00  0.00    +0.000 N 
ATOM     21  H   UNL     1      49.647   7.560  14.651  0.00  0.00    +0.000 HD
BRANCH  18  29
ATOM     22  C   UNL     1      49.012   5.042  16.624  0.00  0.00    +0.000 A 
ATOM     23  N   UNL     1      49.252   3.777  17.029  0.00  0.00    +0.000 NA
ATOM     24  C   UNL     1      49.961   3.598  18.146  0.00  0.00    +0.000 A 
ATOM     25  N   UNL     1      50.475   4.542  18.926  0.00  0.00    +0.000 NA
ATOM     26  C   UNL     1      50.203   5.785  18.497  0.00  0.00    +0.000 A 
ATOM     27  S   UNL     1      50.790   7.115  19.370  0.00  0.00    +0.000 S 
ATOM     28  C   UNL     1      50.069   8.206  18.286  0.00  0.00    +0.000 A 
ATOM     29  C   UNL     1      49.374   7.596  17.248  0.00  0.00    +0.000 A 
ATOM     30  C   UNL     1      49.467   6.143  17.368  0.00  0.00    +0.000 A 
BRANCH  22  32
ATOM     31  C   UNL     1      47.151   4.361  15.395  0.00  0.00    +0.000 C 
ATOM     32  O   UNL     1      48.286   5.224  15.466  0.00  0.00    +0.000 OA
ENDBRANCH  22  32
ENDBRANCH  18  29
ENDBRANCH   1  20
TORSDOF 8
ENDMDL
MODEL 5
REMARK VINA RESULT:    -7.296      1.437      1.974
REMARK INTER + INTRA:         -12.045
REMARK INTER:                 -11.135
REMARK INTRA:                  -0.910
REMARK UNBOUND:                -1.338
REMARK  Name = 
REMARK  9 active torsions:
REMARK  status: ('A' for Active; 'I' for Inactive)
REMARK    1  A    between atoms: C_1  and  O_2
REMARK    2  A    between atoms: O_2  and  C_3
REMARK    3  A    between atoms: C_10  and  C_11
REMARK    4  A    between atoms: N_13  and  C_14
REMARK    5  A    between atoms: C_14  and  C_15
REMARK    6  A    between atoms: C_18  and  C_19
REMARK    7  A    between atoms: C_19  and  O_20
REMARK    8  A    between atoms: O_20  and  C_21
REMARK    9  A    between atoms: C_21  and  C_22
REMARK                            x       y       z     vdW  Elec       q    Type
REMARK                         _______ _______ _______ _____ _____    ______ ____
ROOT
ATOM      1  C   UNL     1      47.918   4.790  14.595  0.00  0.00    +0.000 C 
ENDROOT
BRANCH   1   2
ATOM      2  C   UNL     1      46.772   4.803  13.618  0.00  0.00    +0.000 A 
ATOM      3  C   UNL     1      46.100   3.616  13.300  0.00  0.00    +0.000 A 
ATOM      4  C   UNL     1      45.082   3.613  12.345  0.00  0.00    +0.000 A 
ATOM      5  C   UNL     1      44.720   4.794  11.686  0.00  0.00    +0.000 A 
ATOM      6  C   UNL     1      45.383   5.985  12.012  0.00  0.00    +0.000 A 
ATOM      7  C   UNL     1      46.402   5.988  12.969  0.00  0.00    +0.000 A 
BRANCH   5   8
ATOM      8  C   UNL     1      43.617   4.784  10.656  0.00  0.00    +0.000 C 
BRANCH   8   9
ATOM      9  O   UNL     1      44.073   4.325   9.383  0.00  0.00    +0.000 OA
BRANCH   9  10
ATOM     10  C   UNL     1      44.388   2.934   9.387  0.00  0.00    +0.000 C 
BRANCH  10  11
ATOM     11  C   UNL     1      45.451   2.664   8.354  0.00  0.00    +0.000 A 
ATOM     12  C   UNL     1      46.076   1.408   8.292  0.00  0.00    +0.000 A 
ATOM     13  C   UNL     1      47.038   1.145   7.315  0.00  0.00    +0.000 A 
ATOM     14  C   UNL     1      47.375   2.137   6.404  0.00  0.00    +0.000 A 
ATOM     15  F   UNL     1      48.292   1.881   5.462  0.00  0.00    +0.000 F 
ATOM     16  C   UNL     1      46.777   3.391   6.454  0.00  0.00    +0.000 A 
ATOM     17  C   UNL     1      45.816   3.655   7.430  0.00  0.00    +0.000 A 
ENDBRANCH  10  11
ENDBRANCH   9  10
ENDBRANCH   8   9
ENDBRANCH   5   8
ENDBRANCH   1   2
BRANCH   1  20
ATOM     18  C   UNL     1      48.785   6.839  15.626  0.00  0.00    +0.000 C 
ATOM     19  O   UNL     1      49.794   6.780  14.925  0.00  0.00    +0.000 OA
ATOM     20  N   UNL     1      47.810   5.884  15.532  0.00  0.00    +0.000 N 
ATOM     21  H   UNL     1      46.973   5.946  16.097  0.00  0.00    +0.000 HD
BRANCH  18  29
ATOM     22  C   UNL     1      47.933   6.971  18.970  0.00  0.00    +0.000 A 
ATOM     23  N   UNL     1      47.581   7.317  20.226  0.00  0.00    +0.000 NA
ATOM     24  C   UNL     1      47.533   8.616  20.532  0.00  0.00    +0.000 A 
ATOM     25  N   UNL     1      47.802   9.637  19.725  0.00  0.00    +0.000 NA
ATOM     26  C   UNL     1      48.135   9.252  18.482  0.00  0.00    +0.000 A 
ATOM     27  S   UNL     1      48.517  10.426  17.321  0.00  0.00    +0.000 S 
ATOM     28  C   UNL     1      48.783   9.238  16.137  0.00  0.00    +0.000 A 
ATOM     29  C   UNL     1      48.590   7.937  16.586  0.00  0.00    +0.000 A 
ATOM     30  C   UNL     1      48.214   7.946  17.999  0.00  0.00    +0.000 A 
BRANCH  22  32
ATOM     31  C   UNL     1      48.565   4.852  19.709  0.00  0.00    +0.000 C 
ATOM     32  O   UNL     1      47.989   5.629  18.659  0.00  0.00    +0.000 OA
ENDBRANCH  22  32
ENDBRANCH  18  29
ENDBRANCH   1  20
TORSDOF 8
ENDMDL
MODEL 6
REMARK VINA RESULT:    -7.195      1.807      3.507
REMARK INTER + INTRA:         -11.898
REMARK INTER:                 -10.874
REMARK INTRA:                  -1.024
REMARK UNBOUND:                -1.338
REMARK  Name = 
REMARK  9 active torsions:
REMARK  status: ('A' for Active; 'I' for Inactive)
REMARK    1  A    between atoms: C_1  and  O_2
REMARK    2  A    between atoms: O_2  and  C_3
REMARK    3  A    between atoms: C_10  and  C_11
REMARK    4  A    between atoms: N_13  and  C_14
REMARK    5  A    between atoms: C_14  and  C_15
REMARK    6  A    between atoms: C_18  and  C_19
REMARK    7  A    between atoms: C_19  and  O_20
REMARK    8  A    between atoms: O_20  and  C_21
REMARK    9  A    between atoms: C_21  and  C_22
REMARK                            x       y       z     vdW  Elec       q    Type
REMARK                         _______ _______ _______ _____ _____    ______ ____
ROOT
ATOM      1  C   UNL     1      47.595   4.536  15.024  0.00  0.00    +0.000 C 
ENDROOT
BRANCH   1   2
ATOM      2  C   UNL     1      46.629   4.560  13.870  0.00  0.00    +0.000 A 
ATOM      3  C   UNL     1      46.165   5.779  13.360  0.00  0.00    +0.000 A 
ATOM      4  C   UNL     1      45.217   5.804  12.335  0.00  0.00    +0.000 A 
ATOM      5  C   UNL     1      44.712   4.611  11.804  0.00  0.00    +0.000 A 
ATOM      6  C   UNL     1      45.184   3.390  12.304  0.00  0.00    +0.000 A 
ATOM      7  C   UNL     1      46.133   3.366  13.330  0.00  0.00    +0.000 A 
BRANCH   5   8
ATOM      8  C   UNL     1      43.689   4.645  10.695  0.00  0.00    +0.000 C 
BRANCH   8   9
ATOM      9  O   UNL     1      44.250   4.285   9.432  0.00  0.00    +0.000 OA
BRANCH   9  10
ATOM     10  C   UNL     1      44.375   2.873   9.275  0.00  0.00    +0.000 C 
BRANCH  10  11
ATOM     11  C   UNL     1      45.431   2.580   8.240  0.00  0.00    +0.000 A 
ATOM     12  C   UNL     1      45.771   3.548   7.282  0.00  0.00    +0.000 A 
ATOM     13  C   UNL     1      46.772   3.291   6.343  0.00  0.00    +0.000 A 
ATOM     14  C   UNL     1      47.428   2.067   6.362  0.00  0.00    +0.000 A 
ATOM     15  F   UNL     1      48.393   1.824   5.466  0.00  0.00    +0.000 F 
ATOM     16  C   UNL     1      47.098   1.091   7.295  0.00  0.00    +0.000 A 
ATOM     17  C   UNL     1      46.099   1.346   8.234  0.00  0.00    +0.000 A 
ENDBRANCH  10  11
ENDBRANCH   9  10
ENDBRANCH   8   9
ENDBRANCH   5   8
ENDBRANCH   1   2
BRANCH   1  20
ATOM     18  C   UNL     1      48.884   6.155  16.339  0.00  0.00    +0.000 C 
ATOM     19  O   UNL     1      49.698   5.283  16.640  0.00  0.00    +0.000 OA
ATOM     20  N   UNL     1      47.805   5.865  15.549  0.00  0.00    +0.000 N 
ATOM     21  H   UNL     1      47.149   6.589  15.288  0.00  0.00    +0.000 HD
BRANCH  18  29
ATOM     22  C   UNL     1      48.893   9.236  14.777  0.00  0.00    +0.000 A 
ATOM     23  N   UNL     1      48.984  10.537  14.435  0.00  0.00    +0.000 NA
ATOM     24  C   UNL     1      49.203  11.429  15.403  0.00  0.00    +0.000 A 
ATOM     25  N   UNL     1      49.342  11.181  16.701  0.00  0.00    +0.000 NA
ATOM     26  C   UNL     1      49.259   9.874  16.999  0.00  0.00    +0.000 A 
ATOM     27  S   UNL     1      49.406   9.375  18.613  0.00  0.00    +0.000 S 
ATOM     28  C   UNL     1      49.219   7.745  18.177  0.00  0.00    +0.000 A 
ATOM     29  C   UNL     1      49.043   7.540  16.814  0.00  0.00    +0.000 A 
ATOM     30  C   UNL     1      49.053   8.820  16.109  0.00  0.00    +0.000 A 
BRANCH  22  32
ATOM     31  C   UNL     1      49.788   8.154  12.915  0.00  0.00    +0.000 C 
ATOM     32  O   UNL     1      48.660   8.317  13.775  0.00  0.00    +0.000 OA
ENDBRANCH  22  32
ENDBRANCH  18  29
ENDBRANCH   1  20
TORSDOF 8
ENDMDL
MODEL 7
REMARK VINA RESULT:    -6.947      3.220      4.548
REMARK INTER + INTRA:         -11.534
REMARK INTER:                 -10.507
REMARK INTRA:                  -1.027
REMARK UNBOUND:                -1.338
REMARK  Name = 
REMARK  9 active torsions:
REMARK  status: ('A' for Active; 'I' for Inactive)
REMARK    1  A    between atoms: C_1  and  O_2
REMARK    2  A    between atoms: O_2  and  C_3
REMARK    3  A    between atoms: C_10  and  C_11
REMARK    4  A    between atoms: N_13  and  C_14
REMARK    5  A    between atoms: C_14  and  C_15
REMARK    6  A    between atoms: C_18  and  C_19
REMARK    7  A    between atoms: C_19  and  O_20
REMARK    8  A    between atoms: O_20  and  C_21
REMARK    9  A    between atoms: C_21  and  C_22
REMARK                            x       y       z     vdW  Elec       q    Type
REMARK                         _______ _______ _______ _____ _____    ______ ____
ROOT
ATOM      1  C   UNL     1      47.889   5.958  14.219  0.00  0.00    +0.000 C 
ENDROOT
BRANCH   1   2
ATOM      2  C   UNL     1      46.769   5.611  13.275  0.00  0.00    +0.000 A 
ATOM      3  C   UNL     1      46.709   6.195  12.003  0.00  0.00    +0.000 A 
ATOM      4  C   UNL     1      45.636   5.928  11.150  0.00  0.00    +0.000 A 
ATOM      5  C   UNL     1      44.601   5.076  11.555  0.00  0.00    +0.000 A 
ATOM      6  C   UNL     1      44.666   4.480  12.822  0.00  0.00    +0.000 A 
ATOM      7  C   UNL     1      45.740   4.748  13.674  0.00  0.00    +0.000 A 
BRANCH   5   8
ATOM      8  C   UNL     1      43.445   4.789  10.627  0.00  0.00    +0.000 C 
BRANCH   8   9
ATOM      9  O   UNL     1      43.874   4.207   9.395  0.00  0.00    +0.000 OA
BRANCH   9  10
ATOM     10  C   UNL     1      44.450   2.915   9.576  0.00  0.00    +0.000 C 
BRANCH  10  11
ATOM     11  C   UNL     1      45.460   2.666   8.486  0.00  0.00    +0.000 A 
ATOM     12  C   UNL     1      46.048   1.399   8.341  0.00  0.00    +0.000 A 
ATOM     13  C   UNL     1      46.959   1.158   7.312  0.00  0.00    +0.000 A 
ATOM     14  C   UNL     1      47.284   2.182   6.432  0.00  0.00    +0.000 A 
ATOM     15  F   UNL     1      48.152   1.947   5.440  0.00  0.00    +0.000 F 
ATOM     16  C   UNL     1      46.722   3.447   6.565  0.00  0.00    +0.000 A 
ATOM     17  C   UNL     1      45.811   3.690   7.592  0.00  0.00    +0.000 A 
ENDBRANCH  10  11
ENDBRANCH   9  10
ENDBRANCH   8   9
ENDBRANCH   5   8
ENDBRANCH   1   2
BRANCH   1  20
ATOM     18  C   UNL     1      49.639   7.674  14.255  0.00  0.00    +0.000 C 
ATOM     19  O   UNL     1      49.469   7.841  15.461  0.00  0.00    +0.000 OA
ATOM     20  N   UNL     1      48.889   6.765  13.560  0.00  0.00    +0.000 N 
ATOM     21  H   UNL     1      49.044   6.617  12.571  0.00  0.00    +0.000 HD
BRANCH  18  29
ATOM     22  C   UNL     1      53.061   8.030  14.565  0.00  0.00    +0.000 A 
ATOM     23  N   UNL     1      54.360   8.382  14.481  0.00  0.00    +0.000 NA
ATOM     24  C   UNL     1      54.719   9.243  13.525  0.00  0.00    +0.000 A 
ATOM     25  N   UNL     1      53.927   9.806  12.619  0.00  0.00    +0.000 NA
ATOM     26  C   UNL     1      52.641   9.441  12.744  0.00  0.00    +0.000 A 
ATOM     27  S   UNL     1      51.489  10.058  11.665  0.00  0.00    +0.000 S 
ATOM     28  C   UNL     1      50.239   9.206  12.434  0.00  0.00    +0.000 A 
ATOM     29  C   UNL     1      50.657   8.440  13.516  0.00  0.00    +0.000 A 
ATOM     30  C   UNL     1      52.102   8.571  13.693  0.00  0.00    +0.000 A 
BRANCH  22  32
ATOM     31  C   UNL     1      53.791   6.334  15.989  0.00  0.00    +0.000 C 
ATOM     32  O   UNL     1      52.695   7.135  15.548  0.00  0.00    +0.000 OA
ENDBRANCH  22  32
ENDBRANCH  18  29
ENDBRANCH   1  20
TORSDOF 8
ENDMDL
MODEL 8
REMARK VINA RESULT:    -6.777      2.611      3.218
REMARK INTER + INTRA:         -11.284
REMARK INTER:                  -9.498
REMARK INTRA:                  -1.786
REMARK UNBOUND:                -1.338
REMARK  Name = 
REMARK  9 active torsions:
REMARK  status: ('A' for Active; 'I' for Inactive)
REMARK    1  A    between atoms: C_1  and  O_2
REMARK    2  A    between atoms: O_2  and  C_3
REMARK    3  A    between atoms: C_10  and  C_11
REMARK    4  A    between atoms: N_13  and  C_14
REMARK    5  A    between atoms: C_14  and  C_15
REMARK    6  A    between atoms: C_18  and  C_19
REMARK    7  A    between atoms: C_19  and  O_20
REMARK    8  A    between atoms: O_20  and  C_21
REMARK    9  A    between atoms: C_21  and  C_22
REMARK                            x       y       z     vdW  Elec       q    Type
REMARK                         _______ _______ _______ _____ _____    ______ ____
ROOT
ATOM      1  C   UNL     1      48.092   8.478  11.974  0.00  0.00    +0.000 C 
ENDROOT
BRANCH   1   2
ATOM      2  C   UNL     1      47.023   7.458  12.265  0.00  0.00    +0.000 A 
ATOM      3  C   UNL     1      47.369   6.183  12.731  0.00  0.00    +0.000 A 
ATOM      4  C   UNL     1      46.387   5.213  12.938  0.00  0.00    +0.000 A 
ATOM      5  C   UNL     1      45.040   5.498  12.678  0.00  0.00    +0.000 A 
ATOM      6  C   UNL     1      44.691   6.777  12.225  0.00  0.00    +0.000 A 
ATOM      7  C   UNL     1      45.675   7.747  12.018  0.00  0.00    +0.000 A 
BRANCH   5   8
ATOM      8  C   UNL     1      43.982   4.445  12.906  0.00  0.00    +0.000 C 
BRANCH   8   9
ATOM      9  O   UNL     1      44.268   3.234  12.206  0.00  0.00    +0.000 OA
BRANCH   9  10
ATOM     10  C   UNL     1      43.565   3.143  10.968  0.00  0.00    +0.000 C 
BRANCH  10  11
ATOM     11  C   UNL     1      44.555   3.170   9.833  0.00  0.00    +0.000 A 
ATOM     12  C   UNL     1      45.033   1.971   9.280  0.00  0.00    +0.000 A 
ATOM     13  C   UNL     1      45.925   1.995   8.206  0.00  0.00    +0.000 A 
ATOM     14  C   UNL     1      46.340   3.215   7.689  0.00  0.00    +0.000 A 
ATOM     15  F   UNL     1      47.189   3.237   6.654  0.00  0.00    +0.000 F 
ATOM     16  C   UNL     1      45.888   4.414   8.229  0.00  0.00    +0.000 A 
ATOM     17  C   UNL     1      44.997   4.392   9.301  0.00  0.00    +0.000 A 
ENDBRANCH  10  11
ENDBRANCH   9  10
ENDBRANCH   8   9
ENDBRANCH   5   8
ENDBRANCH   1   2
BRANCH   1  20
ATOM     18  C   UNL     1      50.400   8.163  12.739  0.00  0.00    +0.000 C 
ATOM     19  O   UNL     1      50.747   7.845  11.603  0.00  0.00    +0.000 OA
ATOM     20  N   UNL     1      49.098   8.482  13.011  0.00  0.00    +0.000 N 
ATOM     21  H   UNL     1      48.820   8.762  13.943  0.00  0.00    +0.000 HD
BRANCH  18  29
ATOM     22  C   UNL     1      50.432   6.919  15.961  0.00  0.00    +0.000 A 
ATOM     23  N   UNL     1      50.691   6.599  17.245  0.00  0.00    +0.000 NA
ATOM     24  C   UNL     1      51.848   7.004  17.774  0.00  0.00    +0.000 A 
ATOM     25  N   UNL     1      52.803   7.702  17.168  0.00  0.00    +0.000 NA
ATOM     26  C   UNL     1      52.501   8.012  15.897  0.00  0.00    +0.000 A 
ATOM     27  S   UNL     1      53.611   8.895  14.968  0.00  0.00    +0.000 S 
ATOM     28  C   UNL     1      52.572   8.882  13.625  0.00  0.00    +0.000 A 
ATOM     29  C   UNL     1      51.372   8.216  13.844  0.00  0.00    +0.000 A 
ATOM     30  C   UNL     1      51.336   7.682  15.204  0.00  0.00    +0.000 A 
BRANCH  22  32
ATOM     31  C   UNL     1      48.578   5.532  16.238  0.00  0.00    +0.000 C 
ATOM     32  O   UNL     1      49.239   6.493  15.415  0.00  0.00    +0.000 OA
ENDBRANCH  22  32
ENDBRANCH  18  29
ENDBRANCH   1  20
TORSDOF 8
ENDMDL
MODEL 9
REMARK VINA RESULT:    -6.739      4.640      6.799
REMARK INTER + INTRA:         -11.228
REMARK INTER:                 -10.137
REMARK INTRA:                  -1.091
REMARK UNBOUND:                -1.338
REMARK  Name = 
REMARK  9 active torsions:
REMARK  status: ('A' for Active; 'I' for Inactive)
REMARK    1  A    between atoms: C_1  and  O_2
REMARK    2  A    between atoms: O_2  and  C_3
REMARK    3  A    between atoms: C_10  and  C_11
REMARK    4  A    between atoms: N_13  and  C_14
REMARK    5  A    between atoms: C_14  and  C_15
REMARK    6  A    between atoms: C_18  and  C_19
REMARK    7  A    between atoms: C_19  and  O_20
REMARK    8  A    between atoms: O_20  and  C_21
REMARK    9  A    between atoms: C_21  and  C_22
REMARK                            x       y       z     vdW  Elec       q    Type
REMARK                         _______ _______ _______ _____ _____    ______ ____
ROOT
ATOM      1  C   UNL     1      48.399   8.169  12.589  0.00  0.00    +0.000 C 
ENDROOT
BRANCH   1   2
ATOM      2  C   UNL     1      47.377   7.077  12.419  0.00  0.00    +0.000 A 
ATOM      3  C   UNL     1      47.187   6.123  13.428  0.00  0.00    +0.000 A 
ATOM      4  C   UNL     1      46.289   5.070  13.246  0.00  0.00    +0.000 A 
ATOM      5  C   UNL     1      45.568   4.947  12.051  0.00  0.00    +0.000 A 
ATOM      6  C   UNL     1      45.748   5.907  11.047  0.00  0.00    +0.000 A 
ATOM      7  C   UNL     1      46.647   6.961  11.229  0.00  0.00    +0.000 A 
BRANCH   5   8
ATOM      8  C   UNL     1      44.597   3.806  11.862  0.00  0.00    +0.000 C 
BRANCH   8   9
ATOM      9  O   UNL     1      45.093   2.821  10.955  0.00  0.00    +0.000 OA
BRANCH   9  10
ATOM     10  C   UNL     1      44.441   2.873   9.687  0.00  0.00    +0.000 C 
BRANCH  10  11
ATOM     11  C   UNL     1      45.460   2.660   8.598  0.00  0.00    +0.000 A 
ATOM     12  C   UNL     1      46.005   1.385   8.376  0.00  0.00    +0.000 A 
ATOM     13  C   UNL     1      46.924   1.179   7.346  0.00  0.00    +0.000 A 
ATOM     14  C   UNL     1      47.299   2.247   6.541  0.00  0.00    +0.000 A 
ATOM     15  F   UNL     1      48.175   2.047   5.548  0.00  0.00    +0.000 F 
ATOM     16  C   UNL     1      46.780   3.520   6.750  0.00  0.00    +0.000 A 
ATOM     17  C   UNL     1      45.862   3.727   7.779  0.00  0.00    +0.000 A 
ENDBRANCH  10  11
ENDBRANCH   9  10
ENDBRANCH   8   9
ENDBRANCH   5   8
ENDBRANCH   1   2
BRANCH   1  20
ATOM     18  C   UNL     1      50.708   8.330  11.780  0.00  0.00    +0.000 C 
ATOM     19  O   UNL     1      51.104   8.570  12.919  0.00  0.00    +0.000 OA
ATOM     20  N   UNL     1      49.379   8.129  11.528  0.00  0.00    +0.000 N 
ATOM     21  H   UNL     1      49.059   7.914  10.593  0.00  0.00    +0.000 HD
BRANCH  18  29
ATOM     22  C   UNL     1      52.226  10.678   9.751  0.00  0.00    +0.000 A 
ATOM     23  N   UNL     1      52.906  11.355   8.803  0.00  0.00    +0.000 NA
ATOM     24  C   UNL     1      53.637  10.655   7.931  0.00  0.00    +0.000 A 
ATOM     25  N   UNL     1      53.781   9.335   7.887  0.00  0.00    +0.000 NA
ATOM     26  C   UNL     1      53.078   8.697   8.838  0.00  0.00    +0.000 A 
ATOM     27  S   UNL     1      53.151   7.006   8.935  0.00  0.00    +0.000 S 
ATOM     28  C   UNL     1      52.082   6.988  10.254  0.00  0.00    +0.000 A 
ATOM     29  C   UNL     1      51.648   8.247  10.650  0.00  0.00    +0.000 A 
ATOM     30  C   UNL     1      52.258   9.274   9.807  0.00  0.00    +0.000 A 
BRANCH  22  32
ATOM     31  C   UNL     1      50.111  11.516  10.261  0.00  0.00    +0.000 C 
ATOM     32  O   UNL     1      51.479  11.403  10.655  0.00  0.00    +0.000 OA
ENDBRANCH  22  32
ENDBRANCH  18  29
ENDBRANCH   1  20
TORSDOF 8
ENDMDL
