MODEL 1
REMARK VINA RESULT:    -8.239      0.000      0.000
REMARK INTER + INTRA:         -12.277
REMARK INTER:                 -11.611
REMARK INTRA:                  -0.666
REMARK UNBOUND:                -0.666
REMARK  Name = 
REMARK  8 active torsions:
REMARK  status: ('A' for Active; 'I' for Inactive)
REMARK    1  A    between atoms: C_1  and  N_2
REMARK    2  A    between atoms: N_2  and  C_3
REMARK    3  A    between atoms: N_2  and  C_24
REMARK    4  A    between atoms: C_3  and  C_4
REMARK    5  A    between atoms: C_7  and  C_8
REMARK    6  A    between atoms: C_8  and  N_9
REMARK    7  A    between atoms: C_10  and  C_12
REMARK    8  A    between atoms: C_24  and  C_25
REMARK                            x       y       z     vdW  Elec       q    Type
REMARK                         _______ _______ _______ _____ _____    ______ ____
ROOT
ATOM      1  C   UNL     1      45.870   4.193  12.636  0.00  0.00    +0.000 A 
ATOM      2  C   UNL     1      46.146   5.507  12.229  0.00  0.00    +0.000 A 
ATOM      3  C   UNL     1      46.950   6.345  13.006  0.00  0.00    +0.000 A 
ATOM      4  C   UNL     1      47.489   5.889  14.216  0.00  0.00    +0.000 A 
ATOM      5  C   UNL     1      47.193   4.586  14.638  0.00  0.00    +0.000 A 
ATOM      6  C   UNL     1      46.405   3.741  13.850  0.00  0.00    +0.000 A 
ENDROOT
BRANCH   1   7
ATOM      7  C   UNL     1      45.007   3.287  11.777  0.00  0.00    +0.000 C 
BRANCH   7   9
ATOM      8  C   UNL     1      43.509   4.658  10.431  0.00  0.00    +0.000 C 
ATOM      9  N   UNL     1      44.710   3.810  10.426  0.00  0.00    +0.000 NA
BRANCH   9  10
ATOM     10  C   UNL     1      44.504   2.661   9.504  0.00  0.00    +0.000 C 
BRANCH  10  11
ATOM     11  C   UNL     1      45.614   2.475   8.482  0.00  0.00    +0.000 A 
ATOM     12  C   UNL     1      45.996   3.535   7.661  0.00  0.00    +0.000 A 
ATOM     13  C   UNL     1      46.942   3.308   6.666  0.00  0.00    +0.000 A 
ATOM     14  C   UNL     1      47.485   2.038   6.519  0.00  0.00    +0.000 A 
ATOM     15  C   UNL     1      47.064   1.042   7.384  0.00  0.00    +0.000 A 
ATOM     16  N   UNL     1      46.147   1.230   8.359  0.00  0.00    +0.000 NA
ENDBRANCH  10  11
ENDBRANCH   9  10
ENDBRANCH   7   9
ENDBRANCH   1   7
BRANCH   4  17
ATOM     17  C   UNL     1      48.326   6.798  15.074  0.00  0.00    +0.000 C 
BRANCH  17  18
ATOM     18  N   UNL     1      49.435   6.081  15.654  0.00  0.00    +0.000 N 
ATOM     19  C   UNL     1      49.439   5.730  16.978  0.00  0.00    +0.000 C 
ATOM     20  O   UNL     1      48.481   5.958  17.713  0.00  0.00    +0.000 OA
ATOM     21  H   UNL     1      50.305   6.076  15.130  0.00  0.00    +0.000 HD
BRANCH  19  22
ATOM     22  C   UNL     1      50.624   5.015  17.468  0.00  0.00    +0.000 A 
ATOM     23  C   UNL     1      51.672   5.730  18.030  0.00  0.00    +0.000 A 
ATOM     24  S   UNL     1      52.956   4.751  18.577  0.00  0.00    +0.000 S 
ATOM     25  C   UNL     1      52.178   3.337  18.037  0.00  0.00    +0.000 A 
ATOM     26  N   UNL     1      52.770   2.118  18.176  0.00  0.00    +0.000 NA
ATOM     27  C   UNL     1      52.080   1.135  17.698  0.00  0.00    +0.000 A 
ATOM     28  N   UNL     1      50.854   1.260  17.103  0.00  0.00    +0.000 N 
ATOM     29  C   UNL     1      50.205   2.465  16.968  0.00  0.00    +0.000 A 
ATOM     30  O   UNL     1      49.086   2.532  16.471  0.00  0.00    +0.000 OA
ATOM     31  C   UNL     1      50.944   3.606  17.472  0.00  0.00    +0.000 A 
ATOM     32  H   UNL     1      50.363   0.447  16.759  0.00  0.00    +0.000 HD
ENDBRANCH  19  22
ENDBRANCH  17  18
ENDBRANCH   4  17
TORSDOF 7
ENDMDL
MODEL 2
REMARK VINA RESULT:    -7.956      2.319      2.816
REMARK INTER + INTRA:         -11.878
REMARK INTER:                 -11.430
REMARK INTRA:                  -0.448
REMARK UNBOUND:                -0.666
REMARK  Name = 
REMARK  8 active torsions:
REMARK  status: ('A' for Active; 'I' for Inactive)
REMARK    1  A    between atoms: C_1  and  N_2
REMARK    2  A    between atoms: N_2  and  C_3
REMARK    3  A    between atoms: N_2  and  C_24
REMARK    4  A    between atoms: C_3  and  C_4
REMARK    5  A    between atoms: C_7  and  C_8
REMARK    6  A    between atoms: C_8  and  N_9
REMARK    7  A    between atoms: C_10  and  C_12
REMARK    8  A    between atoms: C_24  and  C_25
REMARK                            x       y       z     vdW  Elec       q    Type
REMARK                         _______ _______ _______ _____ _____    ______ ____
ROOT
ATOM      1  C   UNL     1      44.613   5.386  10.810  0.00  0.00    +0.000 A 
ATOM      2  C   UNL     1      45.855   5.844  10.347  0.00  0.00    +0.000 A 
ATOM      3  C   UNL     1      46.678   6.632  11.156  0.00  0.00    +0.000 A 
ATOM      4  C   UNL     1      46.269   6.988  12.447  0.00  0.00    +0.000 A 
ATOM      5  C   UNL     1      45.017   6.555  12.903  0.00  0.00    +0.000 A 
ATOM      6  C   UNL     1      44.203   5.749  12.100  0.00  0.00    +0.000 A 
ENDROOT
BRANCH   1   7
ATOM      7  C   UNL     1      43.735   4.519   9.927  0.00  0.00    +0.000 C 
BRANCH   7   9
ATOM      8  C   UNL     1      43.402   2.602  11.393  0.00  0.00    +0.000 C 
ATOM      9  N   UNL     1      43.925   3.063  10.098  0.00  0.00    +0.000 NA
BRANCH   9  10
ATOM     10  C   UNL     1      45.378   2.758  10.012  0.00  0.00    +0.000 C 
BRANCH  10  11
ATOM     11  C   UNL     1      45.888   2.548   8.595  0.00  0.00    +0.000 A 
ATOM     12  C   UNL     1      46.328   1.289   8.188  0.00  0.00    +0.000 A 
ATOM     13  C   UNL     1      46.884   1.149   6.920  0.00  0.00    +0.000 A 
ATOM     14  C   UNL     1      46.982   2.260   6.092  0.00  0.00    +0.000 A 
ATOM     15  C   UNL     1      46.508   3.472   6.565  0.00  0.00    +0.000 A 
ATOM     16  N   UNL     1      45.965   3.641   7.790  0.00  0.00    +0.000 NA
ENDBRANCH  10  11
ENDBRANCH   9  10
ENDBRANCH   7   9
ENDBRANCH   1   7
BRANCH   4  17
ATOM     17  C   UNL     1      47.134   7.866  13.312  0.00  0.00    +0.000 C 
BRANCH  17  18
ATOM     18  N   UNL     1      47.503   7.187  14.529  0.00  0.00    +0.000 N 
ATOM     19  C   UNL     1      48.812   6.905  14.817  0.00  0.00    +0.000 C 
ATOM     20  O   UNL     1      49.730   7.266  14.084  0.00  0.00    +0.000 OA
ATOM     21  H   UNL     1      46.763   6.702  15.028  0.00  0.00    +0.000 HD
BRANCH  19  22
ATOM     22  C   UNL     1      49.075   6.199  16.077  0.00  0.00    +0.000 A 
ATOM     23  C   UNL     1      50.090   6.642  16.912  0.00  0.00    +0.000 A 
ATOM     24  S   UNL     1      50.245   5.735  18.347  0.00  0.00    +0.000 S 
ATOM     25  C   UNL     1      48.991   4.684  17.881  0.00  0.00    +0.000 A 
ATOM     26  N   UNL     1      48.628   3.635  18.671  0.00  0.00    +0.000 NA
ATOM     27  C   UNL     1      47.681   2.904  18.182  0.00  0.00    +0.000 A 
ATOM     28  N   UNL     1      47.061   3.130  16.982  0.00  0.00    +0.000 N 
ATOM     29  C   UNL     1      47.372   4.193  16.167  0.00  0.00    +0.000 A 
ATOM     30  O   UNL     1      46.763   4.391  15.121  0.00  0.00    +0.000 OA
ATOM     31  C   UNL     1      48.444   5.037  16.660  0.00  0.00    +0.000 A 
ATOM     32  H   UNL     1      46.319   2.525  16.664  0.00  0.00    +0.000 HD
ENDBRANCH  19  22
ENDBRANCH  17  18
ENDBRANCH   4  17
TORSDOF 7
ENDMDL
MODEL 3
REMARK VINA RESULT:    -7.952      2.263      2.752
REMARK INTER + INTRA:         -11.871
REMARK INTER:                 -10.944
REMARK INTRA:                  -0.927
REMARK UNBOUND:                -0.666
REMARK  Name = 
REMARK  8 active torsions:
REMARK  status: ('A' for Active; 'I' for Inactive)
REMARK    1  A    between atoms: C_1  and  N_2
REMARK    2  A    between atoms: N_2  and  C_3
REMARK    3  A    between atoms: N_2  and  C_24
REMARK    4  A    between atoms: C_3  and  C_4
REMARK    5  A    between atoms: C_7  and  C_8
REMARK    6  A    between atoms: C_8  and  N_9
REMARK    7  A    between atoms: C_10  and  C_12
REMARK    8  A    between atoms: C_24  and  C_25
REMARK                            x       y       z     vdW  Elec       q    Type
REMARK                         _______ _______ _______ _____ _____    ______ ____
ROOT
ATOM      1  C   UNL     1      46.088   4.603  12.462  0.00  0.00    +0.000 A 
ATOM      2  C   UNL     1      46.709   4.433  13.709  0.00  0.00    +0.000 A 
ATOM      3  C   UNL     1      47.473   5.456  14.276  0.00  0.00    +0.000 A 
ATOM      4  C   UNL     1      47.642   6.671  13.601  0.00  0.00    +0.000 A 
ATOM      5  C   UNL     1      47.045   6.835  12.344  0.00  0.00    +0.000 A 
ATOM      6  C   UNL     1      46.263   5.818  11.787  0.00  0.00    +0.000 A 
ENDROOT
BRANCH   1   7
ATOM      7  C   UNL     1      45.248   3.490  11.864  0.00  0.00    +0.000 C 
BRANCH   7   9
ATOM      8  C   UNL     1      43.023   4.313  11.306  0.00  0.00    +0.000 C 
ATOM      9  N   UNL     1      44.337   3.913  10.779  0.00  0.00    +0.000 NA
BRANCH   9  10
ATOM     10  C   UNL     1      44.168   2.782   9.829  0.00  0.00    +0.000 C 
BRANCH  10  11
ATOM     11  C   UNL     1      45.294   2.646   8.814  0.00  0.00    +0.000 A 
ATOM     12  C   UNL     1      45.668   3.739   8.033  0.00  0.00    +0.000 A 
ATOM     13  C   UNL     1      46.630   3.560   7.043  0.00  0.00    +0.000 A 
ATOM     14  C   UNL     1      47.194   2.303   6.862  0.00  0.00    +0.000 A 
ATOM     15  C   UNL     1      46.779   1.274   7.689  0.00  0.00    +0.000 A 
ATOM     16  N   UNL     1      45.847   1.415   8.657  0.00  0.00    +0.000 NA
ENDBRANCH  10  11
ENDBRANCH   9  10
ENDBRANCH   7   9
ENDBRANCH   1   7
BRANCH   4  17
ATOM     17  C   UNL     1      48.494   7.764  14.190  0.00  0.00    +0.000 C 
BRANCH  17  18
ATOM     18  N   UNL     1      48.468   7.717  15.631  0.00  0.00    +0.000 N 
ATOM     19  C   UNL     1      49.481   7.125  16.339  0.00  0.00    +0.000 C 
ATOM     20  O   UNL     1      50.475   6.662  15.787  0.00  0.00    +0.000 OA
ATOM     21  H   UNL     1      47.576   7.896  16.082  0.00  0.00    +0.000 HD
BRANCH  19  22
ATOM     22  C   UNL     1      49.348   7.120  17.802  0.00  0.00    +0.000 A 
ATOM     23  C   UNL     1      49.538   8.298  18.510  0.00  0.00    +0.000 A 
ATOM     24  S   UNL     1      49.319   8.131  20.192  0.00  0.00    +0.000 S 
ATOM     25  C   UNL     1      49.009   6.465  20.040  0.00  0.00    +0.000 A 
ATOM     26  N   UNL     1      48.767   5.696  21.138  0.00  0.00    +0.000 NA
ATOM     27  C   UNL     1      48.576   4.444  20.879  0.00  0.00    +0.000 A 
ATOM     28  N   UNL     1      48.598   3.895  19.625  0.00  0.00    +0.000 N 
ATOM     29  C   UNL     1      48.808   4.637  18.486  0.00  0.00    +0.000 A 
ATOM     30  O   UNL     1      48.774   4.118  17.375  0.00  0.00    +0.000 OA
ATOM     31  C   UNL     1      49.047   6.048  18.721  0.00  0.00    +0.000 A 
ATOM     32  H   UNL     1      48.430   2.909  19.492  0.00  0.00    +0.000 HD
ENDBRANCH  19  22
ENDBRANCH  17  18
ENDBRANCH   4  17
TORSDOF 7
ENDMDL
MODEL 4
REMARK VINA RESULT:    -7.724      1.568      1.845
REMARK INTER + INTRA:         -11.550
REMARK INTER:                 -10.392
REMARK INTRA:                  -1.159
REMARK UNBOUND:                -0.666
REMARK  Name = 
REMARK  8 active torsions:
REMARK  status: ('A' for Active; 'I' for Inactive)
REMARK    1  A    between atoms: C_1  and  N_2
REMARK    2  A    between atoms: N_2  and  C_3
REMARK    3  A    between atoms: N_2  and  C_24
REMARK    4  A    between atoms: C_3  and  C_4
REMARK    5  A    between atoms: C_7  and  C_8
REMARK    6  A    between atoms: C_8  and  N_9
REMARK    7  A    between atoms: C_10  and  C_12
REMARK    8  A    between atoms: C_24  and  C_25
REMARK                            x       y       z     vdW  Elec       q    Type
REMARK                         _______ _______ _______ _____ _____    ______ ____
ROOT
ATOM      1  C   UNL     1      46.010   5.135  12.460  0.00  0.00    +0.000 A 
ATOM      2  C   UNL     1      46.338   6.177  11.579  0.00  0.00    +0.000 A 
ATOM      3  C   UNL     1      47.374   7.066  11.873  0.00  0.00    +0.000 A 
ATOM      4  C   UNL     1      48.101   6.940  13.064  0.00  0.00    +0.000 A 
ATOM      5  C   UNL     1      47.758   5.917  13.958  0.00  0.00    +0.000 A 
ATOM      6  C   UNL     1      46.734   5.014  13.653  0.00  0.00    +0.000 A 
ENDROOT
BRANCH   1   7
ATOM      7  C   UNL     1      44.892   4.166  12.122  0.00  0.00    +0.000 C 
BRANCH   7   9
ATOM      8  C   UNL     1      42.777   5.050  11.296  0.00  0.00    +0.000 C 
ATOM      9  N   UNL     1      44.100   4.523  10.927  0.00  0.00    +0.000 NA
BRANCH   9  10
ATOM     10  C   UNL     1      43.933   3.308  10.085  0.00  0.00    +0.000 C 
BRANCH  10  11
ATOM     11  C   UNL     1      45.061   3.078   9.091  0.00  0.00    +0.000 A 
ATOM     12  C   UNL     1      45.572   4.144   8.352  0.00  0.00    +0.000 A 
ATOM     13  C   UNL     1      46.532   3.888   7.378  0.00  0.00    +0.000 A 
ATOM     14  C   UNL     1      46.961   2.582   7.171  0.00  0.00    +0.000 A 
ATOM     15  C   UNL     1      46.416   1.582   7.957  0.00  0.00    +0.000 A 
ATOM     16  N   UNL     1      45.481   1.798   8.909  0.00  0.00    +0.000 NA
ENDBRANCH  10  11
ENDBRANCH   9  10
ENDBRANCH   7   9
ENDBRANCH   1   7
BRANCH   4  17
ATOM     17  C   UNL     1      49.195   7.916  13.403  0.00  0.00    +0.000 C 
BRANCH  17  18
ATOM     18  N   UNL     1      50.241   7.274  14.159  0.00  0.00    +0.000 N 
ATOM     19  C   UNL     1      50.396   7.512  15.500  0.00  0.00    +0.000 C 
ATOM     20  O   UNL     1      49.622   8.231  16.125  0.00  0.00    +0.000 OA
ATOM     21  H   UNL     1      51.002   6.857  13.631  0.00  0.00    +0.000 HD
BRANCH  19  22
ATOM     22  C   UNL     1      51.502   6.816  16.170  0.00  0.00    +0.000 A 
ATOM     23  C   UNL     1      52.788   7.332  16.084  0.00  0.00    +0.000 A 
ATOM     24  S   UNL     1      53.950   6.427  16.941  0.00  0.00    +0.000 S 
ATOM     25  C   UNL     1      52.785   5.283  17.419  0.00  0.00    +0.000 A 
ATOM     26  N   UNL     1      53.134   4.201  18.169  0.00  0.00    +0.000 NA
ATOM     27  C   UNL     1      52.155   3.401  18.436  0.00  0.00    +0.000 A 
ATOM     28  N   UNL     1      50.861   3.588  18.028  0.00  0.00    +0.000 N 
ATOM     29  C   UNL     1      50.457   4.680  17.297  0.00  0.00    +0.000 A 
ATOM     30  O   UNL     1      49.280   4.838  16.990  0.00  0.00    +0.000 OA
ATOM     31  C   UNL     1      51.521   5.603  16.953  0.00  0.00    +0.000 A 
ATOM     32  H   UNL     1      50.141   2.928  18.281  0.00  0.00    +0.000 HD
ENDBRANCH  19  22
ENDBRANCH  17  18
ENDBRANCH   4  17
TORSDOF 7
ENDMDL
MODEL 5
REMARK VINA RESULT:    -7.653      2.694      3.507
REMARK INTER + INTRA:         -11.451
REMARK INTER:                 -10.479
REMARK INTRA:                  -0.972
REMARK UNBOUND:                -0.666
REMARK  Name = 
REMARK  8 active torsions:
REMARK  status: ('A' for Active; 'I' for Inactive)
REMARK    1  A    between atoms: C_1  and  N_2
REMARK    2  A    between atoms: N_2  and  C_3
REMARK    3  A    between atoms: N_2  and  C_24
REMARK    4  A    between atoms: C_3  and  C_4
REMARK    5  A    between atoms: C_7  and  C_8
REMARK    6  A    between atoms: C_8  and  N_9
REMARK    7  A    between atoms: C_10  and  C_12
REMARK    8  A    between atoms: C_24  and  C_25
REMARK                            x       y       z     vdW  Elec       q    Type
REMARK                         _______ _______ _______ _____ _____    ______ ____
ROOT
ATOM      1  C   UNL     1      45.822   4.771  11.759  0.00  0.00    +0.000 A 
ATOM      2  C   UNL     1      45.461   5.882  10.982  0.00  0.00    +0.000 A 
ATOM      3  C   UNL     1      45.722   7.182  11.422  0.00  0.00    +0.000 A 
ATOM      4  C   UNL     1      46.340   7.401  12.659  0.00  0.00    +0.000 A 
ATOM      5  C   UNL     1      46.677   6.295  13.450  0.00  0.00    +0.000 A 
ATOM      6  C   UNL     1      46.435   4.993  13.000  0.00  0.00    +0.000 A 
ENDROOT
BRANCH   1   7
ATOM      7  C   UNL     1      45.547   3.364  11.264  0.00  0.00    +0.000 C 
BRANCH   7   9
ATOM      8  C   UNL     1      43.164   2.921  11.507  0.00  0.00    +0.000 C 
ATOM      9  N   UNL     1      44.258   3.192  10.562  0.00  0.00    +0.000 NA
BRANCH   9  10
ATOM     10  C   UNL     1      44.381   2.059   9.607  0.00  0.00    +0.000 C 
BRANCH  10  11
ATOM     11  C   UNL     1      45.474   2.239   8.564  0.00  0.00    +0.000 A 
ATOM     12  C   UNL     1      45.590   3.444   7.873  0.00  0.00    +0.000 A 
ATOM     13  C   UNL     1      46.532   3.545   6.853  0.00  0.00    +0.000 A 
ATOM     14  C   UNL     1      47.333   2.450   6.553  0.00  0.00    +0.000 A 
ATOM     15  C   UNL     1      47.165   1.294   7.296  0.00  0.00    +0.000 A 
ATOM     16  N   UNL     1      46.259   1.163   8.290  0.00  0.00    +0.000 NA
ENDBRANCH  10  11
ENDBRANCH   9  10
ENDBRANCH   7   9
ENDBRANCH   1   7
BRANCH   4  17
ATOM     17  C   UNL     1      46.591   8.799  13.156  0.00  0.00    +0.000 C 
BRANCH  17  18
ATOM     18  N   UNL     1      46.942   8.794  14.554  0.00  0.00    +0.000 N 
ATOM     19  C   UNL     1      48.245   8.909  14.960  0.00  0.00    +0.000 C 
ATOM     20  O   UNL     1      49.162   9.077  14.159  0.00  0.00    +0.000 OA
ATOM     21  H   UNL     1      46.241   8.448  15.203  0.00  0.00    +0.000 HD
BRANCH  19  22
ATOM     22  C   UNL     1      48.492   8.878  16.407  0.00  0.00    +0.000 A 
ATOM     23  C   UNL     1      48.245  10.013  17.167  0.00  0.00    +0.000 A 
ATOM     24  S   UNL     1      48.552   9.804  18.831  0.00  0.00    +0.000 S 
ATOM     25  C   UNL     1      49.073   8.203  18.589  0.00  0.00    +0.000 A 
ATOM     26  N   UNL     1      49.514   7.446  19.632  0.00  0.00    +0.000 NA
ATOM     27  C   UNL     1      49.905   6.259  19.300  0.00  0.00    +0.000 A 
ATOM     28  N   UNL     1      49.888   5.761  18.025  0.00  0.00    +0.000 N 
ATOM     29  C   UNL     1      49.423   6.477  16.947  0.00  0.00    +0.000 A 
ATOM     30  O   UNL     1      49.380   5.980  15.826  0.00  0.00    +0.000 OA
ATOM     31  C   UNL     1      48.989   7.824  17.260  0.00  0.00    +0.000 A 
ATOM     32  H   UNL     1      50.199   4.819  17.836  0.00  0.00    +0.000 HD
ENDBRANCH  19  22
ENDBRANCH  17  18
ENDBRANCH   4  17
TORSDOF 7
ENDMDL
MODEL 6
REMARK VINA RESULT:    -7.411      3.780      8.982
REMARK INTER + INTRA:         -11.110
REMARK INTER:                  -9.509
REMARK INTRA:                  -1.601
REMARK UNBOUND:                -0.666
REMARK  Name = 
REMARK  8 active torsions:
REMARK  status: ('A' for Active; 'I' for Inactive)
REMARK    1  A    between atoms: C_1  and  N_2
REMARK    2  A    between atoms: N_2  and  C_3
REMARK    3  A    between atoms: N_2  and  C_24
REMARK    4  A    between atoms: C_3  and  C_4
REMARK    5  A    between atoms: C_7  and  C_8
REMARK    6  A    between atoms: C_8  and  N_9
REMARK    7  A    between atoms: C_10  and  C_12
REMARK    8  A    between atoms: C_24  and  C_25
REMARK                            x       y       z     vdW  Elec       q    Type
REMARK                         _______ _______ _______ _____ _____    ______ ____
ROOT
ATOM      1  C   UNL     1      49.045   7.844  15.950  0.00  0.00    +0.000 A 
ATOM      2  C   UNL     1      48.635   9.042  15.346  0.00  0.00    +0.000 A 
ATOM      3  C   UNL     1      48.068   9.045  14.069  0.00  0.00    +0.000 A 
ATOM      4  C   UNL     1      47.907   7.846  13.362  0.00  0.00    +0.000 A 
ATOM      5  C   UNL     1      48.340   6.652  13.952  0.00  0.00    +0.000 A 
ATOM      6  C   UNL     1      48.888   6.647  15.239  0.00  0.00    +0.000 A 
ENDROOT
BRANCH   1   7
ATOM      7  C   UNL     1      49.645   7.851  17.344  0.00  0.00    +0.000 C 
BRANCH   7   9
ATOM      8  C   UNL     1      48.668   8.787  19.370  0.00  0.00    +0.000 C 
ATOM      9  N   UNL     1      48.675   7.647  18.440  0.00  0.00    +0.000 NA
BRANCH   9  10
ATOM     10  C   UNL     1      49.041   6.408  19.176  0.00  0.00    +0.000 C 
BRANCH  10  11
ATOM     11  C   UNL     1      48.707   5.122  18.436  0.00  0.00    +0.000 A 
ATOM     12  C   UNL     1      49.717   4.216  18.116  0.00  0.00    +0.000 A 
ATOM     13  C   UNL     1      49.399   3.098  17.350  0.00  0.00    +0.000 A 
ATOM     14  C   UNL     1      48.088   2.910  16.929  0.00  0.00    +0.000 A 
ATOM     15  C   UNL     1      47.141   3.848  17.303  0.00  0.00    +0.000 A 
ATOM     16  N   UNL     1      47.418   4.944  18.043  0.00  0.00    +0.000 NA
ENDBRANCH  10  11
ENDBRANCH   9  10
ENDBRANCH   7   9
ENDBRANCH   1   7
BRANCH   4  17
ATOM     17  C   UNL     1      47.330   7.847  11.972  0.00  0.00    +0.000 C 
BRANCH  17  18
ATOM     18  N   UNL     1      46.694   6.587  11.678  0.00  0.00    +0.000 N 
ATOM     19  C   UNL     1      45.332   6.448  11.737  0.00  0.00    +0.000 C 
ATOM     20  O   UNL     1      44.593   7.398  11.985  0.00  0.00    +0.000 OA
ATOM     21  H   UNL     1      47.284   5.760  11.684  0.00  0.00    +0.000 HD
BRANCH  19  22
ATOM     22  C   UNL     1      44.790   5.118  11.433  0.00  0.00    +0.000 A 
ATOM     23  C   UNL     1      44.043   4.447  12.391  0.00  0.00    +0.000 A 
ATOM     24  S   UNL     1      43.460   2.932  11.871  0.00  0.00    +0.000 S 
ATOM     25  C   UNL     1      44.227   3.096  10.361  0.00  0.00    +0.000 A 
ATOM     26  N   UNL     1      44.150   2.107   9.427  0.00  0.00    +0.000 NA
ATOM     27  C   UNL     1      44.802   2.353   8.338  0.00  0.00    +0.000 A 
ATOM     28  N   UNL     1      45.515   3.496   8.097  0.00  0.00    +0.000 N 
ATOM     29  C   UNL     1      45.595   4.533   8.997  0.00  0.00    +0.000 A 
ATOM     30  O   UNL     1      46.205   5.562   8.727  0.00  0.00    +0.000 OA
ATOM     31  C   UNL     1      44.896   4.302  10.246  0.00  0.00    +0.000 A 
ATOM     32  H   UNL     1      45.993   3.629   7.218  0.00  0.00    +0.000 HD
ENDBRANCH  19  22
ENDBRANCH  17  18
ENDBRANCH   4  17
TORSDOF 7
ENDMDL
MODEL 7
REMARK VINA RESULT:    -7.402      2.737      3.766
REMARK INTER + INTRA:         -11.097
REMARK INTER:                 -10.553
REMARK INTRA:                  -0.544
REMARK UNBOUND:                -0.666
REMARK  Name = 
REMARK  8 active torsions:
REMARK  status: ('A' for Active; 'I' for Inactive)
REMARK    1  A    between atoms: C_1  and  N_2
REMARK    2  A    between atoms: N_2  and  C_3
REMARK    3  A    between atoms: N_2  and  C_24
REMARK    4  A    between atoms: C_3  and  C_4
REMARK    5  A    between atoms: C_7  and  C_8
REMARK    6  A    between atoms: C_8  and  N_9
REMARK    7  A    between atoms: C_10  and  C_12
REMARK    8  A    between atoms: C_24  and  C_25
REMARK                            x       y       z     vdW  Elec       q    Type
REMARK                         _______ _______ _______ _____ _____    ______ ____
ROOT
ATOM      1  C   UNL     1      44.811   5.307  11.407  0.00  0.00    +0.000 A 
ATOM      2  C   UNL     1      45.736   6.179  10.814  0.00  0.00    +0.000 A 
ATOM      3  C   UNL     1      46.787   6.724  11.556  0.00  0.00    +0.000 A 
ATOM      4  C   UNL     1      46.930   6.416  12.914  0.00  0.00    +0.000 A 
ATOM      5  C   UNL     1      45.993   5.566  13.516  0.00  0.00    +0.000 A 
ATOM      6  C   UNL     1      44.953   5.004  12.768  0.00  0.00    +0.000 A 
ENDROOT
BRANCH   1   7
ATOM      7  C   UNL     1      43.682   4.709  10.588  0.00  0.00    +0.000 C 
BRANCH   7   9
ATOM      8  C   UNL     1      43.208   2.448  11.359  0.00  0.00    +0.000 C 
ATOM      9  N   UNL     1      43.819   3.266  10.301  0.00  0.00    +0.000 NA
BRANCH   9  10
ATOM     10  C   UNL     1      45.264   2.936  10.189  0.00  0.00    +0.000 C 
BRANCH  10  11
ATOM     11  C   UNL     1      45.756   2.761   8.761  0.00  0.00    +0.000 A 
ATOM     12  C   UNL     1      46.152   1.504   8.304  0.00  0.00    +0.000 A 
ATOM     13  C   UNL     1      46.693   1.393   7.027  0.00  0.00    +0.000 A 
ATOM     14  C   UNL     1      46.821   2.531   6.240  0.00  0.00    +0.000 A 
ATOM     15  C   UNL     1      46.391   3.739   6.761  0.00  0.00    +0.000 A 
ATOM     16  N   UNL     1      45.863   3.881   7.996  0.00  0.00    +0.000 NA
ENDBRANCH  10  11
ENDBRANCH   9  10
ENDBRANCH   7   9
ENDBRANCH   1   7
BRANCH   4  17
ATOM     17  C   UNL     1      48.039   7.027  13.728  0.00  0.00    +0.000 C 
BRANCH  17  18
ATOM     18  N   UNL     1      47.930   6.649  15.115  0.00  0.00    +0.000 N 
ATOM     19  C   UNL     1      49.044   6.427  15.880  0.00  0.00    +0.000 C 
ATOM     20  O   UNL     1      50.178   6.595  15.439  0.00  0.00    +0.000 OA
ATOM     21  H   UNL     1      47.027   6.303  15.428  0.00  0.00    +0.000 HD
BRANCH  19  22
ATOM     22  C   UNL     1      48.819   6.033  17.276  0.00  0.00    +0.000 A 
ATOM     23  C   UNL     1      49.066   4.724  17.667  0.00  0.00    +0.000 A 
ATOM     24  S   UNL     1      48.785   4.437  19.324  0.00  0.00    +0.000 S 
ATOM     25  C   UNL     1      48.275   6.042  19.570  0.00  0.00    +0.000 A 
ATOM     26  N   UNL     1      47.856   6.462  20.796  0.00  0.00    +0.000 NA
ATOM     27  C   UNL     1      47.471   7.695  20.833  0.00  0.00    +0.000 A 
ATOM     28  N   UNL     1      47.474   8.545  19.760  0.00  0.00    +0.000 N 
ATOM     29  C   UNL     1      47.917   8.175  18.512  0.00  0.00    +0.000 A 
ATOM     30  O   UNL     1      47.949   8.978  17.585  0.00  0.00    +0.000 OA
ATOM     31  C   UNL     1      48.344   6.793  18.409  0.00  0.00    +0.000 A 
ATOM     32  H   UNL     1      47.169   9.503  19.860  0.00  0.00    +0.000 HD
ENDBRANCH  19  22
ENDBRANCH  17  18
ENDBRANCH   4  17
TORSDOF 7
ENDMDL
MODEL 8
REMARK VINA RESULT:    -7.400      3.809      9.588
REMARK INTER + INTRA:         -11.094
REMARK INTER:                 -10.012
REMARK INTRA:                  -1.082
REMARK UNBOUND:                -0.666
REMARK  Name = 
REMARK  8 active torsions:
REMARK  status: ('A' for Active; 'I' for Inactive)
REMARK    1  A    between atoms: C_1  and  N_2
REMARK    2  A    between atoms: N_2  and  C_3
REMARK    3  A    between atoms: N_2  and  C_24
REMARK    4  A    between atoms: C_3  and  C_4
REMARK    5  A    between atoms: C_7  and  C_8
REMARK    6  A    between atoms: C_8  and  N_9
REMARK    7  A    between atoms: C_10  and  C_12
REMARK    8  A    between atoms: C_24  and  C_25
REMARK                            x       y       z     vdW  Elec       q    Type
REMARK                         _______ _______ _______ _____ _____    ______ ____
ROOT
ATOM      1  C   UNL     1      51.435   3.968  17.781  0.00  0.00    +0.000 A 
ATOM      2  C   UNL     1      50.955   2.678  17.508  0.00  0.00    +0.000 A 
ATOM      3  C   UNL     1      49.616   2.467  17.170  0.00  0.00    +0.000 A 
ATOM      4  C   UNL     1      48.723   3.543  17.108  0.00  0.00    +0.000 A 
ATOM      5  C   UNL     1      49.193   4.829  17.406  0.00  0.00    +0.000 A 
ATOM      6  C   UNL     1      50.538   5.043  17.724  0.00  0.00    +0.000 A 
ENDROOT
BRANCH   1   7
ATOM      7  C   UNL     1      52.895   4.187  18.132  0.00  0.00    +0.000 C 
BRANCH   7   9
ATOM      8  C   UNL     1      53.367   4.569  20.491  0.00  0.00    +0.000 C 
ATOM      9  N   UNL     1      53.326   3.576  19.407  0.00  0.00    +0.000 NA
BRANCH   9  10
ATOM     10  C   UNL     1      54.679   2.987  19.221  0.00  0.00    +0.000 C 
BRANCH  10  11
ATOM     11  C   UNL     1      54.710   1.773  18.306  0.00  0.00    +0.000 A 
ATOM     12  C   UNL     1      55.399   1.826  17.095  0.00  0.00    +0.000 A 
ATOM     13  C   UNL     1      55.325   0.736  16.232  0.00  0.00    +0.000 A 
ATOM     14  C   UNL     1      54.575  -0.374  16.599  0.00  0.00    +0.000 A 
ATOM     15  C   UNL     1      53.933  -0.354  17.825  0.00  0.00    +0.000 A 
ATOM     16  N   UNL     1      53.983   0.688  18.684  0.00  0.00    +0.000 NA
ENDBRANCH  10  11
ENDBRANCH   9  10
ENDBRANCH   7   9
ENDBRANCH   1   7
BRANCH   4  17
ATOM     17  C   UNL     1      47.271   3.318  16.780  0.00  0.00    +0.000 C 
BRANCH  17  18
ATOM     18  N   UNL     1      46.793   4.313  15.852  0.00  0.00    +0.000 N 
ATOM     19  C   UNL     1      46.847   4.105  14.499  0.00  0.00    +0.000 C 
ATOM     20  O   UNL     1      47.249   3.048  14.020  0.00  0.00    +0.000 OA
ATOM     21  H   UNL     1      46.662   5.253  16.212  0.00  0.00    +0.000 HD
BRANCH  19  22
ATOM     22  C   UNL     1      46.345   5.189  13.644  0.00  0.00    +0.000 A 
ATOM     23  C   UNL     1      47.105   6.339  13.480  0.00  0.00    +0.000 A 
ATOM     24  S   UNL     1      46.398   7.485  12.434  0.00  0.00    +0.000 S 
ATOM     25  C   UNL     1      45.026   6.506  12.202  0.00  0.00    +0.000 A 
ATOM     26  N   UNL     1      43.994   6.924  11.417  0.00  0.00    +0.000 NA
ATOM     27  C   UNL     1      43.006   6.094  11.352  0.00  0.00    +0.000 A 
ATOM     28  N   UNL     1      42.959   4.885  11.992  0.00  0.00    +0.000 N 
ATOM     29  C   UNL     1      43.989   4.408  12.768  0.00  0.00    +0.000 A 
ATOM     30  O   UNL     1      43.932   3.299  13.288  0.00  0.00    +0.000 OA
ATOM     31  C   UNL     1      45.118   5.309  12.891  0.00  0.00    +0.000 A 
ATOM     32  H   UNL     1      42.159   4.278  11.889  0.00  0.00    +0.000 HD
ENDBRANCH  19  22
ENDBRANCH  17  18
ENDBRANCH   4  17
TORSDOF 7
ENDMDL
MODEL 9
REMARK VINA RESULT:    -7.252      2.464      3.047
REMARK INTER + INTRA:         -10.885
REMARK INTER:                 -10.343
REMARK INTRA:                  -0.541
REMARK UNBOUND:                -0.666
REMARK  Name = 
REMARK  8 active torsions:
REMARK  status: ('A' for Active; 'I' for Inactive)
REMARK    1  A    between atoms: C_1  and  N_2
REMARK    2  A    between atoms: N_2  and  C_3
REMARK    3  A    between atoms: N_2  and  C_24
REMARK    4  A    between atoms: C_3  and  C_4
REMARK    5  A    between atoms: C_7  and  C_8
REMARK    6  A    between atoms: C_8  and  N_9
REMARK    7  A    between atoms: C_10  and  C_12
REMARK    8  A    between atoms: C_24  and  C_25
REMARK                            x       y       z     vdW  Elec       q    Type
REMARK                         _______ _______ _______ _____ _____    ______ ____
ROOT
ATOM      1  C   UNL     1      46.176   6.623  11.372  0.00  0.00    +0.000 A 
ATOM      2  C   UNL     1      47.539   6.611  11.708  0.00  0.00    +0.000 A 
ATOM      3  C   UNL     1      48.035   7.429  12.726  0.00  0.00    +0.000 A 
ATOM      4  C   UNL     1      47.178   8.288  13.426  0.00  0.00    +0.000 A 
ATOM      5  C   UNL     1      45.822   8.322  13.074  0.00  0.00    +0.000 A 
ATOM      6  C   UNL     1      45.322   7.488  12.069  0.00  0.00    +0.000 A 
ENDROOT
BRANCH   1   7
ATOM      7  C   UNL     1      45.647   5.719  10.274  0.00  0.00    +0.000 C 
BRANCH   7   9
ATOM      8  C   UNL     1      45.060   3.784  11.632  0.00  0.00    +0.000 C 
ATOM      9  N   UNL     1      44.566   4.801  10.692  0.00  0.00    +0.000 NA
BRANCH   9  10
ATOM     10  C   UNL     1      44.013   4.134   9.483  0.00  0.00    +0.000 C 
BRANCH  10  11
ATOM     11  C   UNL     1      45.056   3.437   8.623  0.00  0.00    +0.000 A 
ATOM     12  C   UNL     1      45.330   2.083   8.813  0.00  0.00    +0.000 A 
ATOM     13  C   UNL     1      46.359   1.497   8.083  0.00  0.00    +0.000 A 
ATOM     14  C   UNL     1      47.082   2.270   7.182  0.00  0.00    +0.000 A 
ATOM     15  C   UNL     1      46.738   3.603   7.041  0.00  0.00    +0.000 A 
ATOM     16  N   UNL     1      45.746   4.202   7.736  0.00  0.00    +0.000 NA
ENDBRANCH  10  11
ENDBRANCH   9  10
ENDBRANCH   7   9
ENDBRANCH   1   7
BRANCH   4  17
ATOM     17  C   UNL     1      47.712   9.197  14.499  0.00  0.00    +0.000 C 
BRANCH  17  18
ATOM     18  N   UNL     1      47.914   8.476  15.731  0.00  0.00    +0.000 N 
ATOM     19  C   UNL     1      49.152   8.397  16.313  0.00  0.00    +0.000 C 
ATOM     20  O   UNL     1      50.127   8.980  15.846  0.00  0.00    +0.000 OA
ATOM     21  H   UNL     1      47.185   7.826  16.009  0.00  0.00    +0.000 HD
BRANCH  19  22
ATOM     22  C   UNL     1      49.248   7.627  17.559  0.00  0.00    +0.000 A 
ATOM     23  C   UNL     1      49.660   8.259  18.725  0.00  0.00    +0.000 A 
ATOM     24  S   UNL     1      49.689   7.235  20.087  0.00  0.00    +0.000 S 
ATOM     25  C   UNL     1      49.198   5.896  19.158  0.00  0.00    +0.000 A 
ATOM     26  N   UNL     1      49.056   4.666  19.726  0.00  0.00    +0.000 NA
ATOM     27  C   UNL     1      48.706   3.737  18.899  0.00  0.00    +0.000 A 
ATOM     28  N   UNL     1      48.480   3.926  17.562  0.00  0.00    +0.000 N 
ATOM     29  C   UNL     1      48.581   5.154  16.952  0.00  0.00    +0.000 A 
ATOM     30  O   UNL     1      48.326   5.295  15.761  0.00  0.00    +0.000 OA
ATOM     31  C   UNL     1      48.990   6.232  17.832  0.00  0.00    +0.000 A 
ATOM     32  H   UNL     1      48.198   3.156  16.973  0.00  0.00    +0.000 HD
ENDBRANCH  19  22
ENDBRANCH  17  18
ENDBRANCH   4  17
TORSDOF 7
ENDMDL
