MODEL 1
REMARK VINA RESULT:    -7.667      0.000      0.000
REMARK INTER + INTRA:         -10.136
REMARK INTER:                  -9.684
REMARK INTRA:                  -0.452
REMARK UNBOUND:                -0.452
REMARK  Name = 
REMARK  5 active torsions:
REMARK  status: ('A' for Active; 'I' for Inactive)
REMARK    1  A    between atoms: N_1  and  C_2
REMARK    2  A    between atoms: C_2  and  C_3
REMARK    3  A    between atoms: C_3  and  C_5
REMARK    4  A    between atoms: C_9  and  C_10
REMARK    5  A    between atoms: C_10  and  N_11
REMARK                            x       y       z     vdW  Elec       q    Type
REMARK                         _______ _______ _______ _____ _____    ______ ____
ROOT
ATOM      1  C   UNL     1      46.919   5.164  14.367  0.00  0.00    +0.000 A 
ATOM      2  C   UNL     1      47.789   6.234  14.136  0.00  0.00    +0.000 A 
ATOM      3  C   UNL     1      47.428   7.252  13.251  0.00  0.00    +0.000 A 
ATOM      4  C   UNL     1      46.206   7.203  12.580  0.00  0.00    +0.000 A 
ATOM      5  C   UNL     1      45.323   6.135  12.788  0.00  0.00    +0.000 A 
ATOM      6  C   UNL     1      45.687   5.125  13.694  0.00  0.00    +0.000 A 
ENDROOT
BRANCH   1   7
ATOM      7  C   UNL     1      47.271   4.029  15.279  0.00  0.00    +0.000 C 
ATOM      8  O   UNL     1      47.583   2.945  14.784  0.00  0.00    +0.000 OA
BRANCH   7   9
ATOM      9  C   UNL     1      47.286   4.295  16.786  0.00  0.00    +0.000 C 
BRANCH   9  10
ATOM     10  N   UNL     1      46.606   3.223  17.521  0.00  0.00    +0.000 NA
ATOM     11  H   UNL     1      45.628   3.465  17.666  0.00  0.00    +0.000 HD
ATOM     12  H   UNL     1      47.037   3.140  18.446  0.00  0.00    +0.000 HD
ENDBRANCH   9  10
ENDBRANCH   7   9
ENDBRANCH   1   7
BRANCH   5  13
ATOM     13  C   UNL     1      44.035   6.034  12.006  0.00  0.00    +0.000 C 
BRANCH  13  14
ATOM     14  N   UNL     1      43.952   4.766  11.301  0.00  0.00    +0.000 N 
ATOM     15  C   UNL     1      43.181   3.702  11.686  0.00  0.00    +0.000 A 
ATOM     16  N   UNL     1      43.333   2.675  10.882  0.00  0.00    +0.000 NA
ATOM     17  C   UNL     1      44.224   3.094   9.924  0.00  0.00    +0.000 A 
ATOM     18  C   UNL     1      44.743   2.398   8.834  0.00  0.00    +0.000 A 
ATOM     19  C   UNL     1      45.621   3.108   8.031  0.00  0.00    +0.000 A 
ATOM     20  N   UNL     1      45.990   4.396   8.236  0.00  0.00    +0.000 NA
ATOM     21  C   UNL     1      45.487   5.068   9.297  0.00  0.00    +0.000 A 
ATOM     22  C   UNL     1      44.610   4.412  10.148  0.00  0.00    +0.000 A 
ENDBRANCH  13  14
ENDBRANCH   5  13
TORSDOF 5
ENDMDL
MODEL 2
REMARK VINA RESULT:    -7.554      2.048      3.679
REMARK INTER + INTRA:          -9.993
REMARK INTER:                  -9.690
REMARK INTRA:                  -0.303
REMARK UNBOUND:                -0.452
REMARK  Name = 
REMARK  5 active torsions:
REMARK  status: ('A' for Active; 'I' for Inactive)
REMARK    1  A    between atoms: N_1  and  C_2
REMARK    2  A    between atoms: C_2  and  C_3
REMARK    3  A    between atoms: C_3  and  C_5
REMARK    4  A    between atoms: C_9  and  C_10
REMARK    5  A    between atoms: C_10  and  N_11
REMARK                            x       y       z     vdW  Elec       q    Type
REMARK                         _______ _______ _______ _____ _____    ______ ____
ROOT
ATOM      1  C   UNL     1      45.251   4.603  13.093  0.00  0.00    +0.000 A 
ATOM      2  C   UNL     1      44.096   5.372  13.266  0.00  0.00    +0.000 A 
ATOM      3  C   UNL     1      42.996   5.181  12.427  0.00  0.00    +0.000 A 
ATOM      4  C   UNL     1      43.045   4.234  11.404  0.00  0.00    +0.000 A 
ATOM      5  C   UNL     1      44.196   3.460  11.205  0.00  0.00    +0.000 A 
ATOM      6  C   UNL     1      45.291   3.646  12.065  0.00  0.00    +0.000 A 
ENDROOT
BRANCH   1   7
ATOM      7  C   UNL     1      46.472   4.790  13.941  0.00  0.00    +0.000 C 
ATOM      8  O   UNL     1      46.611   4.090  14.945  0.00  0.00    +0.000 OA
BRANCH   7   9
ATOM      9  C   UNL     1      47.521   5.803  13.477  0.00  0.00    +0.000 C 
BRANCH   9  10
ATOM     10  N   UNL     1      47.243   7.139  14.014  0.00  0.00    +0.000 NA
ATOM     11  H   UNL     1      47.793   7.299  14.856  0.00  0.00    +0.000 HD
ATOM     12  H   UNL     1      46.257   7.181  14.286  0.00  0.00    +0.000 HD
ENDBRANCH   9  10
ENDBRANCH   7   9
ENDBRANCH   1   7
BRANCH   5  13
ATOM     13  C   UNL     1      44.286   2.491  10.051  0.00  0.00    +0.000 C 
BRANCH  13  14
ATOM     14  N   UNL     1      45.136   3.015   8.996  0.00  0.00    +0.000 N 
ATOM     15  C   UNL     1      45.245   4.339   8.660  0.00  0.00    +0.000 A 
ATOM     16  N   UNL     1      46.057   4.518   7.644  0.00  0.00    +0.000 NA
ATOM     17  C   UNL     1      46.509   3.262   7.316  0.00  0.00    +0.000 A 
ATOM     18  C   UNL     1      47.385   2.874   6.305  0.00  0.00    +0.000 A 
ATOM     19  C   UNL     1      47.661   1.518   6.238  0.00  0.00    +0.000 A 
ATOM     20  N   UNL     1      47.148   0.580   7.070  0.00  0.00    +0.000 NA
ATOM     21  C   UNL     1      46.293   0.959   8.048  0.00  0.00    +0.000 A 
ATOM     22  C   UNL     1      45.966   2.302   8.165  0.00  0.00    +0.000 A 
ENDBRANCH  13  14
ENDBRANCH   5  13
TORSDOF 5
ENDMDL
MODEL 3
REMARK VINA RESULT:    -7.187      2.659      6.535
REMARK INTER + INTRA:          -9.530
REMARK INTER:                  -9.081
REMARK INTRA:                  -0.449
REMARK UNBOUND:                -0.452
REMARK  Name = 
REMARK  5 active torsions:
REMARK  status: ('A' for Active; 'I' for Inactive)
REMARK    1  A    between atoms: N_1  and  C_2
REMARK    2  A    between atoms: C_2  and  C_3
REMARK    3  A    between atoms: C_3  and  C_5
REMARK    4  A    between atoms: C_9  and  C_10
REMARK    5  A    between atoms: C_10  and  N_11
REMARK                            x       y       z     vdW  Elec       q    Type
REMARK                         _______ _______ _______ _____ _____    ______ ____
ROOT
ATOM      1  C   UNL     1      45.842   3.119   8.114  0.00  0.00    +0.000 A 
ATOM      2  C   UNL     1      45.440   1.843   8.522  0.00  0.00    +0.000 A 
ATOM      3  C   UNL     1      44.533   1.697   9.573  0.00  0.00    +0.000 A 
ATOM      4  C   UNL     1      44.030   2.818  10.233  0.00  0.00    +0.000 A 
ATOM      5  C   UNL     1      44.427   4.107   9.849  0.00  0.00    +0.000 A 
ATOM      6  C   UNL     1      45.326   4.244   8.779  0.00  0.00    +0.000 A 
ENDROOT
BRANCH   1   7
ATOM      7  C   UNL     1      46.839   3.333   7.017  0.00  0.00    +0.000 C 
ATOM      8  O   UNL     1      46.738   4.337   6.311  0.00  0.00    +0.000 OA
BRANCH   7   9
ATOM      9  C   UNL     1      47.976   2.319   6.871  0.00  0.00    +0.000 C 
BRANCH   9  10
ATOM     10  N   UNL     1      48.406   2.201   5.474  0.00  0.00    +0.000 NA
ATOM     11  H   UNL     1      49.422   2.227   5.417  0.00  0.00    +0.000 HD
ATOM     12  H   UNL     1      48.054   3.011   4.956  0.00  0.00    +0.000 HD
ENDBRANCH   9  10
ENDBRANCH   7   9
ENDBRANCH   1   7
BRANCH   5  13
ATOM     13  C   UNL     1      43.950   5.320  10.610  0.00  0.00    +0.000 C 
BRANCH  13  14
ATOM     14  N   UNL     1      45.033   5.912  11.377  0.00  0.00    +0.000 N 
ATOM     15  C   UNL     1      45.620   7.119  11.106  0.00  0.00    +0.000 A 
ATOM     16  N   UNL     1      46.598   7.383  11.941  0.00  0.00    +0.000 NA
ATOM     17  C   UNL     1      46.637   6.313  12.803  0.00  0.00    +0.000 A 
ATOM     18  C   UNL     1      47.491   6.074  13.877  0.00  0.00    +0.000 A 
ATOM     19  C   UNL     1      47.267   4.897  14.573  0.00  0.00    +0.000 A 
ATOM     20  N   UNL     1      46.297   3.997  14.280  0.00  0.00    +0.000 NA
ATOM     21  C   UNL     1      45.472   4.230  13.233  0.00  0.00    +0.000 A 
ATOM     22  C   UNL     1      45.649   5.386  12.488  0.00  0.00    +0.000 A 
ENDBRANCH  13  14
ENDBRANCH   5  13
TORSDOF 5
ENDMDL
MODEL 4
REMARK VINA RESULT:    -7.174      2.804      6.464
REMARK INTER + INTRA:          -9.513
REMARK INTER:                  -9.128
REMARK INTRA:                  -0.386
REMARK UNBOUND:                -0.452
REMARK  Name = 
REMARK  5 active torsions:
REMARK  status: ('A' for Active; 'I' for Inactive)
REMARK    1  A    between atoms: N_1  and  C_2
REMARK    2  A    between atoms: C_2  and  C_3
REMARK    3  A    between atoms: C_3  and  C_5
REMARK    4  A    between atoms: C_9  and  C_10
REMARK    5  A    between atoms: C_10  and  N_11
REMARK                            x       y       z     vdW  Elec       q    Type
REMARK                         _______ _______ _______ _____ _____    ______ ____
ROOT
ATOM      1  C   UNL     1      45.877   3.069   8.084  0.00  0.00    +0.000 A 
ATOM      2  C   UNL     1      45.279   1.844   8.397  0.00  0.00    +0.000 A 
ATOM      3  C   UNL     1      44.389   1.752   9.469  0.00  0.00    +0.000 A 
ATOM      4  C   UNL     1      44.099   2.876  10.243  0.00  0.00    +0.000 A 
ATOM      5  C   UNL     1      44.694   4.112   9.956  0.00  0.00    +0.000 A 
ATOM      6  C   UNL     1      45.575   4.198   8.864  0.00  0.00    +0.000 A 
ENDROOT
BRANCH   1   7
ATOM      7  C   UNL     1      46.865   3.216   6.968  0.00  0.00    +0.000 C 
ATOM      8  O   UNL     1      46.797   4.208   6.241  0.00  0.00    +0.000 OA
BRANCH   7   9
ATOM      9  C   UNL     1      47.957   2.152   6.829  0.00  0.00    +0.000 C 
BRANCH   9  10
ATOM     10  N   UNL     1      48.399   2.024   5.437  0.00  0.00    +0.000 NA
ATOM     11  H   UNL     1      48.546   2.946   5.031  0.00  0.00    +0.000 HD
ATOM     12  H   UNL     1      47.653   1.574   4.899  0.00  0.00    +0.000 HD
ENDBRANCH   9  10
ENDBRANCH   7   9
ENDBRANCH   1   7
BRANCH   5  13
ATOM     13  C   UNL     1      44.448   5.312  10.837  0.00  0.00    +0.000 C 
BRANCH  13  14
ATOM     14  N   UNL     1      45.277   5.261  12.029  0.00  0.00    +0.000 N 
ATOM     15  C   UNL     1      45.020   4.491  13.132  0.00  0.00    +0.000 A 
ATOM     16  N   UNL     1      45.917   4.675  14.074  0.00  0.00    +0.000 NA
ATOM     17  C   UNL     1      46.804   5.587  13.555  0.00  0.00    +0.000 A 
ATOM     18  C   UNL     1      47.942   6.142  14.136  0.00  0.00    +0.000 A 
ATOM     19  C   UNL     1      48.647   7.034  13.344  0.00  0.00    +0.000 A 
ATOM     20  N   UNL     1      48.306   7.384  12.080  0.00  0.00    +0.000 NA
ATOM     21  C   UNL     1      47.198   6.847  11.520  0.00  0.00    +0.000 A 
ATOM     22  C   UNL     1      46.441   5.954  12.263  0.00  0.00    +0.000 A 
ENDBRANCH  13  14
ENDBRANCH   5  13
TORSDOF 5
ENDMDL
MODEL 5
REMARK VINA RESULT:    -6.817      2.539      3.663
REMARK INTER + INTRA:          -9.063
REMARK INTER:                  -8.641
REMARK INTRA:                  -0.422
REMARK UNBOUND:                -0.452
REMARK  Name = 
REMARK  5 active torsions:
REMARK  status: ('A' for Active; 'I' for Inactive)
REMARK    1  A    between atoms: N_1  and  C_2
REMARK    2  A    between atoms: C_2  and  C_3
REMARK    3  A    between atoms: C_3  and  C_5
REMARK    4  A    between atoms: C_9  and  C_10
REMARK    5  A    between atoms: C_10  and  N_11
REMARK                            x       y       z     vdW  Elec       q    Type
REMARK                         _______ _______ _______ _____ _____    ______ ____
ROOT
ATOM      1  C   UNL     1      45.715   5.883  12.325  0.00  0.00    +0.000 A 
ATOM      2  C   UNL     1      44.734   5.521  13.254  0.00  0.00    +0.000 A 
ATOM      3  C   UNL     1      43.624   4.779  12.847  0.00  0.00    +0.000 A 
ATOM      4  C   UNL     1      43.476   4.405  11.511  0.00  0.00    +0.000 A 
ATOM      5  C   UNL     1      44.439   4.766  10.561  0.00  0.00    +0.000 A 
ATOM      6  C   UNL     1      45.562   5.497  10.983  0.00  0.00    +0.000 A 
ENDROOT
BRANCH   1   7
ATOM      7  C   UNL     1      46.908   6.707  12.700  0.00  0.00    +0.000 C 
ATOM      8  O   UNL     1      47.970   6.136  12.949  0.00  0.00    +0.000 OA
BRANCH   7   9
ATOM      9  C   UNL     1      46.761   8.231  12.690  0.00  0.00    +0.000 C 
BRANCH   9  10
ATOM     10  N   UNL     1      46.732   8.770  14.053  0.00  0.00    +0.000 NA
ATOM     11  H   UNL     1      45.871   8.493  14.520  0.00  0.00    +0.000 HD
ATOM     12  H   UNL     1      46.730   9.792  13.999  0.00  0.00    +0.000 HD
ENDBRANCH   9  10
ENDBRANCH   7   9
ENDBRANCH   1   7
BRANCH   5  13
ATOM     13  C   UNL     1      44.247   4.435   9.100  0.00  0.00    +0.000 C 
BRANCH  13  14
ATOM     14  N   UNL     1      44.888   3.175   8.763  0.00  0.00    +0.000 N 
ATOM     15  C   UNL     1      44.482   1.944   9.204  0.00  0.00    +0.000 A 
ATOM     16  N   UNL     1      45.271   0.988   8.773  0.00  0.00    +0.000 NA
ATOM     17  C   UNL     1      46.219   1.620   8.004  0.00  0.00    +0.000 A 
ATOM     18  C   UNL     1      47.302   1.079   7.315  0.00  0.00    +0.000 A 
ATOM     19  C   UNL     1      48.077   1.985   6.609  0.00  0.00    +0.000 A 
ATOM     20  N   UNL     1      47.849   3.319   6.550  0.00  0.00    +0.000 NA
ATOM     21  C   UNL     1      46.799   3.842   7.224  0.00  0.00    +0.000 A 
ATOM     22  C   UNL     1      45.988   2.991   7.960  0.00  0.00    +0.000 A 
ENDBRANCH  13  14
ENDBRANCH   5  13
TORSDOF 5
ENDMDL
MODEL 6
REMARK VINA RESULT:    -6.231      2.235      3.097
REMARK INTER + INTRA:          -8.323
REMARK INTER:                  -7.836
REMARK INTRA:                  -0.486
REMARK UNBOUND:                -0.452
REMARK  Name = 
REMARK  5 active torsions:
REMARK  status: ('A' for Active; 'I' for Inactive)
REMARK    1  A    between atoms: N_1  and  C_2
REMARK    2  A    between atoms: C_2  and  C_3
REMARK    3  A    between atoms: C_3  and  C_5
REMARK    4  A    between atoms: C_9  and  C_10
REMARK    5  A    between atoms: C_10  and  N_11
REMARK                            x       y       z     vdW  Elec       q    Type
REMARK                         _______ _______ _______ _____ _____    ______ ____
ROOT
ATOM      1  C   UNL     1      47.613   7.111  13.361  0.00  0.00    +0.000 A 
ATOM      2  C   UNL     1      47.937   6.114  14.288  0.00  0.00    +0.000 A 
ATOM      3  C   UNL     1      47.085   5.022  14.468  0.00  0.00    +0.000 A 
ATOM      4  C   UNL     1      45.901   4.923  13.737  0.00  0.00    +0.000 A 
ATOM      5  C   UNL     1      45.551   5.915  12.811  0.00  0.00    +0.000 A 
ATOM      6  C   UNL     1      46.423   7.001  12.624  0.00  0.00    +0.000 A 
ENDROOT
BRANCH   1   7
ATOM      7  C   UNL     1      48.472   8.321  13.154  0.00  0.00    +0.000 C 
ATOM      8  O   UNL     1      47.940   9.432  13.141  0.00  0.00    +0.000 OA
BRANCH   7   9
ATOM      9  C   UNL     1      49.984   8.117  13.032  0.00  0.00    +0.000 C 
BRANCH   9  10
ATOM     10  N   UNL     1      50.317   7.302  11.860  0.00  0.00    +0.000 NA
ATOM     11  H   UNL     1      49.474   6.882  11.475  0.00  0.00    +0.000 HD
ATOM     12  H   UNL     1      50.925   6.535  12.160  0.00  0.00    +0.000 HD
ENDBRANCH   9  10
ENDBRANCH   7   9
ENDBRANCH   1   7
BRANCH   5  13
ATOM     13  C   UNL     1      44.234   5.855  12.076  0.00  0.00    +0.000 C 
BRANCH  13  14
ATOM     14  N   UNL     1      44.115   4.620  11.320  0.00  0.00    +0.000 N 
ATOM     15  C   UNL     1      43.368   3.536  11.698  0.00  0.00    +0.000 A 
ATOM     16  N   UNL     1      43.477   2.547  10.842  0.00  0.00    +0.000 NA
ATOM     17  C   UNL     1      44.316   3.011   9.857  0.00  0.00    +0.000 A 
ATOM     18  C   UNL     1      44.777   2.366   8.712  0.00  0.00    +0.000 A 
ATOM     19  C   UNL     1      45.610   3.114   7.895  0.00  0.00    +0.000 A 
ATOM     20  N   UNL     1      45.988   4.393   8.137  0.00  0.00    +0.000 NA
ATOM     21  C   UNL     1      45.541   5.015   9.252  0.00  0.00    +0.000 A 
ATOM     22  C   UNL     1      44.712   4.319  10.119  0.00  0.00    +0.000 A 
ENDBRANCH  13  14
ENDBRANCH   5  13
TORSDOF 5
ENDMDL
MODEL 7
REMARK VINA RESULT:    -6.230      2.575      6.219
REMARK INTER + INTRA:          -8.321
REMARK INTER:                  -7.769
REMARK INTRA:                  -0.552
REMARK UNBOUND:                -0.452
REMARK  Name = 
REMARK  5 active torsions:
REMARK  status: ('A' for Active; 'I' for Inactive)
REMARK    1  A    between atoms: N_1  and  C_2
REMARK    2  A    between atoms: C_2  and  C_3
REMARK    3  A    between atoms: C_3  and  C_5
REMARK    4  A    between atoms: C_9  and  C_10
REMARK    5  A    between atoms: C_10  and  N_11
REMARK                            x       y       z     vdW  Elec       q    Type
REMARK                         _______ _______ _______ _____ _____    ______ ____
ROOT
ATOM      1  C   UNL     1      44.986   3.873   9.586  0.00  0.00    +0.000 A 
ATOM      2  C   UNL     1      44.249   2.719   9.867  0.00  0.00    +0.000 A 
ATOM      3  C   UNL     1      43.599   2.585  11.096  0.00  0.00    +0.000 A 
ATOM      4  C   UNL     1      43.691   3.593  12.056  0.00  0.00    +0.000 A 
ATOM      5  C   UNL     1      44.433   4.754  11.800  0.00  0.00    +0.000 A 
ATOM      6  C   UNL     1      45.068   4.887  10.554  0.00  0.00    +0.000 A 
ENDROOT
BRANCH   1   7
ATOM      7  C   UNL     1      45.731   4.054   8.299  0.00  0.00    +0.000 C 
ATOM      8  O   UNL     1      46.345   5.105   8.110  0.00  0.00    +0.000 OA
BRANCH   7   9
ATOM      9  C   UNL     1      45.745   2.889   7.306  0.00  0.00    +0.000 C 
BRANCH   9  10
ATOM     10  N   UNL     1      46.957   2.078   7.455  0.00  0.00    +0.000 NA
ATOM     11  H   UNL     1      47.457   2.349   8.300  0.00  0.00    +0.000 HD
ATOM     12  H   UNL     1      47.577   2.270   6.664  0.00  0.00    +0.000 HD
ENDBRANCH   9  10
ENDBRANCH   7   9
ENDBRANCH   1   7
BRANCH   5  13
ATOM     13  C   UNL     1      44.603   5.812  12.863  0.00  0.00    +0.000 C 
BRANCH  13  14
ATOM     14  N   UNL     1      45.967   5.831  13.366  0.00  0.00    +0.000 N 
ATOM     15  C   UNL     1      46.545   4.834  14.106  0.00  0.00    +0.000 A 
ATOM     16  N   UNL     1      47.773   5.137  14.455  0.00  0.00    +0.000 NA
ATOM     17  C   UNL     1      48.011   6.374  13.904  0.00  0.00    +0.000 A 
ATOM     18  C   UNL     1      49.155   7.166  13.973  0.00  0.00    +0.000 A 
ATOM     19  C   UNL     1      49.092   8.371  13.292  0.00  0.00    +0.000 A 
ATOM     20  N   UNL     1      48.020   8.807  12.586  0.00  0.00    +0.000 NA
ATOM     21  C   UNL     1      46.910   8.037  12.524  0.00  0.00    +0.000 A 
ATOM     22  C   UNL     1      46.903   6.822  13.194  0.00  0.00    +0.000 A 
ENDBRANCH  13  14
ENDBRANCH   5  13
TORSDOF 5
ENDMDL
MODEL 8
REMARK VINA RESULT:    -6.009      2.412      3.518
REMARK INTER + INTRA:          -8.042
REMARK INTER:                  -7.671
REMARK INTRA:                  -0.370
REMARK UNBOUND:                -0.452
REMARK  Name = 
REMARK  5 active torsions:
REMARK  status: ('A' for Active; 'I' for Inactive)
REMARK    1  A    between atoms: N_1  and  C_2
REMARK    2  A    between atoms: C_2  and  C_3
REMARK    3  A    between atoms: C_3  and  C_5
REMARK    4  A    between atoms: C_9  and  C_10
REMARK    5  A    between atoms: C_10  and  N_11
REMARK                            x       y       z     vdW  Elec       q    Type
REMARK                         _______ _______ _______ _____ _____    ______ ____
ROOT
ATOM      1  C   UNL     1      48.007   4.746  16.438  0.00  0.00    +0.000 A 
ATOM      2  C   UNL     1      48.600   5.821  17.107  0.00  0.00    +0.000 A 
ATOM      3  C   UNL     1      48.869   7.009  16.423  0.00  0.00    +0.000 A 
ATOM      4  C   UNL     1      48.561   7.127  15.067  0.00  0.00    +0.000 A 
ATOM      5  C   UNL     1      47.976   6.059  14.374  0.00  0.00    +0.000 A 
ATOM      6  C   UNL     1      47.693   4.875  15.075  0.00  0.00    +0.000 A 
ENDROOT
BRANCH   1   7
ATOM      7  C   UNL     1      47.729   3.438  17.114  0.00  0.00    +0.000 C 
ATOM      8  O   UNL     1      46.563   3.140  17.375  0.00  0.00    +0.000 OA
BRANCH   7   9
ATOM      9  C   UNL     1      48.911   2.504  17.388  0.00  0.00    +0.000 C 
BRANCH   9  10
ATOM     10  N   UNL     1      49.369   1.852  16.157  0.00  0.00    +0.000 NA
ATOM     11  H   UNL     1      49.188   0.851  16.204  0.00  0.00    +0.000 HD
ATOM     12  H   UNL     1      50.382   1.972  16.083  0.00  0.00    +0.000 HD
ENDBRANCH   9  10
ENDBRANCH   7   9
ENDBRANCH   1   7
BRANCH   5  13
ATOM     13  C   UNL     1      47.714   6.151  12.890  0.00  0.00    +0.000 C 
BRANCH  13  14
ATOM     14  N   UNL     1      46.289   6.219  12.617  0.00  0.00    +0.000 N 
ATOM     15  C   UNL     1      45.578   7.375  12.434  0.00  0.00    +0.000 A 
ATOM     16  N   UNL     1      44.301   7.137  12.242  0.00  0.00    +0.000 NA
ATOM     17  C   UNL     1      44.179   5.768  12.282  0.00  0.00    +0.000 A 
ATOM     18  C   UNL     1      43.039   4.979  12.145  0.00  0.00    +0.000 A 
ATOM     19  C   UNL     1      43.245   3.610  12.219  0.00  0.00    +0.000 A 
ATOM     20  N   UNL     1      44.448   3.016  12.408  0.00  0.00    +0.000 NA
ATOM     21  C   UNL     1      45.552   3.786  12.544  0.00  0.00    +0.000 A 
ATOM     22  C   UNL     1      45.415   5.166  12.491  0.00  0.00    +0.000 A 
ENDBRANCH  13  14
ENDBRANCH   5  13
TORSDOF 5
ENDMDL
MODEL 9
REMARK VINA RESULT:    -5.703      2.470      6.467
REMARK INTER + INTRA:          -7.655
REMARK INTER:                  -7.126
REMARK INTRA:                  -0.530
REMARK UNBOUND:                -0.452
REMARK  Name = 
REMARK  5 active torsions:
REMARK  status: ('A' for Active; 'I' for Inactive)
REMARK    1  A    between atoms: N_1  and  C_2
REMARK    2  A    between atoms: C_2  and  C_3
REMARK    3  A    between atoms: C_3  and  C_5
REMARK    4  A    between atoms: C_9  and  C_10
REMARK    5  A    between atoms: C_10  and  N_11
REMARK                            x       y       z     vdW  Elec       q    Type
REMARK                         _______ _______ _______ _____ _____    ______ ____
ROOT
ATOM      1  C   UNL     1      44.544   6.273  11.595  0.00  0.00    +0.000 A 
ATOM      2  C   UNL     1      44.278   7.646  11.565  0.00  0.00    +0.000 A 
ATOM      3  C   UNL     1      45.287   8.562  11.868  0.00  0.00    +0.000 A 
ATOM      4  C   UNL     1      46.562   8.117  12.217  0.00  0.00    +0.000 A 
ATOM      5  C   UNL     1      46.849   6.746  12.265  0.00  0.00    +0.000 A 
ATOM      6  C   UNL     1      45.832   5.833  11.940  0.00  0.00    +0.000 A 
ENDROOT
BRANCH   1   7
ATOM      7  C   UNL     1      43.490   5.247  11.313  0.00  0.00    +0.000 C 
ATOM      8  O   UNL     1      42.374   5.388  11.815  0.00  0.00    +0.000 OA
BRANCH   7   9
ATOM      9  C   UNL     1      43.839   4.102  10.358  0.00  0.00    +0.000 C 
BRANCH   9  10
ATOM     10  N   UNL     1      43.840   4.556   8.964  0.00  0.00    +0.000 NA
ATOM     11  H   UNL     1      42.933   4.379   8.538  0.00  0.00    +0.000 HD
ATOM     12  H   UNL     1      44.530   4.008   8.444  0.00  0.00    +0.000 HD
ENDBRANCH   9  10
ENDBRANCH   7   9
ENDBRANCH   1   7
BRANCH   5  13
ATOM     13  C   UNL     1      48.203   6.256  12.718  0.00  0.00    +0.000 C 
BRANCH  13  14
ATOM     14  N   UNL     1      48.341   6.369  14.161  0.00  0.00    +0.000 N 
ATOM     15  C   UNL     1      48.970   7.397  14.811  0.00  0.00    +0.000 A 
ATOM     16  N   UNL     1      48.977   7.218  16.112  0.00  0.00    +0.000 NA
ATOM     17  C   UNL     1      48.309   6.034  16.318  0.00  0.00    +0.000 A 
ATOM     18  C   UNL     1      48.037   5.369  17.511  0.00  0.00    +0.000 A 
ATOM     19  C   UNL     1      47.321   4.189  17.391  0.00  0.00    +0.000 A 
ATOM     20  N   UNL     1      46.885   3.663  16.221  0.00  0.00    +0.000 NA
ATOM     21  C   UNL     1      47.154   4.309  15.063  0.00  0.00    +0.000 A 
ATOM     22  C   UNL     1      47.877   5.492  15.112  0.00  0.00    +0.000 A 
ENDBRANCH  13  14
ENDBRANCH   5  13
TORSDOF 5
ENDMDL
