MODEL 1
REMARK VINA RESULT:    -8.044      0.000      0.000
REMARK INTER + INTRA:         -11.784
REMARK INTER:                 -10.866
REMARK INTRA:                  -0.918
REMARK UNBOUND:                -0.918
REMARK  Name = 
REMARK  7 active torsions:
REMARK  status: ('A' for Active; 'I' for Inactive)
REMARK    1  A    between atoms: C_1  and  C_2
REMARK    2  A    between atoms: C_6  and  S_7
REMARK    3  A    between atoms: S_7  and  C_8
REMARK    4  A    between atoms: C_8  and  C_9
REMARK    5  A    between atoms: C_12  and  C_13
REMARK    6  A    between atoms: C_13  and  N_14
REMARK    7  A    between atoms: C_15  and  C_17
REMARK                            x       y       z     vdW  Elec       q    Type
REMARK                         _______ _______ _______ _____ _____    ______ ____
ROOT
ATOM      1  C   UNL     1      47.643   4.030  15.631  0.00  0.00    +0.000 C 
ENDROOT
BRANCH   1   5
ATOM      2  C   UNL     1      45.671   4.908  11.932  0.00  0.00    +0.000 A 
ATOM      3  C   UNL     1      46.275   5.936  12.665  0.00  0.00    +0.000 A 
ATOM      4  C   UNL     1      46.936   5.656  13.858  0.00  0.00    +0.000 A 
ATOM      5  C   UNL     1      46.939   4.351  14.335  0.00  0.00    +0.000 A 
ATOM      6  N   UNL     1      46.335   3.334  13.668  0.00  0.00    +0.000 NA
ATOM      7  C   UNL     1      45.722   3.634  12.497  0.00  0.00    +0.000 A 
BRANCH   2   8
ATOM      8  C   UNL     1      44.922   5.140  10.642  0.00  0.00    +0.000 C 
BRANCH   8   9
ATOM      9  S   UNL     1      44.098   3.637  10.000  0.00  0.00    +0.000 S 
BRANCH   9  15
ATOM     10  C   UNL     1      46.780  -0.051   7.700  0.00  0.00    +0.000 C 
ATOM     11  C   UNL     1      46.478   1.414   7.758  0.00  0.00    +0.000 A 
ATOM     12  C   UNL     1      47.117   2.316   6.912  0.00  0.00    +0.000 A 
ATOM     13  C   UNL     1      46.793   3.664   7.010  0.00  0.00    +0.000 A 
ATOM     14  C   UNL     1      45.852   4.070   7.948  0.00  0.00    +0.000 A 
ATOM     15  C   UNL     1      45.266   3.112   8.765  0.00  0.00    +0.000 A 
ATOM     16  N   UNL     1      45.562   1.798   8.679  0.00  0.00    +0.000 NA
ENDBRANCH   9  15
ENDBRANCH   8   9
ENDBRANCH   2   8
ENDBRANCH   1   5
BRANCH   1  17
ATOM     17  N   UNL     1      47.541   5.099  16.597  0.00  0.00    +0.000 N 
ATOM     18  C   UNL     1      48.627   5.805  17.040  0.00  0.00    +0.000 C 
ATOM     19  O   UNL     1      49.765   5.571  16.637  0.00  0.00    +0.000 OA
ATOM     20  H   UNL     1      46.663   5.148  17.106  0.00  0.00    +0.000 HD
BRANCH  18  21
ATOM     21  C   UNL     1      48.359   6.912  17.969  0.00  0.00    +0.000 A 
ATOM     22  C   UNL     1      48.189   6.646  19.321  0.00  0.00    +0.000 A 
ATOM     23  S   UNL     1      47.931   8.039  20.270  0.00  0.00    +0.000 S 
ATOM     24  C   UNL     1      47.991   9.048  18.900  0.00  0.00    +0.000 A 
ATOM     25  N   UNL     1      47.813  10.391  19.016  0.00  0.00    +0.000 NA
ATOM     26  C   UNL     1      47.852  11.032  17.896  0.00  0.00    +0.000 A 
ATOM     27  N   UNL     1      48.062  10.452  16.672  0.00  0.00    +0.000 N 
ATOM     28  C   UNL     1      48.301   9.108  16.515  0.00  0.00    +0.000 A 
ATOM     29  O   UNL     1      48.579   8.638  15.417  0.00  0.00    +0.000 OA
ATOM     30  C   UNL     1      48.231   8.333  17.739  0.00  0.00    +0.000 A 
ATOM     31  H   UNL     1      48.104  11.012  15.834  0.00  0.00    +0.000 HD
ENDBRANCH  18  21
ENDBRANCH   1  17
TORSDOF 6
ENDMDL
MODEL 2
REMARK VINA RESULT:    -8.024      2.008      3.038
REMARK INTER + INTRA:         -11.757
REMARK INTER:                 -10.736
REMARK INTRA:                  -1.022
REMARK UNBOUND:                -0.918
REMARK  Name = 
REMARK  7 active torsions:
REMARK  status: ('A' for Active; 'I' for Inactive)
REMARK    1  A    between atoms: C_1  and  C_2
REMARK    2  A    between atoms: C_6  and  S_7
REMARK    3  A    between atoms: S_7  and  C_8
REMARK    4  A    between atoms: C_8  and  C_9
REMARK    5  A    between atoms: C_12  and  C_13
REMARK    6  A    between atoms: C_13  and  N_14
REMARK    7  A    between atoms: C_15  and  C_17
REMARK                            x       y       z     vdW  Elec       q    Type
REMARK                         _______ _______ _______ _____ _____    ______ ____
ROOT
ATOM      1  C   UNL     1      48.339   7.092  14.141  0.00  0.00    +0.000 C 
ENDROOT
BRANCH   1   5
ATOM      2  C   UNL     1      45.793   4.045  12.537  0.00  0.00    +0.000 A 
ATOM      3  C   UNL     1      45.715   5.353  12.046  0.00  0.00    +0.000 A 
ATOM      4  C   UNL     1      46.553   6.344  12.548  0.00  0.00    +0.000 A 
ATOM      5  C   UNL     1      47.428   6.028  13.579  0.00  0.00    +0.000 A 
ATOM      6  N   UNL     1      47.509   4.777  14.103  0.00  0.00    +0.000 NA
ATOM      7  C   UNL     1      46.698   3.828  13.576  0.00  0.00    +0.000 A 
BRANCH   2   8
ATOM      8  C   UNL     1      44.904   2.924  12.055  0.00  0.00    +0.000 C 
BRANCH   8   9
ATOM      9  S   UNL     1      43.864   3.386  10.621  0.00  0.00    +0.000 S 
BRANCH   9  15
ATOM     10  C   UNL     1      46.685   0.264   7.728  0.00  0.00    +0.000 C 
ATOM     11  C   UNL     1      46.280   1.679   7.999  0.00  0.00    +0.000 A 
ATOM     12  C   UNL     1      46.807   2.734   7.260  0.00  0.00    +0.000 A 
ATOM     13  C   UNL     1      46.391   4.026   7.554  0.00  0.00    +0.000 A 
ATOM     14  C   UNL     1      45.473   4.228   8.578  0.00  0.00    +0.000 A 
ATOM     15  C   UNL     1      45.001   3.125   9.279  0.00  0.00    +0.000 A 
ATOM     16  N   UNL     1      45.387   1.863   9.001  0.00  0.00    +0.000 NA
ENDBRANCH   9  15
ENDBRANCH   8   9
ENDBRANCH   2   8
ENDBRANCH   1   5
BRANCH   1  17
ATOM     17  N   UNL     1      48.501   6.982  15.573  0.00  0.00    +0.000 N 
ATOM     18  C   UNL     1      49.725   6.853  16.173  0.00  0.00    +0.000 C 
ATOM     19  O   UNL     1      50.770   6.825  15.525  0.00  0.00    +0.000 OA
ATOM     20  H   UNL     1      47.656   6.770  16.095  0.00  0.00    +0.000 HD
BRANCH  18  21
ATOM     21  C   UNL     1      49.739   6.825  17.642  0.00  0.00    +0.000 A 
ATOM     22  C   UNL     1      50.242   7.912  18.344  0.00  0.00    +0.000 A 
ATOM     23  S   UNL     1      50.146   7.743  20.038  0.00  0.00    +0.000 S 
ATOM     24  C   UNL     1      49.468   6.189  19.898  0.00  0.00    +0.000 A 
ATOM     25  N   UNL     1      49.161   5.460  21.004  0.00  0.00    +0.000 NA
ATOM     26  C   UNL     1      48.683   4.287  20.754  0.00  0.00    +0.000 A 
ATOM     27  N   UNL     1      48.475   3.781  19.498  0.00  0.00    +0.000 N 
ATOM     28  C   UNL     1      48.719   4.502  18.353  0.00  0.00    +0.000 A 
ATOM     29  O   UNL     1      48.433   4.053  17.249  0.00  0.00    +0.000 OA
ATOM     30  C   UNL     1      49.294   5.815  18.576  0.00  0.00    +0.000 A 
ATOM     31  H   UNL     1      48.077   2.863  19.368  0.00  0.00    +0.000 HD
ENDBRANCH  18  21
ENDBRANCH   1  17
TORSDOF 6
ENDMDL
MODEL 3
REMARK VINA RESULT:    -7.485      3.457      5.131
REMARK INTER + INTRA:         -11.028
REMARK INTER:                 -10.186
REMARK INTRA:                  -0.842
REMARK UNBOUND:                -0.918
REMARK  Name = 
REMARK  7 active torsions:
REMARK  status: ('A' for Active; 'I' for Inactive)
REMARK    1  A    between atoms: C_1  and  C_2
REMARK    2  A    between atoms: C_6  and  S_7
REMARK    3  A    between atoms: S_7  and  C_8
REMARK    4  A    between atoms: C_8  and  C_9
REMARK    5  A    between atoms: C_12  and  C_13
REMARK    6  A    between atoms: C_13  and  N_14
REMARK    7  A    between atoms: C_15  and  C_17
REMARK                            x       y       z     vdW  Elec       q    Type
REMARK                         _______ _______ _______ _____ _____    ______ ____
ROOT
ATOM      1  C   UNL     1      47.556   4.178  16.662  0.00  0.00    +0.000 C 
ENDROOT
BRANCH   1   5
ATOM      2  C   UNL     1      46.705   5.791  12.788  0.00  0.00    +0.000 A 
ATOM      3  C   UNL     1      47.751   6.320  13.552  0.00  0.00    +0.000 A 
ATOM      4  C   UNL     1      48.047   5.788  14.804  0.00  0.00    +0.000 A 
ATOM      5  C   UNL     1      47.255   4.762  15.304  0.00  0.00    +0.000 A 
ATOM      6  N   UNL     1      46.212   4.246  14.605  0.00  0.00    +0.000 NA
ATOM      7  C   UNL     1      45.964   4.767  13.379  0.00  0.00    +0.000 A 
BRANCH   2   8
ATOM      8  C   UNL     1      46.314   6.329  11.433  0.00  0.00    +0.000 C 
BRANCH   8   9
ATOM      9  S   UNL     1      44.605   5.893  10.942  0.00  0.00    +0.000 S 
BRANCH   9  15
ATOM     10  C   UNL     1      46.604   3.854   6.708  0.00  0.00    +0.000 C 
ATOM     11  C   UNL     1      45.808   3.604   7.951  0.00  0.00    +0.000 A 
ATOM     12  C   UNL     1      45.295   2.343   8.238  0.00  0.00    +0.000 A 
ATOM     13  C   UNL     1      44.567   2.171   9.409  0.00  0.00    +0.000 A 
ATOM     14  C   UNL     1      44.368   3.259  10.251  0.00  0.00    +0.000 A 
ATOM     15  C   UNL     1      44.902   4.490   9.891  0.00  0.00    +0.000 A 
ATOM     16  N   UNL     1      45.618   4.673   8.762  0.00  0.00    +0.000 NA
ENDBRANCH   9  15
ENDBRANCH   8   9
ENDBRANCH   2   8
ENDBRANCH   1   5
BRANCH   1  17
ATOM     17  N   UNL     1      48.971   3.971  16.875  0.00  0.00    +0.000 N 
ATOM     18  C   UNL     1      49.642   4.490  17.950  0.00  0.00    +0.000 C 
ATOM     19  O   UNL     1      49.077   5.166  18.807  0.00  0.00    +0.000 OA
ATOM     20  H   UNL     1      49.488   3.624  16.073  0.00  0.00    +0.000 HD
BRANCH  18  21
ATOM     21  C   UNL     1      51.063   4.135  18.071  0.00  0.00    +0.000 A 
ATOM     22  C   UNL     1      51.969   5.084  18.528  0.00  0.00    +0.000 A 
ATOM     23  S   UNL     1      53.567   4.503  18.655  0.00  0.00    +0.000 S 
ATOM     24  C   UNL     1      53.117   2.975  18.059  0.00  0.00    +0.000 A 
ATOM     25  N   UNL     1      54.041   1.991  17.892  0.00  0.00    +0.000 NA
ATOM     26  C   UNL     1      53.570   0.893  17.404  0.00  0.00    +0.000 A 
ATOM     27  N   UNL     1      52.255   0.686  17.077  0.00  0.00    +0.000 N 
ATOM     28  C   UNL     1      51.278   1.632  17.280  0.00  0.00    +0.000 A 
ATOM     29  O   UNL     1      50.098   1.379  17.064  0.00  0.00    +0.000 OA
ATOM     30  C   UNL     1      51.760   2.900  17.792  0.00  0.00    +0.000 A 
ATOM     31  H   UNL     1      51.944  -0.204  16.719  0.00  0.00    +0.000 HD
ENDBRANCH  18  21
ENDBRANCH   1  17
TORSDOF 6
ENDMDL
MODEL 4
REMARK VINA RESULT:    -7.411      2.454      3.129
REMARK INTER + INTRA:         -10.929
REMARK INTER:                  -9.871
REMARK INTRA:                  -1.058
REMARK UNBOUND:                -0.918
REMARK  Name = 
REMARK  7 active torsions:
REMARK  status: ('A' for Active; 'I' for Inactive)
REMARK    1  A    between atoms: C_1  and  C_2
REMARK    2  A    between atoms: C_6  and  S_7
REMARK    3  A    between atoms: S_7  and  C_8
REMARK    4  A    between atoms: C_8  and  C_9
REMARK    5  A    between atoms: C_12  and  C_13
REMARK    6  A    between atoms: C_13  and  N_14
REMARK    7  A    between atoms: C_15  and  C_17
REMARK                            x       y       z     vdW  Elec       q    Type
REMARK                         _______ _______ _______ _____ _____    ______ ____
ROOT
ATOM      1  C   UNL     1      47.404   4.929  14.957  0.00  0.00    +0.000 C 
ENDROOT
BRANCH   1   5
ATOM      2  C   UNL     1      44.944   3.947  11.592  0.00  0.00    +0.000 A 
ATOM      3  C   UNL     1      45.195   5.287  11.908  0.00  0.00    +0.000 A 
ATOM      4  C   UNL     1      46.010   5.614  12.988  0.00  0.00    +0.000 A 
ATOM      5  C   UNL     1      46.524   4.593  13.777  0.00  0.00    +0.000 A 
ATOM      6  N   UNL     1      46.274   3.283  13.520  0.00  0.00    +0.000 NA
ATOM      7  C   UNL     1      45.499   2.995  12.447  0.00  0.00    +0.000 A 
BRANCH   2   8
ATOM      8  C   UNL     1      44.056   3.518  10.449  0.00  0.00    +0.000 C 
BRANCH   8   9
ATOM      9  S   UNL     1      44.479   4.319   8.859  0.00  0.00    +0.000 S 
BRANCH   9  15
ATOM     10  C   UNL     1      47.622   2.792   5.134  0.00  0.00    +0.000 C 
ATOM     11  C   UNL     1      46.914   2.411   6.398  0.00  0.00    +0.000 A 
ATOM     12  C   UNL     1      47.027   1.130   6.929  0.00  0.00    +0.000 A 
ATOM     13  C   UNL     1      46.350   0.836   8.106  0.00  0.00    +0.000 A 
ATOM     14  C   UNL     1      45.579   1.821   8.711  0.00  0.00    +0.000 A 
ATOM     15  C   UNL     1      45.506   3.073   8.113  0.00  0.00    +0.000 A 
ATOM     16  N   UNL     1      46.163   3.379   6.975  0.00  0.00    +0.000 NA
ENDBRANCH   9  15
ENDBRANCH   8   9
ENDBRANCH   2   8
ENDBRANCH   1   5
BRANCH   1  17
ATOM     17  N   UNL     1      47.877   6.294  14.923  0.00  0.00    +0.000 N 
ATOM     18  C   UNL     1      49.039   6.690  15.530  0.00  0.00    +0.000 C 
ATOM     19  O   UNL     1      49.757   5.902  16.142  0.00  0.00    +0.000 OA
ATOM     20  H   UNL     1      47.195   6.987  14.631  0.00  0.00    +0.000 HD
BRANCH  18  21
ATOM     21  C   UNL     1      49.429   8.096  15.349  0.00  0.00    +0.000 A 
ATOM     22  C   UNL     1      49.655   8.892  16.464  0.00  0.00    +0.000 A 
ATOM     23  S   UNL     1      50.143  10.482  16.086  0.00  0.00    +0.000 S 
ATOM     24  C   UNL     1      50.026  10.178  14.416  0.00  0.00    +0.000 A 
ATOM     25  N   UNL     1      50.292  11.156  13.509  0.00  0.00    +0.000 NA
ATOM     26  C   UNL     1      50.135  10.800  12.279  0.00  0.00    +0.000 A 
ATOM     27  N   UNL     1      49.745   9.550  11.872  0.00  0.00    +0.000 N 
ATOM     28  C   UNL     1      49.520   8.517  12.751  0.00  0.00    +0.000 A 
ATOM     29  O   UNL     1      49.264   7.387  12.347  0.00  0.00    +0.000 OA
ATOM     30  C   UNL     1      49.645   8.874  14.150  0.00  0.00    +0.000 A 
ATOM     31  H   UNL     1      49.661   9.326  10.892  0.00  0.00    +0.000 HD
ENDBRANCH  18  21
ENDBRANCH   1  17
TORSDOF 6
ENDMDL
MODEL 5
REMARK VINA RESULT:    -7.393      2.966      8.874
REMARK INTER + INTRA:         -10.905
REMARK INTER:                  -9.821
REMARK INTRA:                  -1.084
REMARK UNBOUND:                -0.918
REMARK  Name = 
REMARK  7 active torsions:
REMARK  status: ('A' for Active; 'I' for Inactive)
REMARK    1  A    between atoms: C_1  and  C_2
REMARK    2  A    between atoms: C_6  and  S_7
REMARK    3  A    between atoms: S_7  and  C_8
REMARK    4  A    between atoms: C_8  and  C_9
REMARK    5  A    between atoms: C_12  and  C_13
REMARK    6  A    between atoms: C_13  and  N_14
REMARK    7  A    between atoms: C_15  and  C_17
REMARK                            x       y       z     vdW  Elec       q    Type
REMARK                         _______ _______ _______ _____ _____    ______ ____
ROOT
ATOM      1  C   UNL     1      47.461   7.648  12.163  0.00  0.00    +0.000 C 
ENDROOT
BRANCH   1   5
ATOM      2  C   UNL     1      49.095   7.688  16.121  0.00  0.00    +0.000 A 
ATOM      3  C   UNL     1      48.332   8.769  15.668  0.00  0.00    +0.000 A 
ATOM      4  C   UNL     1      47.780   8.755  14.390  0.00  0.00    +0.000 A 
ATOM      5  C   UNL     1      48.044   7.677  13.555  0.00  0.00    +0.000 A 
ATOM      6  N   UNL     1      48.808   6.626  13.949  0.00  0.00    +0.000 NA
ATOM      7  C   UNL     1      49.310   6.656  15.207  0.00  0.00    +0.000 A 
BRANCH   2   8
ATOM      8  C   UNL     1      49.740   7.642  17.485  0.00  0.00    +0.000 C 
BRANCH   8   9
ATOM      9  S   UNL     1      48.673   6.891  18.769  0.00  0.00    +0.000 S 
BRANCH   9  15
ATOM     10  C   UNL     1      50.759   2.444  17.370  0.00  0.00    +0.000 C 
ATOM     11  C   UNL     1      49.496   3.236  17.507  0.00  0.00    +0.000 A 
ATOM     12  C   UNL     1      48.268   2.706  17.124  0.00  0.00    +0.000 A 
ATOM     13  C   UNL     1      47.129   3.486  17.277  0.00  0.00    +0.000 A 
ATOM     14  C   UNL     1      47.249   4.769  17.799  0.00  0.00    +0.000 A 
ATOM     15  C   UNL     1      48.512   5.232  18.148  0.00  0.00    +0.000 A 
ATOM     16  N   UNL     1      49.627   4.485  18.014  0.00  0.00    +0.000 NA
ENDBRANCH   9  15
ENDBRANCH   8   9
ENDBRANCH   2   8
ENDBRANCH   1   5
BRANCH   1  17
ATOM     17  N   UNL     1      46.759   6.416  11.883  0.00  0.00    +0.000 N 
ATOM     18  C   UNL     1      45.395   6.344  11.795  0.00  0.00    +0.000 C 
ATOM     19  O   UNL     1      44.678   7.331  11.948  0.00  0.00    +0.000 OA
ATOM     20  H   UNL     1      47.306   5.567  11.985  0.00  0.00    +0.000 HD
BRANCH  18  21
ATOM     21  C   UNL     1      44.827   5.038  11.432  0.00  0.00    +0.000 A 
ATOM     22  C   UNL     1      44.040   4.354  12.350  0.00  0.00    +0.000 A 
ATOM     23  S   UNL     1      43.421   2.878  11.761  0.00  0.00    +0.000 S 
ATOM     24  C   UNL     1      44.220   3.076  10.272  0.00  0.00    +0.000 A 
ATOM     25  N   UNL     1      44.126   2.129   9.299  0.00  0.00    +0.000 NA
ATOM     26  C   UNL     1      44.806   2.391   8.234  0.00  0.00    +0.000 A 
ATOM     27  N   UNL     1      45.564   3.517   8.049  0.00  0.00    +0.000 N 
ATOM     28  C   UNL     1      45.643   4.524   8.981  0.00  0.00    +0.000 A 
ATOM     29  O   UNL     1      46.255   5.560   8.743  0.00  0.00    +0.000 OA
ATOM     30  C   UNL     1      44.928   4.264  10.215  0.00  0.00    +0.000 A 
ATOM     31  H   UNL     1      46.056   3.674   7.182  0.00  0.00    +0.000 HD
ENDBRANCH  18  21
ENDBRANCH   1  17
TORSDOF 6
ENDMDL
MODEL 6
REMARK VINA RESULT:    -7.335      5.117      9.048
REMARK INTER + INTRA:         -10.827
REMARK INTER:                 -10.036
REMARK INTRA:                  -0.790
REMARK UNBOUND:                -0.918
REMARK  Name = 
REMARK  7 active torsions:
REMARK  status: ('A' for Active; 'I' for Inactive)
REMARK    1  A    between atoms: C_1  and  C_2
REMARK    2  A    between atoms: C_6  and  S_7
REMARK    3  A    between atoms: S_7  and  C_8
REMARK    4  A    between atoms: C_8  and  C_9
REMARK    5  A    between atoms: C_12  and  C_13
REMARK    6  A    between atoms: C_13  and  N_14
REMARK    7  A    between atoms: C_15  and  C_17
REMARK                            x       y       z     vdW  Elec       q    Type
REMARK                         _______ _______ _______ _____ _____    ______ ____
ROOT
ATOM      1  C   UNL     1      47.231   3.617  16.771  0.00  0.00    +0.000 C 
ENDROOT
BRANCH   1   5
ATOM      2  C   UNL     1      51.417   4.013  17.582  0.00  0.00    +0.000 A 
ATOM      3  C   UNL     1      50.610   5.152  17.495  0.00  0.00    +0.000 A 
ATOM      4  C   UNL     1      49.245   5.031  17.252  0.00  0.00    +0.000 A 
ATOM      5  C   UNL     1      48.708   3.767  17.043  0.00  0.00    +0.000 A 
ATOM      6  N   UNL     1      49.467   2.642  17.087  0.00  0.00    +0.000 NA
ATOM      7  C   UNL     1      50.788   2.790  17.351  0.00  0.00    +0.000 A 
BRANCH   2   8
ATOM      8  C   UNL     1      52.906   4.069  17.823  0.00  0.00    +0.000 C 
BRANCH   8   9
ATOM      9  S   UNL     1      53.457   3.017  19.217  0.00  0.00    +0.000 S 
BRANCH   9  15
ATOM     10  C   UNL     1      54.173  -2.032  18.946  0.00  0.00    +0.000 C 
ATOM     11  C   UNL     1      54.367  -0.711  18.268  0.00  0.00    +0.000 A 
ATOM     12  C   UNL     1      55.012  -0.620  17.039  0.00  0.00    +0.000 A 
ATOM     13  C   UNL     1      55.160   0.633  16.456  0.00  0.00    +0.000 A 
ATOM     14  C   UNL     1      54.667   1.752  17.118  0.00  0.00    +0.000 A 
ATOM     15  C   UNL     1      54.043   1.581  18.347  0.00  0.00    +0.000 A 
ATOM     16  N   UNL     1      53.884   0.371  18.924  0.00  0.00    +0.000 NA
ENDBRANCH   9  15
ENDBRANCH   8   9
ENDBRANCH   2   8
ENDBRANCH   1   5
BRANCH   1  17
ATOM     17  N   UNL     1      46.758   4.538  15.763  0.00  0.00    +0.000 N 
ATOM     18  C   UNL     1      46.775   4.246  14.425  0.00  0.00    +0.000 C 
ATOM     19  O   UNL     1      47.196   3.173  13.997  0.00  0.00    +0.000 OA
ATOM     20  H   UNL     1      46.630   5.497  16.071  0.00  0.00    +0.000 HD
BRANCH  18  21
ATOM     21  C   UNL     1      46.194   5.251  13.524  0.00  0.00    +0.000 A 
ATOM     22  C   UNL     1      46.920   6.393  13.213  0.00  0.00    +0.000 A 
ATOM     23  S   UNL     1      46.127   7.437  12.122  0.00  0.00    +0.000 S 
ATOM     24  C   UNL     1      44.762   6.423  12.062  0.00  0.00    +0.000 A 
ATOM     25  N   UNL     1      43.678   6.757  11.309  0.00  0.00    +0.000 NA
ATOM     26  C   UNL     1      42.702   5.915  11.379  0.00  0.00    +0.000 A 
ATOM     27  N   UNL     1      42.714   4.765  12.124  0.00  0.00    +0.000 N 
ATOM     28  C   UNL     1      43.807   4.361  12.854  0.00  0.00    +0.000 A 
ATOM     29  O   UNL     1      43.817   3.281  13.433  0.00  0.00    +0.000 OA
ATOM     30  C   UNL     1      44.920   5.291  12.842  0.00  0.00    +0.000 A 
ATOM     31  H   UNL     1      41.926   4.136  12.119  0.00  0.00    +0.000 HD
ENDBRANCH  18  21
ENDBRANCH   1  17
TORSDOF 6
ENDMDL
MODEL 7
REMARK VINA RESULT:    -7.212      3.809      5.250
REMARK INTER + INTRA:         -10.660
REMARK INTER:                  -9.831
REMARK INTRA:                  -0.829
REMARK UNBOUND:                -0.918
REMARK  Name = 
REMARK  7 active torsions:
REMARK  status: ('A' for Active; 'I' for Inactive)
REMARK    1  A    between atoms: C_1  and  C_2
REMARK    2  A    between atoms: C_6  and  S_7
REMARK    3  A    between atoms: S_7  and  C_8
REMARK    4  A    between atoms: C_8  and  C_9
REMARK    5  A    between atoms: C_12  and  C_13
REMARK    6  A    between atoms: C_13  and  N_14
REMARK    7  A    between atoms: C_15  and  C_17
REMARK                            x       y       z     vdW  Elec       q    Type
REMARK                         _______ _______ _______ _____ _____    ______ ____
ROOT
ATOM      1  C   UNL     1      47.789   3.734  17.291  0.00  0.00    +0.000 C 
ENDROOT
BRANCH   1   5
ATOM      2  C   UNL     1      47.438   5.833  13.575  0.00  0.00    +0.000 A 
ATOM      3  C   UNL     1      46.765   4.620  13.760  0.00  0.00    +0.000 A 
ATOM      4  C   UNL     1      46.858   3.942  14.972  0.00  0.00    +0.000 A 
ATOM      5  C   UNL     1      47.670   4.459  15.973  0.00  0.00    +0.000 A 
ATOM      6  N   UNL     1      48.363   5.617  15.817  0.00  0.00    +0.000 NA
ATOM      7  C   UNL     1      48.233   6.268  14.636  0.00  0.00    +0.000 A 
BRANCH   2   8
ATOM      8  C   UNL     1      47.399   6.614  12.283  0.00  0.00    +0.000 C 
BRANCH   8   9
ATOM      9  S   UNL     1      45.710   7.120  11.790  0.00  0.00    +0.000 S 
BRANCH   9  15
ATOM     10  C   UNL     1      46.058   3.985   7.773  0.00  0.00    +0.000 C 
ATOM     11  C   UNL     1      45.346   4.289   9.055  0.00  0.00    +0.000 A 
ATOM     12  C   UNL     1      44.288   3.500   9.497  0.00  0.00    +0.000 A 
ATOM     13  C   UNL     1      43.669   3.828  10.696  0.00  0.00    +0.000 A 
ATOM     14  C   UNL     1      44.116   4.932  11.412  0.00  0.00    +0.000 A 
ATOM     15  C   UNL     1      45.170   5.678  10.900  0.00  0.00    +0.000 A 
ATOM     16  N   UNL     1      45.789   5.369   9.742  0.00  0.00    +0.000 NA
ENDBRANCH   9  15
ENDBRANCH   8   9
ENDBRANCH   2   8
ENDBRANCH   1   5
BRANCH   1  17
ATOM     17  N   UNL     1      49.159   3.422  17.630  0.00  0.00    +0.000 N 
ATOM     18  C   UNL     1      49.865   2.423  17.016  0.00  0.00    +0.000 C 
ATOM     19  O   UNL     1      49.373   1.726  16.130  0.00  0.00    +0.000 OA
ATOM     20  H   UNL     1      49.496   3.820  18.501  0.00  0.00    +0.000 HD
BRANCH  18  21
ATOM     21  C   UNL     1      51.271   2.270  17.415  0.00  0.00    +0.000 A 
ATOM     22  C   UNL     1      51.799   0.998  17.589  0.00  0.00    +0.000 A 
ATOM     23  S   UNL     1      53.452   0.990  18.007  0.00  0.00    +0.000 S 
ATOM     24  C   UNL     1      53.513   2.691  18.016  0.00  0.00    +0.000 A 
ATOM     25  N   UNL     1      54.663   3.346  18.329  0.00  0.00    +0.000 NA
ATOM     26  C   UNL     1      54.561   4.632  18.328  0.00  0.00    +0.000 A 
ATOM     27  N   UNL     1      53.415   5.324  18.032  0.00  0.00    +0.000 N 
ATOM     28  C   UNL     1      52.247   4.705  17.657  0.00  0.00    +0.000 A 
ATOM     29  O   UNL     1      51.268   5.357  17.308  0.00  0.00    +0.000 OA
ATOM     30  C   UNL     1      52.295   3.256  17.679  0.00  0.00    +0.000 A 
ATOM     31  H   UNL     1      53.405   6.333  18.027  0.00  0.00    +0.000 HD
ENDBRANCH  18  21
ENDBRANCH   1  17
TORSDOF 6
ENDMDL
MODEL 8
REMARK VINA RESULT:    -7.028      4.614      8.610
REMARK INTER + INTRA:         -10.411
REMARK INTER:                  -9.467
REMARK INTRA:                  -0.944
REMARK UNBOUND:                -0.918
REMARK  Name = 
REMARK  7 active torsions:
REMARK  status: ('A' for Active; 'I' for Inactive)
REMARK    1  A    between atoms: C_1  and  C_2
REMARK    2  A    between atoms: C_6  and  S_7
REMARK    3  A    between atoms: S_7  and  C_8
REMARK    4  A    between atoms: C_8  and  C_9
REMARK    5  A    between atoms: C_12  and  C_13
REMARK    6  A    between atoms: C_13  and  N_14
REMARK    7  A    between atoms: C_15  and  C_17
REMARK                            x       y       z     vdW  Elec       q    Type
REMARK                         _______ _______ _______ _____ _____    ______ ____
ROOT
ATOM      1  C   UNL     1      47.164   3.338  16.846  0.00  0.00    +0.000 C 
ENDROOT
BRANCH   1   5
ATOM      2  C   UNL     1      51.361   3.119  17.670  0.00  0.00    +0.000 A 
ATOM      3  C   UNL     1      50.645   4.278  17.987  0.00  0.00    +0.000 A 
ATOM      4  C   UNL     1      49.277   4.350  17.741  0.00  0.00    +0.000 A 
ATOM      5  C   UNL     1      48.645   3.275  17.127  0.00  0.00    +0.000 A 
ATOM      6  N   UNL     1      49.315   2.147  16.776  0.00  0.00    +0.000 NA
ATOM      7  C   UNL     1      50.641   2.097  17.051  0.00  0.00    +0.000 A 
BRANCH   2   8
ATOM      8  C   UNL     1      52.847   2.976  17.890  0.00  0.00    +0.000 C 
BRANCH   8   9
ATOM      9  S   UNL     1      53.631   4.487  18.565  0.00  0.00    +0.000 S 
BRANCH   9  15
ATOM     10  C   UNL     1      52.734   7.913  14.885  0.00  0.00    +0.000 C 
ATOM     11  C   UNL     1      53.668   6.865  15.408  0.00  0.00    +0.000 A 
ATOM     12  C   UNL     1      54.834   6.534  14.725  0.00  0.00    +0.000 A 
ATOM     13  C   UNL     1      55.664   5.557  15.260  0.00  0.00    +0.000 A 
ATOM     14  C   UNL     1      55.304   4.937  16.451  0.00  0.00    +0.000 A 
ATOM     15  C   UNL     1      54.118   5.314  17.068  0.00  0.00    +0.000 A 
ATOM     16  N   UNL     1      53.304   6.267  16.567  0.00  0.00    +0.000 NA
ENDBRANCH   9  15
ENDBRANCH   8   9
ENDBRANCH   2   8
ENDBRANCH   1   5
BRANCH   1  17
ATOM     17  N   UNL     1      46.829   4.347  15.867  0.00  0.00    +0.000 N 
ATOM     18  C   UNL     1      46.894   4.122  14.519  0.00  0.00    +0.000 C 
ATOM     19  O   UNL     1      47.242   3.039  14.054  0.00  0.00    +0.000 OA
ATOM     20  H   UNL     1      46.769   5.298  16.221  0.00  0.00    +0.000 HD
BRANCH  18  21
ATOM     21  C   UNL     1      46.453   5.220  13.646  0.00  0.00    +0.000 A 
ATOM     22  C   UNL     1      47.297   6.301  13.426  0.00  0.00    +0.000 A 
ATOM     23  S   UNL     1      46.658   7.466  12.357  0.00  0.00    +0.000 S 
ATOM     24  C   UNL     1      45.209   6.591  12.184  0.00  0.00    +0.000 A 
ATOM     25  N   UNL     1      44.199   7.061  11.403  0.00  0.00    +0.000 NA
ATOM     26  C   UNL     1      43.147   6.314  11.385  0.00  0.00    +0.000 A 
ATOM     27  N   UNL     1      43.016   5.134  12.070  0.00  0.00    +0.000 N 
ATOM     28  C   UNL     1      44.029   4.594  12.826  0.00  0.00    +0.000 A 
ATOM     29  O   UNL     1      43.911   3.491  13.348  0.00  0.00    +0.000 OA
ATOM     30  C   UNL     1      45.223   5.413  12.911  0.00  0.00    +0.000 A 
ATOM     31  H   UNL     1      42.174   4.584  11.998  0.00  0.00    +0.000 HD
ENDBRANCH  18  21
ENDBRANCH   1  17
TORSDOF 6
ENDMDL
MODEL 9
REMARK VINA RESULT:    -6.871      3.740      9.305
REMARK INTER + INTRA:         -10.200
REMARK INTER:                  -9.090
REMARK INTRA:                  -1.109
REMARK UNBOUND:                -0.918
REMARK  Name = 
REMARK  7 active torsions:
REMARK  status: ('A' for Active; 'I' for Inactive)
REMARK    1  A    between atoms: C_1  and  C_2
REMARK    2  A    between atoms: C_6  and  S_7
REMARK    3  A    between atoms: S_7  and  C_8
REMARK    4  A    between atoms: C_8  and  C_9
REMARK    5  A    between atoms: C_12  and  C_13
REMARK    6  A    between atoms: C_13  and  N_14
REMARK    7  A    between atoms: C_15  and  C_17
REMARK                            x       y       z     vdW  Elec       q    Type
REMARK                         _______ _______ _______ _____ _____    ______ ____
ROOT
ATOM      1  C   UNL     1      47.397   3.549  16.494  0.00  0.00    +0.000 C 
ENDROOT
BRANCH   1   5
ATOM      2  C   UNL     1      50.219   5.359  19.159  0.00  0.00    +0.000 A 
ATOM      3  C   UNL     1      48.899   5.150  19.573  0.00  0.00    +0.000 A 
ATOM      4  C   UNL     1      47.981   4.544  18.720  0.00  0.00    +0.000 A 
ATOM      5  C   UNL     1      48.381   4.200  17.435  0.00  0.00    +0.000 A 
ATOM      6  N   UNL     1      49.644   4.418  16.988  0.00  0.00    +0.000 NA
ATOM      7  C   UNL     1      50.522   4.986  17.849  0.00  0.00    +0.000 A 
BRANCH   2   8
ATOM      8  C   UNL     1      51.263   6.027  20.021  0.00  0.00    +0.000 C 
BRANCH   8   9
ATOM      9  S   UNL     1      51.710   7.708  19.452  0.00  0.00    +0.000 S 
BRANCH   9  15
ATOM     10  C   UNL     1      47.157   9.293  21.139  0.00  0.00    +0.000 C 
ATOM     11  C   UNL     1      48.041   9.094  19.946  0.00  0.00    +0.000 A 
ATOM     12  C   UNL     1      47.599   9.401  18.663  0.00  0.00    +0.000 A 
ATOM     13  C   UNL     1      48.464   9.199  17.595  0.00  0.00    +0.000 A 
ATOM     14  C   UNL     1      49.736   8.694  17.838  0.00  0.00    +0.000 A 
ATOM     15  C   UNL     1      50.101   8.402  19.146  0.00  0.00    +0.000 A 
ATOM     16  N   UNL     1      49.276   8.599  20.196  0.00  0.00    +0.000 NA
ENDBRANCH   9  15
ENDBRANCH   8   9
ENDBRANCH   2   8
ENDBRANCH   1   5
BRANCH   1  17
ATOM     17  N   UNL     1      46.817   4.490  15.562  0.00  0.00    +0.000 N 
ATOM     18  C   UNL     1      46.779   4.267  14.212  0.00  0.00    +0.000 C 
ATOM     19  O   UNL     1      47.238   3.245  13.706  0.00  0.00    +0.000 OA
ATOM     20  H   UNL     1      46.650   5.422  15.928  0.00  0.00    +0.000 HD
BRANCH  18  21
ATOM     21  C   UNL     1      46.092   5.280  13.398  0.00  0.00    +0.000 A 
ATOM     22  C   UNL     1      46.727   6.485  13.124  0.00  0.00    +0.000 A 
ATOM     23  S   UNL     1      45.818   7.532  12.132  0.00  0.00    +0.000 S 
ATOM     24  C   UNL     1      44.521   6.432  12.068  0.00  0.00    +0.000 A 
ATOM     25  N   UNL     1      43.385   6.732  11.382  0.00  0.00    +0.000 NA
ATOM     26  C   UNL     1      42.471   5.823  11.442  0.00  0.00    +0.000 A 
ATOM     27  N   UNL     1      42.592   4.637  12.117  0.00  0.00    +0.000 N 
ATOM     28  C   UNL     1      43.741   4.268  12.775  0.00  0.00    +0.000 A 
ATOM     29  O   UNL     1      43.849   3.159  13.288  0.00  0.00    +0.000 OA
ATOM     30  C   UNL     1      44.789   5.270  12.772  0.00  0.00    +0.000 A 
ATOM     31  H   UNL     1      41.848   3.956  12.107  0.00  0.00    +0.000 HD
ENDBRANCH  18  21
ENDBRANCH   1  17
TORSDOF 6
ENDMDL
