MODEL 1
REMARK VINA RESULT:    -8.480      0.000      0.000
REMARK INTER + INTRA:         -13.333
REMARK INTER:                 -11.950
REMARK INTRA:                  -1.383
REMARK UNBOUND:                -1.383
REMARK  Name = 
REMARK  8 active torsions:
REMARK  status: ('A' for Active; 'I' for Inactive)
REMARK    1  A    between atoms: C_1  and  C_2
REMARK    2  A    between atoms: C_2  and  N_3
REMARK    3  A    between atoms: C_2  and  C_25
REMARK    4  A    between atoms: N_3  and  C_4
REMARK    5  A    between atoms: C_4  and  C_5
REMARK    6  A    between atoms: C_8  and  C_9
REMARK    7  A    between atoms: C_9  and  N_10
REMARK    8  A    between atoms: C_11  and  C_13
REMARK                            x       y       z     vdW  Elec       q    Type
REMARK                         _______ _______ _______ _____ _____    ______ ____
ROOT
ATOM      1  C   UNL     1      44.690   5.792  10.835  0.00  0.00    +0.000 A 
ATOM      2  C   UNL     1      46.085   5.791  10.682  0.00  0.00    +0.000 A 
ATOM      3  C   UNL     1      46.893   6.584  11.500  0.00  0.00    +0.000 A 
ATOM      4  C   UNL     1      46.325   7.400  12.484  0.00  0.00    +0.000 A 
ATOM      5  C   UNL     1      44.929   7.447  12.599  0.00  0.00    +0.000 A 
ATOM      6  C   UNL     1      44.120   6.643  11.790  0.00  0.00    +0.000 A 
ENDROOT
BRANCH   1   7
ATOM      7  C   UNL     1      43.818   4.883   9.994  0.00  0.00    +0.000 C 
BRANCH   7   8
ATOM      8  N   UNL     1      44.531   4.455   8.791  0.00  0.00    +0.000 NA
ATOM      9  H   UNL     1      44.109   4.911   7.984  0.00  0.00    +0.000 HD
BRANCH   8  11
ATOM     10  C   UNL     1      44.449   2.194   9.846  0.00  0.00    +0.000 C 
ATOM     11  C   UNL     1      44.510   3.008   8.549  0.00  0.00    +0.000 C 
BRANCH  11  12
ATOM     12  C   UNL     1      45.745   2.583   7.763  0.00  0.00    +0.000 A 
ATOM     13  C   UNL     1      46.365   1.357   8.031  0.00  0.00    +0.000 A 
ATOM     14  C   UNL     1      47.516   1.020   7.331  0.00  0.00    +0.000 A 
ATOM     15  N   UNL     1      48.084   1.805   6.393  0.00  0.00    +0.000 NA
ATOM     16  C   UNL     1      47.477   2.985   6.147  0.00  0.00    +0.000 A 
ATOM     17  C   UNL     1      46.330   3.413   6.797  0.00  0.00    +0.000 A 
ENDBRANCH  11  12
ENDBRANCH   8  11
ENDBRANCH   7   8
ENDBRANCH   1   7
BRANCH   4  18
ATOM     18  C   UNL     1      47.188   8.238  13.389  0.00  0.00    +0.000 C 
BRANCH  18  19
ATOM     19  N   UNL     1      47.544   7.521  14.585  0.00  0.00    +0.000 N 
ATOM     20  C   UNL     1      48.766   6.912  14.708  0.00  0.00    +0.000 C 
ATOM     21  O   UNL     1      49.619   6.977  13.827  0.00  0.00    +0.000 OA
ATOM     22  H   UNL     1      46.784   7.248  15.201  0.00  0.00    +0.000 HD
BRANCH  20  23
ATOM     23  C   UNL     1      49.029   6.230  15.978  0.00  0.00    +0.000 A 
ATOM     24  C   UNL     1      50.042   6.687  16.809  0.00  0.00    +0.000 A 
ATOM     25  S   UNL     1      50.190   5.802  18.258  0.00  0.00    +0.000 S 
ATOM     26  C   UNL     1      48.936   4.745  17.803  0.00  0.00    +0.000 A 
ATOM     27  N   UNL     1      48.572   3.708  18.604  0.00  0.00    +0.000 NA
ATOM     28  C   UNL     1      47.628   2.969  18.125  0.00  0.00    +0.000 A 
ATOM     29  N   UNL     1      47.007   3.180  16.920  0.00  0.00    +0.000 N 
ATOM     30  C   UNL     1      47.320   4.233  16.093  0.00  0.00    +0.000 A 
ATOM     31  O   UNL     1      46.707   4.424  15.046  0.00  0.00    +0.000 OA
ATOM     32  C   UNL     1      48.392   5.082  16.578  0.00  0.00    +0.000 A 
ATOM     33  H   UNL     1      46.268   2.569  16.608  0.00  0.00    +0.000 HD
ENDBRANCH  20  23
ENDBRANCH  18  19
ENDBRANCH   4  18
TORSDOF 7
ENDMDL
MODEL 2
REMARK VINA RESULT:    -7.954      2.461      3.076
REMARK INTER + INTRA:         -12.592
REMARK INTER:                 -11.441
REMARK INTRA:                  -1.151
REMARK UNBOUND:                -1.383
REMARK  Name = 
REMARK  8 active torsions:
REMARK  status: ('A' for Active; 'I' for Inactive)
REMARK    1  A    between atoms: C_1  and  C_2
REMARK    2  A    between atoms: C_2  and  N_3
REMARK    3  A    between atoms: C_2  and  C_25
REMARK    4  A    between atoms: N_3  and  C_4
REMARK    5  A    between atoms: C_4  and  C_5
REMARK    6  A    between atoms: C_8  and  C_9
REMARK    7  A    between atoms: C_9  and  N_10
REMARK    8  A    between atoms: C_11  and  C_13
REMARK                            x       y       z     vdW  Elec       q    Type
REMARK                         _______ _______ _______ _____ _____    ______ ____
ROOT
ATOM      1  C   UNL     1      45.503   5.573  11.556  0.00  0.00    +0.000 A 
ATOM      2  C   UNL     1      46.341   6.634  11.180  0.00  0.00    +0.000 A 
ATOM      3  C   UNL     1      47.384   7.049  12.011  0.00  0.00    +0.000 A 
ATOM      4  C   UNL     1      47.609   6.417  13.239  0.00  0.00    +0.000 A 
ATOM      5  C   UNL     1      46.737   5.396  13.642  0.00  0.00    +0.000 A 
ATOM      6  C   UNL     1      45.702   4.971  12.805  0.00  0.00    +0.000 A 
ENDROOT
BRANCH   1   7
ATOM      7  C   UNL     1      44.413   5.080  10.627  0.00  0.00    +0.000 C 
BRANCH   7   8
ATOM      8  N   UNL     1      44.972   4.720   9.325  0.00  0.00    +0.000 NA
ATOM      9  H   UNL     1      44.658   5.402   8.636  0.00  0.00    +0.000 HD
BRANCH   8  11
ATOM     10  C   UNL     1      44.164   2.449   9.975  0.00  0.00    +0.000 C 
ATOM     11  C   UNL     1      44.590   3.388   8.841  0.00  0.00    +0.000 C 
BRANCH  11  12
ATOM     12  C   UNL     1      45.746   2.746   8.082  0.00  0.00    +0.000 A 
ATOM     13  C   UNL     1      46.028   1.385   8.244  0.00  0.00    +0.000 A 
ATOM     14  C   UNL     1      47.117   0.841   7.577  0.00  0.00    +0.000 A 
ATOM     15  N   UNL     1      47.933   1.546   6.767  0.00  0.00    +0.000 NA
ATOM     16  C   UNL     1      47.651   2.858   6.622  0.00  0.00    +0.000 A 
ATOM     17  C   UNL     1      46.592   3.494   7.251  0.00  0.00    +0.000 A 
ENDBRANCH  11  12
ENDBRANCH   8  11
ENDBRANCH   7   8
ENDBRANCH   1   7
BRANCH   4  18
ATOM     18  C   UNL     1      48.747   6.838  14.130  0.00  0.00    +0.000 C 
BRANCH  18  19
ATOM     19  N   UNL     1      48.320   6.973  15.497  0.00  0.00    +0.000 N 
ATOM     20  C   UNL     1      49.037   6.411  16.522  0.00  0.00    +0.000 C 
ATOM     21  O   UNL     1      50.085   5.800  16.326  0.00  0.00    +0.000 OA
ATOM     22  H   UNL     1      47.354   7.245  15.654  0.00  0.00    +0.000 HD
BRANCH  20  23
ATOM     23  C   UNL     1      48.522   6.631  17.876  0.00  0.00    +0.000 A 
ATOM     24  C   UNL     1      48.386   5.557  18.744  0.00  0.00    +0.000 A 
ATOM     25  S   UNL     1      47.807   5.995  20.287  0.00  0.00    +0.000 S 
ATOM     26  C   UNL     1      47.671   7.629  19.831  0.00  0.00    +0.000 A 
ATOM     27  N   UNL     1      47.191   8.558  20.701  0.00  0.00    +0.000 NA
ATOM     28  C   UNL     1      47.115   9.752  20.217  0.00  0.00    +0.000 A 
ATOM     29  N   UNL     1      47.485  10.104  18.943  0.00  0.00    +0.000 N 
ATOM     30  C   UNL     1      48.006   9.205  18.042  0.00  0.00    +0.000 A 
ATOM     31  O   UNL     1      48.377   9.565  16.929  0.00  0.00    +0.000 OA
ATOM     32  C   UNL     1      48.092   7.842  18.532  0.00  0.00    +0.000 A 
ATOM     33  H   UNL     1      47.409  11.060  18.630  0.00  0.00    +0.000 HD
ENDBRANCH  20  23
ENDBRANCH  18  19
ENDBRANCH   4  18
TORSDOF 7
ENDMDL
MODEL 3
REMARK VINA RESULT:    -7.921      1.863      2.168
REMARK INTER + INTRA:         -12.545
REMARK INTER:                 -11.411
REMARK INTRA:                  -1.133
REMARK UNBOUND:                -1.383
REMARK  Name = 
REMARK  8 active torsions:
REMARK  status: ('A' for Active; 'I' for Inactive)
REMARK    1  A    between atoms: C_1  and  C_2
REMARK    2  A    between atoms: C_2  and  N_3
REMARK    3  A    between atoms: C_2  and  C_25
REMARK    4  A    between atoms: N_3  and  C_4
REMARK    5  A    between atoms: C_4  and  C_5
REMARK    6  A    between atoms: C_8  and  C_9
REMARK    7  A    between atoms: C_9  and  N_10
REMARK    8  A    between atoms: C_11  and  C_13
REMARK                            x       y       z     vdW  Elec       q    Type
REMARK                         _______ _______ _______ _____ _____    ______ ____
ROOT
ATOM      1  C   UNL     1      45.634   5.525  11.568  0.00  0.00    +0.000 A 
ATOM      2  C   UNL     1      46.468   6.574  11.151  0.00  0.00    +0.000 A 
ATOM      3  C   UNL     1      47.500   7.036  11.972  0.00  0.00    +0.000 A 
ATOM      4  C   UNL     1      47.716   6.463  13.230  0.00  0.00    +0.000 A 
ATOM      5  C   UNL     1      46.849   5.456  13.672  0.00  0.00    +0.000 A 
ATOM      6  C   UNL     1      45.825   4.984  12.846  0.00  0.00    +0.000 A 
ENDROOT
BRANCH   1   7
ATOM      7  C   UNL     1      44.557   4.980  10.653  0.00  0.00    +0.000 C 
BRANCH   7   8
ATOM      8  N   UNL     1      45.115   4.654   9.341  0.00  0.00    +0.000 NA
ATOM      9  H   UNL     1      44.819   5.368   8.676  0.00  0.00    +0.000 HD
BRANCH   8  11
ATOM     10  C   UNL     1      44.257   2.379   9.906  0.00  0.00    +0.000 C 
ATOM     11  C   UNL     1      44.705   3.350   8.808  0.00  0.00    +0.000 C 
BRANCH  11  12
ATOM     12  C   UNL     1      45.848   2.711   8.028  0.00  0.00    +0.000 A 
ATOM     13  C   UNL     1      46.089   1.336   8.125  0.00  0.00    +0.000 A 
ATOM     14  C   UNL     1      47.168   0.793   7.441  0.00  0.00    +0.000 A 
ATOM     15  N   UNL     1      48.011   1.512   6.671  0.00  0.00    +0.000 NA
ATOM     16  C   UNL     1      47.769   2.837   6.589  0.00  0.00    +0.000 A 
ATOM     17  C   UNL     1      46.723   3.473   7.240  0.00  0.00    +0.000 A 
ENDBRANCH  11  12
ENDBRANCH   8  11
ENDBRANCH   7   8
ENDBRANCH   1   7
BRANCH   4  18
ATOM     18  C   UNL     1      48.843   6.935  14.111  0.00  0.00    +0.000 C 
BRANCH  18  19
ATOM     19  N   UNL     1      48.528   6.757  15.504  0.00  0.00    +0.000 N 
ATOM     20  C   UNL     1      48.971   7.646  16.449  0.00  0.00    +0.000 C 
ATOM     21  O   UNL     1      49.623   8.644  16.151  0.00  0.00    +0.000 OA
ATOM     22  H   UNL     1      48.218   5.834  15.792  0.00  0.00    +0.000 HD
BRANCH  20  23
ATOM     23  C   UNL     1      48.572   7.380  17.833  0.00  0.00    +0.000 A 
ATOM     24  C   UNL     1      47.959   8.377  18.577  0.00  0.00    +0.000 A 
ATOM     25  S   UNL     1      47.530   7.888  20.154  0.00  0.00    +0.000 S 
ATOM     26  C   UNL     1      48.194   6.340  19.912  0.00  0.00    +0.000 A 
ATOM     27  N   UNL     1      48.188   5.415  20.908  0.00  0.00    +0.000 NA
ATOM     28  C   UNL     1      48.749   4.294  20.599  0.00  0.00    +0.000 A 
ATOM     29  N   UNL     1      49.308   4.011  19.378  0.00  0.00    +0.000 N 
ATOM     30  C   UNL     1      49.308   4.903  18.332  0.00  0.00    +0.000 A 
ATOM     31  O   UNL     1      49.768   4.598  17.236  0.00  0.00    +0.000 OA
ATOM     32  C   UNL     1      48.707   6.188  18.637  0.00  0.00    +0.000 A 
ATOM     33  H   UNL     1      49.723   3.109  19.198  0.00  0.00    +0.000 HD
ENDBRANCH  20  23
ENDBRANCH  18  19
ENDBRANCH   4  18
TORSDOF 7
ENDMDL
MODEL 4
REMARK VINA RESULT:    -7.307      3.327      7.932
REMARK INTER + INTRA:         -11.680
REMARK INTER:                 -10.076
REMARK INTRA:                  -1.604
REMARK UNBOUND:                -1.383
REMARK  Name = 
REMARK  8 active torsions:
REMARK  status: ('A' for Active; 'I' for Inactive)
REMARK    1  A    between atoms: C_1  and  C_2
REMARK    2  A    between atoms: C_2  and  N_3
REMARK    3  A    between atoms: C_2  and  C_25
REMARK    4  A    between atoms: N_3  and  C_4
REMARK    5  A    between atoms: C_4  and  C_5
REMARK    6  A    between atoms: C_8  and  C_9
REMARK    7  A    between atoms: C_9  and  N_10
REMARK    8  A    between atoms: C_11  and  C_13
REMARK                            x       y       z     vdW  Elec       q    Type
REMARK                         _______ _______ _______ _____ _____    ______ ____
ROOT
ATOM      1  C   UNL     1      48.654   7.647  16.263  0.00  0.00    +0.000 A 
ATOM      2  C   UNL     1      48.372   8.906  15.712  0.00  0.00    +0.000 A 
ATOM      3  C   UNL     1      48.222   9.064  14.332  0.00  0.00    +0.000 A 
ATOM      4  C   UNL     1      48.358   7.969  13.472  0.00  0.00    +0.000 A 
ATOM      5  C   UNL     1      48.698   6.722  14.015  0.00  0.00    +0.000 A 
ATOM      6  C   UNL     1      48.834   6.560  15.397  0.00  0.00    +0.000 A 
ENDROOT
BRANCH   1   7
ATOM      7  C   UNL     1      48.752   7.462  17.763  0.00  0.00    +0.000 C 
BRANCH   7   8
ATOM      8  N   UNL     1      47.983   6.293  18.187  0.00  0.00    +0.000 NA
ATOM      9  H   UNL     1      47.233   6.603  18.803  0.00  0.00    +0.000 HD
BRANCH   8  11
ATOM     10  C   UNL     1      50.117   5.803  19.387  0.00  0.00    +0.000 C 
ATOM     11  C   UNL     1      48.760   5.277  18.907  0.00  0.00    +0.000 C 
BRANCH  11  12
ATOM     12  C   UNL     1      48.995   4.060  18.019  0.00  0.00    +0.000 A 
ATOM     13  C   UNL     1      50.268   3.485  17.930  0.00  0.00    +0.000 A 
ATOM     14  C   UNL     1      50.460   2.408  17.075  0.00  0.00    +0.000 A 
ATOM     15  N   UNL     1      49.486   1.866  16.316  0.00  0.00    +0.000 NA
ATOM     16  C   UNL     1      48.264   2.432  16.409  0.00  0.00    +0.000 A 
ATOM     17  C   UNL     1      47.975   3.514  17.227  0.00  0.00    +0.000 A 
ENDBRANCH  11  12
ENDBRANCH   8  11
ENDBRANCH   7   8
ENDBRANCH   1   7
BRANCH   4  18
ATOM     18  C   UNL     1      48.172   8.123  11.986  0.00  0.00    +0.000 C 
BRANCH  18  19
ATOM     19  N   UNL     1      47.505   6.980  11.420  0.00  0.00    +0.000 N 
ATOM     20  C   UNL     1      46.137   6.901  11.392  0.00  0.00    +0.000 C 
ATOM     21  O   UNL     1      45.422   7.807  11.814  0.00  0.00    +0.000 OA
ATOM     22  H   UNL     1      48.058   6.136  11.303  0.00  0.00    +0.000 HD
BRANCH  20  23
ATOM     23  C   UNL     1      45.565   5.703  10.772  0.00  0.00    +0.000 A 
ATOM     24  C   UNL     1      45.728   5.487   9.411  0.00  0.00    +0.000 A 
ATOM     25  S   UNL     1      45.032   4.030   8.862  0.00  0.00    +0.000 S 
ATOM     26  C   UNL     1      44.445   3.663  10.416  0.00  0.00    +0.000 A 
ATOM     27  N   UNL     1      43.712   2.539  10.637  0.00  0.00    +0.000 NA
ATOM     28  C   UNL     1      43.306   2.396  11.854  0.00  0.00    +0.000 A 
ATOM     29  N   UNL     1      43.576   3.274  12.875  0.00  0.00    +0.000 N 
ATOM     30  C   UNL     1      44.340   4.404  12.705  0.00  0.00    +0.000 A 
ATOM     31  O   UNL     1      44.608   5.139  13.651  0.00  0.00    +0.000 OA
ATOM     32  C   UNL     1      44.802   4.620  11.346  0.00  0.00    +0.000 A 
ATOM     33  H   UNL     1      43.237   3.098  13.808  0.00  0.00    +0.000 HD
ENDBRANCH  20  23
ENDBRANCH  18  19
ENDBRANCH   4  18
TORSDOF 7
ENDMDL
MODEL 5
REMARK VINA RESULT:    -7.057      2.839      8.191
REMARK INTER + INTRA:         -11.328
REMARK INTER:                  -9.652
REMARK INTRA:                  -1.676
REMARK UNBOUND:                -1.383
REMARK  Name = 
REMARK  8 active torsions:
REMARK  status: ('A' for Active; 'I' for Inactive)
REMARK    1  A    between atoms: C_1  and  C_2
REMARK    2  A    between atoms: C_2  and  N_3
REMARK    3  A    between atoms: C_2  and  C_25
REMARK    4  A    between atoms: N_3  and  C_4
REMARK    5  A    between atoms: C_4  and  C_5
REMARK    6  A    between atoms: C_8  and  C_9
REMARK    7  A    between atoms: C_9  and  N_10
REMARK    8  A    between atoms: C_11  and  C_13
REMARK                            x       y       z     vdW  Elec       q    Type
REMARK                         _______ _______ _______ _____ _____    ______ ____
ROOT
ATOM      1  C   UNL     1      49.281   7.961  15.748  0.00  0.00    +0.000 A 
ATOM      2  C   UNL     1      49.729   7.063  14.768  0.00  0.00    +0.000 A 
ATOM      3  C   UNL     1      49.108   7.003  13.517  0.00  0.00    +0.000 A 
ATOM      4  C   UNL     1      48.023   7.835  13.223  0.00  0.00    +0.000 A 
ATOM      5  C   UNL     1      47.537   8.691  14.221  0.00  0.00    +0.000 A 
ATOM      6  C   UNL     1      48.166   8.761  15.467  0.00  0.00    +0.000 A 
ENDROOT
BRANCH   1   7
ATOM      7  C   UNL     1      49.994   8.073  17.080  0.00  0.00    +0.000 C 
BRANCH   7   8
ATOM      8  N   UNL     1      50.438   6.757  17.537  0.00  0.00    +0.000 NA
ATOM      9  H   UNL     1      50.745   6.218  16.728  0.00  0.00    +0.000 HD
BRANCH   8  11
ATOM     10  C   UNL     1      49.754   5.734  19.709  0.00  0.00    +0.000 C 
ATOM     11  C   UNL     1      49.412   5.972  18.234  0.00  0.00    +0.000 C 
BRANCH  11  12
ATOM     12  C   UNL     1      49.221   4.623  17.552  0.00  0.00    +0.000 A 
ATOM     13  C   UNL     1      50.189   3.620  17.686  0.00  0.00    +0.000 A 
ATOM     14  C   UNL     1      50.009   2.419  17.012  0.00  0.00    +0.000 A 
ATOM     15  N   UNL     1      48.945   2.147  16.229  0.00  0.00    +0.000 NA
ATOM     16  C   UNL     1      48.022   3.124  16.107  0.00  0.00    +0.000 A 
ATOM     17  C   UNL     1      48.115   4.358  16.732  0.00  0.00    +0.000 A 
ENDBRANCH  11  12
ENDBRANCH   8  11
ENDBRANCH   7   8
ENDBRANCH   1   7
BRANCH   4  18
ATOM     18  C   UNL     1      47.364   7.798  11.869  0.00  0.00    +0.000 C 
BRANCH  18  19
ATOM     19  N   UNL     1      46.722   6.532  11.634  0.00  0.00    +0.000 N 
ATOM     20  C   UNL     1      45.370   6.381  11.806  0.00  0.00    +0.000 C 
ATOM     21  O   UNL     1      44.646   7.317  12.134  0.00  0.00    +0.000 OA
ATOM     22  H   UNL     1      47.319   5.710  11.611  0.00  0.00    +0.000 HD
BRANCH  20  23
ATOM     23  C   UNL     1      44.820   5.055  11.515  0.00  0.00    +0.000 A 
ATOM     24  C   UNL     1      44.118   4.370  12.496  0.00  0.00    +0.000 A 
ATOM     25  S   UNL     1      43.518   2.859  11.980  0.00  0.00    +0.000 S 
ATOM     26  C   UNL     1      44.220   3.047  10.441  0.00  0.00    +0.000 A 
ATOM     27  N   UNL     1      44.110   2.071   9.501  0.00  0.00    +0.000 NA
ATOM     28  C   UNL     1      44.712   2.331   8.389  0.00  0.00    +0.000 A 
ATOM     29  N   UNL     1      45.408   3.485   8.129  0.00  0.00    +0.000 N 
ATOM     30  C   UNL     1      45.517   4.511   9.037  0.00  0.00    +0.000 A 
ATOM     31  O   UNL     1      46.101   5.553   8.752  0.00  0.00    +0.000 OA
ATOM     32  C   UNL     1      44.874   4.258  10.313  0.00  0.00    +0.000 A 
ATOM     33  H   UNL     1      45.848   3.630   7.233  0.00  0.00    +0.000 HD
ENDBRANCH  20  23
ENDBRANCH  18  19
ENDBRANCH   4  18
TORSDOF 7
ENDMDL
MODEL 6
REMARK VINA RESULT:    -6.876      1.705      2.100
REMARK INTER + INTRA:         -11.073
REMARK INTER:                 -10.293
REMARK INTRA:                  -0.780
REMARK UNBOUND:                -1.383
REMARK  Name = 
REMARK  8 active torsions:
REMARK  status: ('A' for Active; 'I' for Inactive)
REMARK    1  A    between atoms: C_1  and  C_2
REMARK    2  A    between atoms: C_2  and  N_3
REMARK    3  A    between atoms: C_2  and  C_25
REMARK    4  A    between atoms: N_3  and  C_4
REMARK    5  A    between atoms: C_4  and  C_5
REMARK    6  A    between atoms: C_8  and  C_9
REMARK    7  A    between atoms: C_9  and  N_10
REMARK    8  A    between atoms: C_11  and  C_13
REMARK                            x       y       z     vdW  Elec       q    Type
REMARK                         _______ _______ _______ _____ _____    ______ ____
ROOT
ATOM      1  C   UNL     1      45.420   6.468  11.275  0.00  0.00    +0.000 A 
ATOM      2  C   UNL     1      46.684   6.128  11.781  0.00  0.00    +0.000 A 
ATOM      3  C   UNL     1      47.446   7.062  12.487  0.00  0.00    +0.000 A 
ATOM      4  C   UNL     1      46.964   8.358  12.697  0.00  0.00    +0.000 A 
ATOM      5  C   UNL     1      45.727   8.717  12.143  0.00  0.00    +0.000 A 
ATOM      6  C   UNL     1      44.959   7.780  11.448  0.00  0.00    +0.000 A 
ENDROOT
BRANCH   1   7
ATOM      7  C   UNL     1      44.565   5.438  10.567  0.00  0.00    +0.000 C 
BRANCH   7   8
ATOM      8  N   UNL     1      45.241   4.946   9.367  0.00  0.00    +0.000 NA
ATOM      9  H   UNL     1      45.146   5.644   8.631  0.00  0.00    +0.000 HD
BRANCH   8  11
ATOM     10  C   UNL     1      44.164   2.771   9.953  0.00  0.00    +0.000 C 
ATOM     11  C   UNL     1      44.721   3.675   8.848  0.00  0.00    +0.000 C 
BRANCH  11  12
ATOM     12  C   UNL     1      45.814   2.919   8.102  0.00  0.00    +0.000 A 
ATOM     13  C   UNL     1      45.982   1.544   8.299  0.00  0.00    +0.000 A 
ATOM     14  C   UNL     1      47.017   0.893   7.642  0.00  0.00    +0.000 A 
ATOM     15  N   UNL     1      47.884   1.505   6.809  0.00  0.00    +0.000 NA
ATOM     16  C   UNL     1      47.712   2.832   6.630  0.00  0.00    +0.000 A 
ATOM     17  C   UNL     1      46.714   3.571   7.247  0.00  0.00    +0.000 A 
ENDBRANCH  11  12
ENDBRANCH   8  11
ENDBRANCH   7   8
ENDBRANCH   1   7
BRANCH   4  18
ATOM     18  C   UNL     1      47.764   9.364  13.481  0.00  0.00    +0.000 C 
BRANCH  18  19
ATOM     19  N   UNL     1      48.704   8.717  14.358  0.00  0.00    +0.000 N 
ATOM     20  C   UNL     1      49.989   8.464  13.955  0.00  0.00    +0.000 C 
ATOM     21  O   UNL     1      50.407   8.803  12.851  0.00  0.00    +0.000 OA
ATOM     22  H   UNL     1      48.320   8.216  15.154  0.00  0.00    +0.000 HD
BRANCH  20  23
ATOM     23  C   UNL     1      50.866   7.821  14.939  0.00  0.00    +0.000 A 
ATOM     24  C   UNL     1      52.200   8.192  15.018  0.00  0.00    +0.000 A 
ATOM     25  S   UNL     1      53.066   7.372  16.237  0.00  0.00    +0.000 S 
ATOM     26  C   UNL     1      51.698   6.455  16.667  0.00  0.00    +0.000 A 
ATOM     27  N   UNL     1      51.768   5.515  17.646  0.00  0.00    +0.000 NA
ATOM     28  C   UNL     1      50.667   4.874  17.851  0.00  0.00    +0.000 A 
ATOM     29  N   UNL     1      49.496   5.097  17.170  0.00  0.00    +0.000 N 
ATOM     30  C   UNL     1      49.370   6.059  16.196  0.00  0.00    +0.000 A 
ATOM     31  O   UNL     1      48.293   6.269  15.645  0.00  0.00    +0.000 OA
ATOM     32  C   UNL     1      50.590   6.793  15.914  0.00  0.00    +0.000 A 
ATOM     33  H   UNL     1      48.666   4.567  17.386  0.00  0.00    +0.000 HD
ENDBRANCH  20  23
ENDBRANCH  18  19
ENDBRANCH   4  18
TORSDOF 7
ENDMDL
MODEL 7
REMARK VINA RESULT:    -6.668      3.687      7.911
REMARK INTER + INTRA:         -10.780
REMARK INTER:                  -9.152
REMARK INTRA:                  -1.628
REMARK UNBOUND:                -1.383
REMARK  Name = 
REMARK  8 active torsions:
REMARK  status: ('A' for Active; 'I' for Inactive)
REMARK    1  A    between atoms: C_1  and  C_2
REMARK    2  A    between atoms: C_2  and  N_3
REMARK    3  A    between atoms: C_2  and  C_25
REMARK    4  A    between atoms: N_3  and  C_4
REMARK    5  A    between atoms: C_4  and  C_5
REMARK    6  A    between atoms: C_8  and  C_9
REMARK    7  A    between atoms: C_9  and  N_10
REMARK    8  A    between atoms: C_11  and  C_13
REMARK                            x       y       z     vdW  Elec       q    Type
REMARK                         _______ _______ _______ _____ _____    ______ ____
ROOT
ATOM      1  C   UNL     1      49.676   7.595  17.815  0.00  0.00    +0.000 A 
ATOM      2  C   UNL     1      50.168   7.089  16.603  0.00  0.00    +0.000 A 
ATOM      3  C   UNL     1      49.667   7.548  15.382  0.00  0.00    +0.000 A 
ATOM      4  C   UNL     1      48.659   8.517  15.347  0.00  0.00    +0.000 A 
ATOM      5  C   UNL     1      48.126   8.981  16.557  0.00  0.00    +0.000 A 
ATOM      6  C   UNL     1      48.636   8.533  17.778  0.00  0.00    +0.000 A 
ENDROOT
BRANCH   1   7
ATOM      7  C   UNL     1      50.263   7.147  19.138  0.00  0.00    +0.000 C 
BRANCH   7   8
ATOM      8  N   UNL     1      50.403   5.692  19.171  0.00  0.00    +0.000 NA
ATOM      9  H   UNL     1      50.949   5.399  18.362  0.00  0.00    +0.000 HD
BRANCH   8  11
ATOM     10  C   UNL     1      48.772   4.357  20.509  0.00  0.00    +0.000 C 
ATOM     11  C   UNL     1      49.134   4.954  19.145  0.00  0.00    +0.000 C 
BRANCH  11  12
ATOM     12  C   UNL     1      49.196   3.828  18.119  0.00  0.00    +0.000 A 
ATOM     13  C   UNL     1      50.384   3.114  17.924  0.00  0.00    +0.000 A 
ATOM     14  C   UNL     1      50.421   2.128  16.948  0.00  0.00    +0.000 A 
ATOM     15  N   UNL     1      49.372   1.802  16.165  0.00  0.00    +0.000 NA
ATOM     16  C   UNL     1      48.234   2.501  16.362  0.00  0.00    +0.000 A 
ATOM     17  C   UNL     1      48.100   3.508  17.305  0.00  0.00    +0.000 A 
ENDBRANCH  11  12
ENDBRANCH   8  11
ENDBRANCH   7   8
ENDBRANCH   1   7
BRANCH   4  18
ATOM     18  C   UNL     1      48.132   9.038  14.036  0.00  0.00    +0.000 C 
BRANCH  18  19
ATOM     19  N   UNL     1      46.965   8.309  13.614  0.00  0.00    +0.000 N 
ATOM     20  C   UNL     1      47.046   7.347  12.641  0.00  0.00    +0.000 C 
ATOM     21  O   UNL     1      48.112   7.040  12.113  0.00  0.00    +0.000 OA
ATOM     22  H   UNL     1      46.062   8.711  13.847  0.00  0.00    +0.000 HD
BRANCH  20  23
ATOM     23  C   UNL     1      45.800   6.652  12.306  0.00  0.00    +0.000 A 
ATOM     24  C   UNL     1      44.731   7.367  11.788  0.00  0.00    +0.000 A 
ATOM     25  S   UNL     1      43.374   6.400  11.422  0.00  0.00    +0.000 S 
ATOM     26  C   UNL     1      44.153   4.999  11.993  0.00  0.00    +0.000 A 
ATOM     27  N   UNL     1      43.515   3.798  11.995  0.00  0.00    +0.000 NA
ATOM     28  C   UNL     1      44.210   2.825  12.480  0.00  0.00    +0.000 A 
ATOM     29  N   UNL     1      45.492   2.942  12.955  0.00  0.00    +0.000 N 
ATOM     30  C   UNL     1      46.187   4.128  12.942  0.00  0.00    +0.000 A 
ATOM     31  O   UNL     1      47.352   4.186  13.325  0.00  0.00    +0.000 OA
ATOM     32  C   UNL     1      45.440   5.259  12.425  0.00  0.00    +0.000 A 
ATOM     33  H   UNL     1      45.984   2.138  13.313  0.00  0.00    +0.000 HD
ENDBRANCH  20  23
ENDBRANCH  18  19
ENDBRANCH   4  18
TORSDOF 7
ENDMDL
MODEL 8
REMARK VINA RESULT:    -6.545      3.801      5.219
REMARK INTER + INTRA:         -10.606
REMARK INTER:                  -9.309
REMARK INTRA:                  -1.297
REMARK UNBOUND:                -1.383
REMARK  Name = 
REMARK  8 active torsions:
REMARK  status: ('A' for Active; 'I' for Inactive)
REMARK    1  A    between atoms: C_1  and  C_2
REMARK    2  A    between atoms: C_2  and  N_3
REMARK    3  A    between atoms: C_2  and  C_25
REMARK    4  A    between atoms: N_3  and  C_4
REMARK    5  A    between atoms: C_4  and  C_5
REMARK    6  A    between atoms: C_8  and  C_9
REMARK    7  A    between atoms: C_9  and  N_10
REMARK    8  A    between atoms: C_11  and  C_13
REMARK                            x       y       z     vdW  Elec       q    Type
REMARK                         _______ _______ _______ _____ _____    ______ ____
ROOT
ATOM      1  C   UNL     1      45.041   6.663  11.723  0.00  0.00    +0.000 A 
ATOM      2  C   UNL     1      46.238   6.087  12.175  0.00  0.00    +0.000 A 
ATOM      3  C   UNL     1      47.173   6.847  12.882  0.00  0.00    +0.000 A 
ATOM      4  C   UNL     1      46.935   8.200  13.147  0.00  0.00    +0.000 A 
ATOM      5  C   UNL     1      45.767   8.791  12.645  0.00  0.00    +0.000 A 
ATOM      6  C   UNL     1      44.825   8.028  11.950  0.00  0.00    +0.000 A 
ENDROOT
BRANCH   1   7
ATOM      7  C   UNL     1      43.997   5.825  11.014  0.00  0.00    +0.000 C 
BRANCH   7   8
ATOM      8  N   UNL     1      44.550   5.242   9.792  0.00  0.00    +0.000 NA
ATOM      9  H   UNL     1      44.206   5.774   8.994  0.00  0.00    +0.000 HD
BRANCH   8  11
ATOM     10  C   UNL     1      44.074   3.048  10.884  0.00  0.00    +0.000 C 
ATOM     11  C   UNL     1      44.201   3.833   9.574  0.00  0.00    +0.000 C 
BRANCH  11  12
ATOM     12  C   UNL     1      45.248   3.156   8.697  0.00  0.00    +0.000 A 
ATOM     13  C   UNL     1      45.437   1.771   8.764  0.00  0.00    +0.000 A 
ATOM     14  C   UNL     1      46.432   1.191   7.988  0.00  0.00    +0.000 A 
ATOM     15  N   UNL     1      47.238   1.882   7.157  0.00  0.00    +0.000 NA
ATOM     16  C   UNL     1      47.047   3.217   7.105  0.00  0.00    +0.000 A 
ATOM     17  C   UNL     1      46.086   3.889   7.845  0.00  0.00    +0.000 A 
ENDBRANCH  11  12
ENDBRANCH   8  11
ENDBRANCH   7   8
ENDBRANCH   1   7
BRANCH   4  18
ATOM     18  C   UNL     1      47.923   9.021  13.932  0.00  0.00    +0.000 C 
BRANCH  18  19
ATOM     19  N   UNL     1      49.180   9.131  13.239  0.00  0.00    +0.000 N 
ATOM     20  C   UNL     1      49.421  10.165  12.371  0.00  0.00    +0.000 C 
ATOM     21  O   UNL     1      48.598  11.055  12.171  0.00  0.00    +0.000 OA
ATOM     22  H   UNL     1      49.757   8.297  13.195  0.00  0.00    +0.000 HD
BRANCH  20  23
ATOM     23  C   UNL     1      50.742  10.191  11.739  0.00  0.00    +0.000 A 
ATOM     24  C   UNL     1      51.436  11.389  11.641  0.00  0.00    +0.000 A 
ATOM     25  S   UNL     1      52.969  11.233  10.911  0.00  0.00    +0.000 S 
ATOM     26  C   UNL     1      52.736   9.567  10.654  0.00  0.00    +0.000 A 
ATOM     27  N   UNL     1      53.682   8.820  10.024  0.00  0.00    +0.000 NA
ATOM     28  C   UNL     1      53.366   7.578   9.870  0.00  0.00    +0.000 A 
ATOM     29  N   UNL     1      52.191   7.013  10.298  0.00  0.00    +0.000 N 
ATOM     30  C   UNL     1      51.222   7.722  10.968  0.00  0.00    +0.000 A 
ATOM     31  O   UNL     1      50.206   7.172  11.385  0.00  0.00    +0.000 OA
ATOM     32  C   UNL     1      51.522   9.130  11.147  0.00  0.00    +0.000 A 
ATOM     33  H   UNL     1      52.010   6.031  10.154  0.00  0.00    +0.000 HD
ENDBRANCH  20  23
ENDBRANCH  18  19
ENDBRANCH   4  18
TORSDOF 7
ENDMDL
MODEL 9
REMARK VINA RESULT:    -6.299      4.751      7.583
REMARK INTER + INTRA:         -10.260
REMARK INTER:                  -9.155
REMARK INTRA:                  -1.105
REMARK UNBOUND:                -1.383
REMARK  Name = 
REMARK  8 active torsions:
REMARK  status: ('A' for Active; 'I' for Inactive)
REMARK    1  A    between atoms: C_1  and  C_2
REMARK    2  A    between atoms: C_2  and  N_3
REMARK    3  A    between atoms: C_2  and  C_25
REMARK    4  A    between atoms: N_3  and  C_4
REMARK    5  A    between atoms: C_4  and  C_5
REMARK    6  A    between atoms: C_8  and  C_9
REMARK    7  A    between atoms: C_9  and  N_10
REMARK    8  A    between atoms: C_11  and  C_13
REMARK                            x       y       z     vdW  Elec       q    Type
REMARK                         _______ _______ _______ _____ _____    ______ ____
ROOT
ATOM      1  C   UNL     1      50.859   8.416  12.407  0.00  0.00    +0.000 A 
ATOM      2  C   UNL     1      50.104   7.732  11.442  0.00  0.00    +0.000 A 
ATOM      3  C   UNL     1      48.716   7.625  11.567  0.00  0.00    +0.000 A 
ATOM      4  C   UNL     1      48.055   8.193  12.661  0.00  0.00    +0.000 A 
ATOM      5  C   UNL     1      48.815   8.825  13.655  0.00  0.00    +0.000 A 
ATOM      6  C   UNL     1      50.201   8.945  13.524  0.00  0.00    +0.000 A 
ENDROOT
BRANCH   1   7
ATOM      7  C   UNL     1      52.355   8.589  12.239  0.00  0.00    +0.000 C 
BRANCH   7   8
ATOM      8  N   UNL     1      52.718   8.578  10.823  0.00  0.00    +0.000 NA
ATOM      9  H   UNL     1      51.904   8.289  10.281  0.00  0.00    +0.000 HD
BRANCH   8  11
ATOM     10  C   UNL     1      55.159   8.412  10.324  0.00  0.00    +0.000 C 
ATOM     11  C   UNL     1      53.824   7.675  10.482  0.00  0.00    +0.000 C 
BRANCH  11  12
ATOM     12  C   UNL     1      53.522   6.929   9.187  0.00  0.00    +0.000 A 
ATOM     13  C   UNL     1      52.718   7.517   8.204  0.00  0.00    +0.000 A 
ATOM     14  C   UNL     1      52.421   6.793   7.058  0.00  0.00    +0.000 A 
ATOM     15  N   UNL     1      52.866   5.542   6.821  0.00  0.00    +0.000 NA
ATOM     16  C   UNL     1      53.638   4.986   7.779  0.00  0.00    +0.000 A 
ATOM     17  C   UNL     1      53.983   5.625   8.960  0.00  0.00    +0.000 A 
ENDBRANCH  11  12
ENDBRANCH   8  11
ENDBRANCH   7   8
ENDBRANCH   1   7
BRANCH   4  18
ATOM     18  C   UNL     1      46.558   8.107  12.791  0.00  0.00    +0.000 C 
BRANCH  18  19
ATOM     19  N   UNL     1      46.078   6.791  12.460  0.00  0.00    +0.000 N 
ATOM     20  C   UNL     1      44.929   6.619  11.732  0.00  0.00    +0.000 C 
ATOM     21  O   UNL     1      44.279   7.570  11.304  0.00  0.00    +0.000 OA
ATOM     22  H   UNL     1      46.447   6.016  13.002  0.00  0.00    +0.000 HD
BRANCH  20  23
ATOM     23  C   UNL     1      44.547   5.236  11.433  0.00  0.00    +0.000 A 
ATOM     24  C   UNL     1      43.784   4.520  12.344  0.00  0.00    +0.000 A 
ATOM     25  S   UNL     1      43.401   2.942  11.824  0.00  0.00    +0.000 S 
ATOM     26  C   UNL     1      44.285   3.145  10.384  0.00  0.00    +0.000 A 
ATOM     27  N   UNL     1      44.394   2.131   9.484  0.00  0.00    +0.000 NA
ATOM     28  C   UNL     1      45.116   2.410   8.451  0.00  0.00    +0.000 A 
ATOM     29  N   UNL     1      45.732   3.616   8.231  0.00  0.00    +0.000 N 
ATOM     30  C   UNL     1      45.623   4.679   9.097  0.00  0.00    +0.000 A 
ATOM     31  O   UNL     1      46.142   5.762   8.843  0.00  0.00    +0.000 OA
ATOM     32  C   UNL     1      44.837   4.408  10.287  0.00  0.00    +0.000 A 
ATOM     33  H   UNL     1      46.275   3.773   7.396  0.00  0.00    +0.000 HD
ENDBRANCH  20  23
ENDBRANCH  18  19
ENDBRANCH   4  18
TORSDOF 7
ENDMDL
