MODEL 1
REMARK VINA RESULT:    -7.694      0.000      0.000
REMARK INTER + INTRA:         -13.282
REMARK INTER:                 -11.742
REMARK INTRA:                  -1.539
REMARK UNBOUND:                -1.539
REMARK  Name = 
REMARK  10 active torsions:
REMARK  status: ('A' for Active; 'I' for Inactive)
REMARK    1  A    between atoms: C_2  and  C_3
REMARK    2  A    between atoms: C_7  and  C_8
REMARK    3  A    between atoms: C_8  and  N_9
REMARK    4  A    between atoms: N_9  and  C_10
REMARK    5  A    between atoms: C_10  and  C_11
REMARK    6  A    between atoms: C_14  and  C_15
REMARK    7  A    between atoms: C_15  and  N_16
REMARK    8  A    between atoms: C_17  and  C_19
REMARK    9  A    between atoms: C_26  and  O_27
REMARK   10  A    between atoms: O_27  and  C_28
REMARK                            x       y       z     vdW  Elec       q    Type
REMARK                         _______ _______ _______ _____ _____    ______ ____
ROOT
ATOM      1  C   UNL     1      44.541   5.595  12.897  0.00  0.00    +0.000 A 
ATOM      2  C   UNL     1      44.804   6.912  12.493  0.00  0.00    +0.000 A 
ATOM      3  C   UNL     1      46.114   7.397  12.439  0.00  0.00    +0.000 A 
ATOM      4  C   UNL     1      47.191   6.570  12.779  0.00  0.00    +0.000 A 
ATOM      5  C   UNL     1      46.926   5.263  13.212  0.00  0.00    +0.000 A 
ATOM      6  C   UNL     1      45.615   4.779  13.273  0.00  0.00    +0.000 A 
ENDROOT
BRANCH   1   7
ATOM      7  C   UNL     1      43.128   5.058  12.879  0.00  0.00    +0.000 C 
BRANCH   7   8
ATOM      8  N   UNL     1      42.724   4.549  11.566  0.00  0.00    +0.000 NA
ATOM      9  H   UNL     1      41.710   4.447  11.546  0.00  0.00    +0.000 HD
BRANCH   8  10
ATOM     10  C   UNL     1      43.321   3.242  11.278  0.00  0.00    +0.000 C 
BRANCH  10  15
ATOM     11  C   UNL     1      45.721   2.231   8.497  0.00  0.00    +0.000 A 
ATOM     12  C   UNL     1      46.060   3.465   7.949  0.00  0.00    +0.000 A 
ATOM     13  C   UNL     1      45.519   4.634   8.481  0.00  0.00    +0.000 A 
ATOM     14  C   UNL     1      44.633   4.566   9.557  0.00  0.00    +0.000 A 
ATOM     15  C   UNL     1      44.268   3.326  10.105  0.00  0.00    +0.000 A 
ATOM     16  C   UNL     1      44.826   2.158   9.567  0.00  0.00    +0.000 A 
BRANCH  11  18
ATOM     17  C   UNL     1      46.757   0.006   7.553  0.00  0.00    +0.000 C 
ATOM     18  C   UNL     1      46.297   1.026   7.981  0.00  0.00    +0.000 C 
ENDBRANCH  11  18
ENDBRANCH  10  15
ENDBRANCH   8  10
ENDBRANCH   7   8
ENDBRANCH   1   7
BRANCH   4  19
ATOM     19  C   UNL     1      48.612   7.073  12.704  0.00  0.00    +0.000 C 
BRANCH  19  20
ATOM     20  N   UNL     1      49.264   6.976  13.983  0.00  0.00    +0.000 N 
ATOM     21  C   UNL     1      48.968   7.822  15.022  0.00  0.00    +0.000 C 
ATOM     22  O   UNL     1      48.085   8.672  14.946  0.00  0.00    +0.000 OA
ATOM     23  H   UNL     1      50.120   6.441  14.021  0.00  0.00    +0.000 HD
BRANCH  21  24
ATOM     24  C   UNL     1      49.727   7.603  16.259  0.00  0.00    +0.000 A 
ATOM     25  C   UNL     1      50.603   8.578  16.715  0.00  0.00    +0.000 A 
ATOM     26  S   UNL     1      51.337   8.184  18.202  0.00  0.00    +0.000 S 
ATOM     27  C   UNL     1      50.550   6.679  18.250  0.00  0.00    +0.000 A 
ATOM     28  N   UNL     1      50.765   5.838  19.277  0.00  0.00    +0.000 NA
ATOM     29  C   UNL     1      50.085   4.696  19.160  0.00  0.00    +0.000 A 
ATOM     30  N   UNL     1      49.264   4.338  18.166  0.00  0.00    +0.000 NA
ATOM     31  C   UNL     1      49.081   5.211  17.160  0.00  0.00    +0.000 A 
ATOM     32  C   UNL     1      49.721   6.461  17.159  0.00  0.00    +0.000 A 
BRANCH  31  33
ATOM     33  O   UNL     1      48.252   4.872  16.111  0.00  0.00    +0.000 OA
ATOM     34  C   UNL     1      47.280   3.884  16.427  0.00  0.00    +0.000 C 
ENDBRANCH  31  33
ENDBRANCH  21  24
ENDBRANCH  19  20
ENDBRANCH   4  19
TORSDOF 9
ENDMDL
MODEL 2
REMARK VINA RESULT:    -7.575      1.191      1.456
REMARK INTER + INTRA:         -13.100
REMARK INTER:                 -11.349
REMARK INTRA:                  -1.751
REMARK UNBOUND:                -1.539
REMARK  Name = 
REMARK  10 active torsions:
REMARK  status: ('A' for Active; 'I' for Inactive)
REMARK    1  A    between atoms: C_2  and  C_3
REMARK    2  A    between atoms: C_7  and  C_8
REMARK    3  A    between atoms: C_8  and  N_9
REMARK    4  A    between atoms: N_9  and  C_10
REMARK    5  A    between atoms: C_10  and  C_11
REMARK    6  A    between atoms: C_14  and  C_15
REMARK    7  A    between atoms: C_15  and  N_16
REMARK    8  A    between atoms: C_17  and  C_19
REMARK    9  A    between atoms: C_26  and  O_27
REMARK   10  A    between atoms: O_27  and  C_28
REMARK                            x       y       z     vdW  Elec       q    Type
REMARK                         _______ _______ _______ _____ _____    ______ ____
ROOT
ATOM      1  C   UNL     1      45.056   5.233  13.115  0.00  0.00    +0.000 A 
ATOM      2  C   UNL     1      46.321   4.698  13.401  0.00  0.00    +0.000 A 
ATOM      3  C   UNL     1      47.467   5.496  13.339  0.00  0.00    +0.000 A 
ATOM      4  C   UNL     1      47.372   6.851  12.999  0.00  0.00    +0.000 A 
ATOM      5  C   UNL     1      46.111   7.377  12.682  0.00  0.00    +0.000 A 
ATOM      6  C   UNL     1      44.965   6.578  12.737  0.00  0.00    +0.000 A 
ENDROOT
BRANCH   1   7
ATOM      7  C   UNL     1      43.816   4.381  13.258  0.00  0.00    +0.000 C 
BRANCH   7   8
ATOM      8  N   UNL     1      43.897   3.120  12.517  0.00  0.00    +0.000 NA
ATOM      9  H   UNL     1      44.877   2.890  12.357  0.00  0.00    +0.000 HD
BRANCH   8  10
ATOM     10  C   UNL     1      43.228   3.206  11.216  0.00  0.00    +0.000 C 
BRANCH  10  15
ATOM     11  C   UNL     1      45.749   2.256   8.521  0.00  0.00    +0.000 A 
ATOM     12  C   UNL     1      46.135   3.503   8.038  0.00  0.00    +0.000 A 
ATOM     13  C   UNL     1      45.587   4.661   8.587  0.00  0.00    +0.000 A 
ATOM     14  C   UNL     1      44.647   4.569   9.614  0.00  0.00    +0.000 A 
ATOM     15  C   UNL     1      44.235   3.317  10.095  0.00  0.00    +0.000 A 
ATOM     16  C   UNL     1      44.801   2.160   9.542  0.00  0.00    +0.000 A 
BRANCH  11  18
ATOM     17  C   UNL     1      46.837   0.075   7.533  0.00  0.00    +0.000 C 
ATOM     18  C   UNL     1      46.331   1.061   7.990  0.00  0.00    +0.000 C 
ENDBRANCH  11  18
ENDBRANCH  10  15
ENDBRANCH   8  10
ENDBRANCH   7   8
ENDBRANCH   1   7
BRANCH   4  19
ATOM     19  C   UNL     1      48.597   7.729  12.950  0.00  0.00    +0.000 C 
BRANCH  19  20
ATOM     20  N   UNL     1      49.645   7.205  13.786  0.00  0.00    +0.000 N 
ATOM     21  C   UNL     1      49.852   7.652  15.066  0.00  0.00    +0.000 C 
ATOM     22  O   UNL     1      49.121   8.481  15.600  0.00  0.00    +0.000 OA
ATOM     23  H   UNL     1      50.380   6.685  13.328  0.00  0.00    +0.000 HD
BRANCH  21  24
ATOM     24  C   UNL     1      50.967   7.026  15.788  0.00  0.00    +0.000 A 
ATOM     25  C   UNL     1      52.263   7.482  15.589  0.00  0.00    +0.000 A 
ATOM     26  S   UNL     1      53.414   6.690  16.564  0.00  0.00    +0.000 S 
ATOM     27  C   UNL     1      52.225   5.679  17.237  0.00  0.00    +0.000 A 
ATOM     28  N   UNL     1      52.567   4.750  18.147  0.00  0.00    +0.000 NA
ATOM     29  C   UNL     1      51.524   4.031  18.565  0.00  0.00    +0.000 A 
ATOM     30  N   UNL     1      50.248   4.147  18.177  0.00  0.00    +0.000 NA
ATOM     31  C   UNL     1      49.956   5.090  17.263  0.00  0.00    +0.000 A 
ATOM     32  C   UNL     1      50.953   5.932  16.746  0.00  0.00    +0.000 A 
BRANCH  31  33
ATOM     33  O   UNL     1      48.654   5.231  16.829  0.00  0.00    +0.000 OA
ATOM     34  C   UNL     1      47.905   4.023  16.815  0.00  0.00    +0.000 C 
ENDBRANCH  31  33
ENDBRANCH  21  24
ENDBRANCH  19  20
ENDBRANCH   4  19
TORSDOF 9
ENDMDL
MODEL 3
REMARK VINA RESULT:    -7.127      2.671      4.267
REMARK INTER + INTRA:         -12.416
REMARK INTER:                 -11.119
REMARK INTRA:                  -1.297
REMARK UNBOUND:                -1.539
REMARK  Name = 
REMARK  10 active torsions:
REMARK  status: ('A' for Active; 'I' for Inactive)
REMARK    1  A    between atoms: C_2  and  C_3
REMARK    2  A    between atoms: C_7  and  C_8
REMARK    3  A    between atoms: C_8  and  N_9
REMARK    4  A    between atoms: N_9  and  C_10
REMARK    5  A    between atoms: C_10  and  C_11
REMARK    6  A    between atoms: C_14  and  C_15
REMARK    7  A    between atoms: C_15  and  N_16
REMARK    8  A    between atoms: C_17  and  C_19
REMARK    9  A    between atoms: C_26  and  O_27
REMARK   10  A    between atoms: O_27  and  C_28
REMARK                            x       y       z     vdW  Elec       q    Type
REMARK                         _______ _______ _______ _____ _____    ______ ____
ROOT
ATOM      1  C   UNL     1      47.259   5.709  13.503  0.00  0.00    +0.000 A 
ATOM      2  C   UNL     1      46.707   4.426  13.622  0.00  0.00    +0.000 A 
ATOM      3  C   UNL     1      46.836   3.697  14.809  0.00  0.00    +0.000 A 
ATOM      4  C   UNL     1      47.514   4.242  15.906  0.00  0.00    +0.000 A 
ATOM      5  C   UNL     1      48.093   5.512  15.775  0.00  0.00    +0.000 A 
ATOM      6  C   UNL     1      47.970   6.239  14.587  0.00  0.00    +0.000 A 
ENDROOT
BRANCH   1   7
ATOM      7  C   UNL     1      47.048   6.518  12.243  0.00  0.00    +0.000 C 
BRANCH   7   8
ATOM      8  N   UNL     1      45.675   6.447  11.739  0.00  0.00    +0.000 NA
ATOM      9  H   UNL     1      45.237   5.593  12.084  0.00  0.00    +0.000 HD
BRANCH   8  10
ATOM     10  C   UNL     1      45.630   6.425  10.275  0.00  0.00    +0.000 C 
BRANCH  10  15
ATOM     11  C   UNL     1      45.815   3.354   8.026  0.00  0.00    +0.000 A 
ATOM     12  C   UNL     1      45.103   2.415   8.767  0.00  0.00    +0.000 A 
ATOM     13  C   UNL     1      44.551   2.771   9.997  0.00  0.00    +0.000 A 
ATOM     14  C   UNL     1      44.720   4.066  10.487  0.00  0.00    +0.000 A 
ATOM     15  C   UNL     1      45.453   5.016   9.759  0.00  0.00    +0.000 A 
ATOM     16  C   UNL     1      45.994   4.648   8.520  0.00  0.00    +0.000 A 
BRANCH  11  18
ATOM     17  C   UNL     1      46.793   2.739   5.664  0.00  0.00    +0.000 C 
ATOM     18  C   UNL     1      46.355   3.009   6.747  0.00  0.00    +0.000 C 
ENDBRANCH  11  18
ENDBRANCH  10  15
ENDBRANCH   8  10
ENDBRANCH   7   8
ENDBRANCH   1   7
BRANCH   4  19
ATOM     19  C   UNL     1      47.642   3.477  17.199  0.00  0.00    +0.000 C 
BRANCH  19  20
ATOM     20  N   UNL     1      49.024   3.281  17.551  0.00  0.00    +0.000 N 
ATOM     21  C   UNL     1      49.821   2.366  16.911  0.00  0.00    +0.000 C 
ATOM     22  O   UNL     1      49.423   1.702  15.957  0.00  0.00    +0.000 OA
ATOM     23  H   UNL     1      49.326   3.648  18.443  0.00  0.00    +0.000 HD
BRANCH  21  24
ATOM     24  C   UNL     1      51.204   2.277  17.392  0.00  0.00    +0.000 A 
ATOM     25  C   UNL     1      51.788   1.034  17.593  0.00  0.00    +0.000 A 
ATOM     26  S   UNL     1      53.419   1.126  18.080  0.00  0.00    +0.000 S 
ATOM     27  C   UNL     1      53.375   2.824  18.089  0.00  0.00    +0.000 A 
ATOM     28  N   UNL     1      54.468   3.525  18.436  0.00  0.00    +0.000 NA
ATOM     29  C   UNL     1      54.267   4.844  18.407  0.00  0.00    +0.000 A 
ATOM     30  N   UNL     1      53.137   5.486  18.086  0.00  0.00    +0.000 NA
ATOM     31  C   UNL     1      52.069   4.742  17.746  0.00  0.00    +0.000 A 
ATOM     32  C   UNL     1      52.142   3.340  17.718  0.00  0.00    +0.000 A 
BRANCH  31  33
ATOM     33  O   UNL     1      50.884   5.368  17.421  0.00  0.00    +0.000 OA
ATOM     34  C   UNL     1      50.553   6.469  18.256  0.00  0.00    +0.000 C 
ENDBRANCH  31  33
ENDBRANCH  21  24
ENDBRANCH  19  20
ENDBRANCH   4  19
TORSDOF 9
ENDMDL
MODEL 4
REMARK VINA RESULT:    -7.019      3.036      5.075
REMARK INTER + INTRA:         -12.251
REMARK INTER:                 -10.719
REMARK INTRA:                  -1.532
REMARK UNBOUND:                -1.539
REMARK  Name = 
REMARK  10 active torsions:
REMARK  status: ('A' for Active; 'I' for Inactive)
REMARK    1  A    between atoms: C_2  and  C_3
REMARK    2  A    between atoms: C_7  and  C_8
REMARK    3  A    between atoms: C_8  and  N_9
REMARK    4  A    between atoms: N_9  and  C_10
REMARK    5  A    between atoms: C_10  and  C_11
REMARK    6  A    between atoms: C_14  and  C_15
REMARK    7  A    between atoms: C_15  and  N_16
REMARK    8  A    between atoms: C_17  and  C_19
REMARK    9  A    between atoms: C_26  and  O_27
REMARK   10  A    between atoms: O_27  and  C_28
REMARK                            x       y       z     vdW  Elec       q    Type
REMARK                         _______ _______ _______ _____ _____    ______ ____
ROOT
ATOM      1  C   UNL     1      47.801   5.911  14.627  0.00  0.00    +0.000 A 
ATOM      2  C   UNL     1      48.611   6.283  15.709  0.00  0.00    +0.000 A 
ATOM      3  C   UNL     1      48.787   5.427  16.801  0.00  0.00    +0.000 A 
ATOM      4  C   UNL     1      48.162   4.175  16.829  0.00  0.00    +0.000 A 
ATOM      5  C   UNL     1      47.326   3.817  15.762  0.00  0.00    +0.000 A 
ATOM      6  C   UNL     1      47.144   4.675  14.673  0.00  0.00    +0.000 A 
ENDROOT
BRANCH   1   7
ATOM      7  C   UNL     1      47.678   6.810  13.419  0.00  0.00    +0.000 C 
BRANCH   7   8
ATOM      8  N   UNL     1      46.344   7.395  13.271  0.00  0.00    +0.000 NA
ATOM      9  H   UNL     1      45.727   6.999  13.980  0.00  0.00    +0.000 HD
BRANCH   8  10
ATOM     10  C   UNL     1      45.767   7.117  11.954  0.00  0.00    +0.000 C 
BRANCH  10  15
ATOM     11  C   UNL     1      44.495   3.674  10.929  0.00  0.00    +0.000 A 
ATOM     12  C   UNL     1      43.569   3.402  11.933  0.00  0.00    +0.000 A 
ATOM     13  C   UNL     1      43.345   4.334  12.945  0.00  0.00    +0.000 A 
ATOM     14  C   UNL     1      44.054   5.536  12.954  0.00  0.00    +0.000 A 
ATOM     15  C   UNL     1      45.004   5.814  11.960  0.00  0.00    +0.000 A 
ATOM     16  C   UNL     1      45.213   4.872  10.943  0.00  0.00    +0.000 A 
BRANCH  11  18
ATOM     17  C   UNL     1      44.872   1.939   8.990  0.00  0.00    +0.000 C 
ATOM     18  C   UNL     1      44.707   2.740   9.867  0.00  0.00    +0.000 C 
ENDBRANCH  11  18
ENDBRANCH  10  15
ENDBRANCH   8  10
ENDBRANCH   7   8
ENDBRANCH   1   7
BRANCH   4  19
ATOM     19  C   UNL     1      48.360   3.232  17.991  0.00  0.00    +0.000 C 
BRANCH  19  20
ATOM     20  N   UNL     1      49.753   2.919  18.172  0.00  0.00    +0.000 N 
ATOM     21  C   UNL     1      50.454   2.152  17.277  0.00  0.00    +0.000 C 
ATOM     22  O   UNL     1      49.955   1.736  16.234  0.00  0.00    +0.000 OA
ATOM     23  H   UNL     1      50.137   3.062  19.095  0.00  0.00    +0.000 HD
BRANCH  21  24
ATOM     24  C   UNL     1      51.863   1.912  17.608  0.00  0.00    +0.000 A 
ATOM     25  C   UNL     1      52.350   0.614  17.664  0.00  0.00    +0.000 A 
ATOM     26  S   UNL     1      54.021   0.533  17.988  0.00  0.00    +0.000 S 
ATOM     27  C   UNL     1      54.131   2.223  18.117  0.00  0.00    +0.000 A 
ATOM     28  N   UNL     1      55.311   2.803  18.400  0.00  0.00    +0.000 NA
ATOM     29  C   UNL     1      55.226   4.132  18.481  0.00  0.00    +0.000 A 
ATOM     30  N   UNL     1      54.133   4.888  18.320  0.00  0.00    +0.000 NA
ATOM     31  C   UNL     1      52.975   4.262  18.040  0.00  0.00    +0.000 A 
ATOM     32  C   UNL     1      52.919   2.866  17.909  0.00  0.00    +0.000 A 
BRANCH  31  33
ATOM     33  O   UNL     1      51.826   5.007  17.881  0.00  0.00    +0.000 OA
ATOM     34  C   UNL     1      51.648   6.029  18.853  0.00  0.00    +0.000 C 
ENDBRANCH  31  33
ENDBRANCH  21  24
ENDBRANCH  19  20
ENDBRANCH   4  19
TORSDOF 9
ENDMDL
MODEL 5
REMARK VINA RESULT:    -6.817      1.367      2.014
REMARK INTER + INTRA:         -11.943
REMARK INTER:                 -10.954
REMARK INTRA:                  -0.989
REMARK UNBOUND:                -1.539
REMARK  Name = 
REMARK  10 active torsions:
REMARK  status: ('A' for Active; 'I' for Inactive)
REMARK    1  A    between atoms: C_2  and  C_3
REMARK    2  A    between atoms: C_7  and  C_8
REMARK    3  A    between atoms: C_8  and  N_9
REMARK    4  A    between atoms: N_9  and  C_10
REMARK    5  A    between atoms: C_10  and  C_11
REMARK    6  A    between atoms: C_14  and  C_15
REMARK    7  A    between atoms: C_15  and  N_16
REMARK    8  A    between atoms: C_17  and  C_19
REMARK    9  A    between atoms: C_26  and  O_27
REMARK   10  A    between atoms: O_27  and  C_28
REMARK                            x       y       z     vdW  Elec       q    Type
REMARK                         _______ _______ _______ _____ _____    ______ ____
ROOT
ATOM      1  C   UNL     1      45.096   6.193  12.702  0.00  0.00    +0.000 A 
ATOM      2  C   UNL     1      45.964   5.171  13.114  0.00  0.00    +0.000 A 
ATOM      3  C   UNL     1      47.271   5.459  13.517  0.00  0.00    +0.000 A 
ATOM      4  C   UNL     1      47.736   6.779  13.526  0.00  0.00    +0.000 A 
ATOM      5  C   UNL     1      46.879   7.797  13.084  0.00  0.00    +0.000 A 
ATOM      6  C   UNL     1      45.574   7.509  12.674  0.00  0.00    +0.000 A 
ENDROOT
BRANCH   1   7
ATOM      7  C   UNL     1      43.662   5.880  12.341  0.00  0.00    +0.000 C 
BRANCH   7   8
ATOM      8  N   UNL     1      43.453   5.730  10.899  0.00  0.00    +0.000 NA
ATOM      9  H   UNL     1      42.973   4.849  10.723  0.00  0.00    +0.000 HD
BRANCH   8  10
ATOM     10  C   UNL     1      44.719   5.718  10.161  0.00  0.00    +0.000 C 
BRANCH  10  15
ATOM     11  C   UNL     1      45.872   3.044   7.703  0.00  0.00    +0.000 A 
ATOM     12  C   UNL     1      45.386   1.883   8.297  0.00  0.00    +0.000 A 
ATOM     13  C   UNL     1      44.676   1.957   9.494  0.00  0.00    +0.000 A 
ATOM     14  C   UNL     1      44.458   3.196  10.099  0.00  0.00    +0.000 A 
ATOM     15  C   UNL     1      44.960   4.372   9.521  0.00  0.00    +0.000 A 
ATOM     16  C   UNL     1      45.665   4.284   8.313  0.00  0.00    +0.000 A 
BRANCH  11  18
ATOM     17  C   UNL     1      47.166   2.907   5.418  0.00  0.00    +0.000 C 
ATOM     18  C   UNL     1      46.572   2.983   6.457  0.00  0.00    +0.000 C 
ENDBRANCH  11  18
ENDBRANCH  10  15
ENDBRANCH   8  10
ENDBRANCH   7   8
ENDBRANCH   1   7
BRANCH   4  19
ATOM     19  C   UNL     1      49.137   7.108  13.979  0.00  0.00    +0.000 C 
BRANCH  19  20
ATOM     20  N   UNL     1      49.255   7.011  15.411  0.00  0.00    +0.000 N 
ATOM     21  C   UNL     1      50.464   7.096  16.053  0.00  0.00    +0.000 C 
ATOM     22  O   UNL     1      51.513   7.321  15.455  0.00  0.00    +0.000 OA
ATOM     23  H   UNL     1      48.465   6.629  15.910  0.00  0.00    +0.000 HD
BRANCH  21  24
ATOM     24  C   UNL     1      50.420   6.969  17.515  0.00  0.00    +0.000 A 
ATOM     25  C   UNL     1      51.061   7.909  18.311  0.00  0.00    +0.000 A 
ATOM     26  S   UNL     1      50.839   7.643  19.980  0.00  0.00    +0.000 S 
ATOM     27  C   UNL     1      49.930   6.238  19.688  0.00  0.00    +0.000 A 
ATOM     28  N   UNL     1      49.448   5.521  20.718  0.00  0.00    +0.000 NA
ATOM     29  C   UNL     1      48.770   4.442  20.323  0.00  0.00    +0.000 A 
ATOM     30  N   UNL     1      48.549   4.036  19.067  0.00  0.00    +0.000 NA
ATOM     31  C   UNL     1      49.053   4.785  18.070  0.00  0.00    +0.000 A 
ATOM     32  C   UNL     1      49.775   5.958  18.338  0.00  0.00    +0.000 A 
BRANCH  31  33
ATOM     33  O   UNL     1      48.856   4.392  16.762  0.00  0.00    +0.000 OA
ATOM     34  C   UNL     1      47.846   3.406  16.590  0.00  0.00    +0.000 C 
ENDBRANCH  31  33
ENDBRANCH  21  24
ENDBRANCH  19  20
ENDBRANCH   4  19
TORSDOF 9
ENDMDL
MODEL 6
REMARK VINA RESULT:    -6.763      2.176      3.278
REMARK INTER + INTRA:         -11.861
REMARK INTER:                 -10.767
REMARK INTRA:                  -1.094
REMARK UNBOUND:                -1.539
REMARK  Name = 
REMARK  10 active torsions:
REMARK  status: ('A' for Active; 'I' for Inactive)
REMARK    1  A    between atoms: C_2  and  C_3
REMARK    2  A    between atoms: C_7  and  C_8
REMARK    3  A    between atoms: C_8  and  N_9
REMARK    4  A    between atoms: N_9  and  C_10
REMARK    5  A    between atoms: C_10  and  C_11
REMARK    6  A    between atoms: C_14  and  C_15
REMARK    7  A    between atoms: C_15  and  N_16
REMARK    8  A    between atoms: C_17  and  C_19
REMARK    9  A    between atoms: C_26  and  O_27
REMARK   10  A    between atoms: O_27  and  C_28
REMARK                            x       y       z     vdW  Elec       q    Type
REMARK                         _______ _______ _______ _____ _____    ______ ____
ROOT
ATOM      1  C   UNL     1      47.254   7.410  13.078  0.00  0.00    +0.000 A 
ATOM      2  C   UNL     1      47.251   8.683  13.665  0.00  0.00    +0.000 A 
ATOM      3  C   UNL     1      47.945   8.925  14.855  0.00  0.00    +0.000 A 
ATOM      4  C   UNL     1      48.666   7.900  15.478  0.00  0.00    +0.000 A 
ATOM      5  C   UNL     1      48.642   6.619  14.907  0.00  0.00    +0.000 A 
ATOM      6  C   UNL     1      47.943   6.374  13.721  0.00  0.00    +0.000 A 
ENDROOT
BRANCH   1   7
ATOM      7  C   UNL     1      46.564   7.177  11.754  0.00  0.00    +0.000 C 
BRANCH   7   8
ATOM      8  N   UNL     1      45.973   5.842  11.641  0.00  0.00    +0.000 NA
ATOM      9  H   UNL     1      46.709   5.169  11.430  0.00  0.00    +0.000 HD
BRANCH   8  10
ATOM     10  C   UNL     1      44.971   5.775  10.574  0.00  0.00    +0.000 C 
BRANCH  10  15
ATOM     11  C   UNL     1      45.774   3.168   7.914  0.00  0.00    +0.000 A 
ATOM     12  C   UNL     1      45.172   2.028   8.440  0.00  0.00    +0.000 A 
ATOM     13  C   UNL     1      44.496   2.097   9.657  0.00  0.00    +0.000 A 
ATOM     14  C   UNL     1      44.429   3.307  10.349  0.00  0.00    +0.000 A 
ATOM     15  C   UNL     1      45.049   4.458   9.839  0.00  0.00    +0.000 A 
ATOM     16  C   UNL     1      45.718   4.377   8.610  0.00  0.00    +0.000 A 
BRANCH  11  18
ATOM     17  C   UNL     1      47.022   3.065   5.601  0.00  0.00    +0.000 C 
ATOM     18  C   UNL     1      46.441   3.116   6.649  0.00  0.00    +0.000 C 
ENDBRANCH  11  18
ENDBRANCH  10  15
ENDBRANCH   8  10
ENDBRANCH   7   8
ENDBRANCH   1   7
BRANCH   4  19
ATOM     19  C   UNL     1      49.437   8.152  16.749  0.00  0.00    +0.000 C 
BRANCH  19  20
ATOM     20  N   UNL     1      50.338   7.066  17.034  0.00  0.00    +0.000 N 
ATOM     21  C   UNL     1      50.119   6.184  18.062  0.00  0.00    +0.000 C 
ATOM     22  O   UNL     1      49.113   6.228  18.764  0.00  0.00    +0.000 OA
ATOM     23  H   UNL     1      51.259   7.116  16.624  0.00  0.00    +0.000 HD
BRANCH  21  24
ATOM     24  C   UNL     1      51.134   5.137  18.231  0.00  0.00    +0.000 A 
ATOM     25  C   UNL     1      52.316   5.421  18.900  0.00  0.00    +0.000 A 
ATOM     26  S   UNL     1      53.340   4.067  19.065  0.00  0.00    +0.000 S 
ATOM     27  C   UNL     1      52.260   3.080  18.201  0.00  0.00    +0.000 A 
ATOM     28  N   UNL     1      52.558   1.788  17.978  0.00  0.00    +0.000 NA
ATOM     29  C   UNL     1      51.617   1.156  17.276  0.00  0.00    +0.000 A 
ATOM     30  N   UNL     1      50.476   1.668  16.800  0.00  0.00    +0.000 NA
ATOM     31  C   UNL     1      50.222   2.966  17.047  0.00  0.00    +0.000 A 
ATOM     32  C   UNL     1      51.117   3.751  17.789  0.00  0.00    +0.000 A 
BRANCH  31  33
ATOM     33  O   UNL     1      49.062   3.532  16.562  0.00  0.00    +0.000 OA
ATOM     34  C   UNL     1      47.884   3.148  17.258  0.00  0.00    +0.000 C 
ENDBRANCH  31  33
ENDBRANCH  21  24
ENDBRANCH  19  20
ENDBRANCH   4  19
TORSDOF 9
ENDMDL
MODEL 7
REMARK VINA RESULT:    -6.342      3.230      8.234
REMARK INTER + INTRA:         -11.219
REMARK INTER:                  -8.882
REMARK INTRA:                  -2.336
REMARK UNBOUND:                -1.539
REMARK  Name = 
REMARK  10 active torsions:
REMARK  status: ('A' for Active; 'I' for Inactive)
REMARK    1  A    between atoms: C_2  and  C_3
REMARK    2  A    between atoms: C_7  and  C_8
REMARK    3  A    between atoms: C_8  and  N_9
REMARK    4  A    between atoms: N_9  and  C_10
REMARK    5  A    between atoms: C_10  and  C_11
REMARK    6  A    between atoms: C_14  and  C_15
REMARK    7  A    between atoms: C_15  and  N_16
REMARK    8  A    between atoms: C_17  and  C_19
REMARK    9  A    between atoms: C_26  and  O_27
REMARK   10  A    between atoms: O_27  and  C_28
REMARK                            x       y       z     vdW  Elec       q    Type
REMARK                         _______ _______ _______ _____ _____    ______ ____
ROOT
ATOM      1  C   UNL     1      49.373   8.276  18.464  0.00  0.00    +0.000 A 
ATOM      2  C   UNL     1      48.303   9.120  18.134  0.00  0.00    +0.000 A 
ATOM      3  C   UNL     1      47.903   9.284  16.805  0.00  0.00    +0.000 A 
ATOM      4  C   UNL     1      48.560   8.599  15.776  0.00  0.00    +0.000 A 
ATOM      5  C   UNL     1      49.650   7.779  16.103  0.00  0.00    +0.000 A 
ATOM      6  C   UNL     1      50.055   7.620  17.432  0.00  0.00    +0.000 A 
ENDROOT
BRANCH   1   7
ATOM      7  C   UNL     1      49.749   8.047  19.910  0.00  0.00    +0.000 C 
BRANCH   7   8
ATOM      8  N   UNL     1      48.678   7.422  20.689  0.00  0.00    +0.000 NA
ATOM      9  H   UNL     1      48.638   7.857  21.610  0.00  0.00    +0.000 HD
BRANCH   8  10
ATOM     10  C   UNL     1      48.900   5.985  20.871  0.00  0.00    +0.000 C 
BRANCH  10  15
ATOM     11  C   UNL     1      49.135   3.551  17.949  0.00  0.00    +0.000 A 
ATOM     12  C   UNL     1      47.953   3.815  17.262  0.00  0.00    +0.000 A 
ATOM     13  C   UNL     1      47.074   4.787  17.737  0.00  0.00    +0.000 A 
ATOM     14  C   UNL     1      47.378   5.491  18.903  0.00  0.00    +0.000 A 
ATOM     15  C   UNL     1      48.556   5.220  19.615  0.00  0.00    +0.000 A 
ATOM     16  C   UNL     1      49.436   4.247  19.123  0.00  0.00    +0.000 A 
BRANCH  11  18
ATOM     17  C   UNL     1      50.837   1.755  17.059  0.00  0.00    +0.000 C 
ATOM     18  C   UNL     1      50.060   2.580  17.452  0.00  0.00    +0.000 C 
ENDBRANCH  11  18
ENDBRANCH  10  15
ENDBRANCH   8  10
ENDBRANCH   7   8
ENDBRANCH   1   7
BRANCH   4  19
ATOM     19  C   UNL     1      48.124   8.749  14.339  0.00  0.00    +0.000 C 
BRANCH  19  20
ATOM     20  N   UNL     1      47.228   7.690  13.956  0.00  0.00    +0.000 N 
ATOM     21  C   UNL     1      47.650   6.595  13.245  0.00  0.00    +0.000 C 
ATOM     22  O   UNL     1      48.827   6.419  12.946  0.00  0.00    +0.000 OA
ATOM     23  H   UNL     1      46.239   7.890  14.000  0.00  0.00    +0.000 HD
BRANCH  21  24
ATOM     24  C   UNL     1      46.613   5.608  12.921  0.00  0.00    +0.000 A 
ATOM     25  C   UNL     1      46.847   4.259  13.152  0.00  0.00    +0.000 A 
ATOM     26  S   UNL     1      45.507   3.270  12.787  0.00  0.00    +0.000 S 
ATOM     27  C   UNL     1      44.599   4.606  12.260  0.00  0.00    +0.000 A 
ATOM     28  N   UNL     1      43.348   4.431  11.800  0.00  0.00    +0.000 NA
ATOM     29  C   UNL     1      42.777   5.573  11.413  0.00  0.00    +0.000 A 
ATOM     30  N   UNL     1      43.314   6.799  11.436  0.00  0.00    +0.000 NA
ATOM     31  C   UNL     1      44.569   6.923  11.903  0.00  0.00    +0.000 A 
ATOM     32  C   UNL     1      45.286   5.807  12.361  0.00  0.00    +0.000 A 
BRANCH  31  33
ATOM     33  O   UNL     1      45.160   8.169  11.931  0.00  0.00    +0.000 OA
ATOM     34  C   UNL     1      44.431   9.181  11.249  0.00  0.00    +0.000 C 
ENDBRANCH  31  33
ENDBRANCH  21  24
ENDBRANCH  19  20
ENDBRANCH   4  19
TORSDOF 9
ENDMDL
MODEL 8
REMARK VINA RESULT:    -6.315      2.181      3.368
REMARK INTER + INTRA:         -11.177
REMARK INTER:                 -10.068
REMARK INTRA:                  -1.109
REMARK UNBOUND:                -1.539
REMARK  Name = 
REMARK  10 active torsions:
REMARK  status: ('A' for Active; 'I' for Inactive)
REMARK    1  A    between atoms: C_2  and  C_3
REMARK    2  A    between atoms: C_7  and  C_8
REMARK    3  A    between atoms: C_8  and  N_9
REMARK    4  A    between atoms: N_9  and  C_10
REMARK    5  A    between atoms: C_10  and  C_11
REMARK    6  A    between atoms: C_14  and  C_15
REMARK    7  A    between atoms: C_15  and  N_16
REMARK    8  A    between atoms: C_17  and  C_19
REMARK    9  A    between atoms: C_26  and  O_27
REMARK   10  A    between atoms: O_27  and  C_28
REMARK                            x       y       z     vdW  Elec       q    Type
REMARK                         _______ _______ _______ _____ _____    ______ ____
ROOT
ATOM      1  C   UNL     1      46.124   7.969  12.304  0.00  0.00    +0.000 A 
ATOM      2  C   UNL     1      46.955   6.872  12.029  0.00  0.00    +0.000 A 
ATOM      3  C   UNL     1      48.152   6.688  12.727  0.00  0.00    +0.000 A 
ATOM      4  C   UNL     1      48.541   7.592  13.722  0.00  0.00    +0.000 A 
ATOM      5  C   UNL     1      47.726   8.705  13.974  0.00  0.00    +0.000 A 
ATOM      6  C   UNL     1      46.531   8.894  13.272  0.00  0.00    +0.000 A 
ENDROOT
BRANCH   1   7
ATOM      7  C   UNL     1      44.796   8.117  11.598  0.00  0.00    +0.000 C 
BRANCH   7   8
ATOM      8  N   UNL     1      44.521   7.029  10.657  0.00  0.00    +0.000 NA
ATOM      9  H   UNL     1      43.891   7.368   9.931  0.00  0.00    +0.000 HD
BRANCH   8  10
ATOM     10  C   UNL     1      43.888   5.884  11.316  0.00  0.00    +0.000 C 
BRANCH  10  15
ATOM     11  C   UNL     1      45.295   3.432   8.760  0.00  0.00    +0.000 A 
ATOM     12  C   UNL     1      44.820   2.215   9.241  0.00  0.00    +0.000 A 
ATOM     13  C   UNL     1      44.034   2.180  10.392  0.00  0.00    +0.000 A 
ATOM     14  C   UNL     1      43.731   3.364  11.064  0.00  0.00    +0.000 A 
ATOM     15  C   UNL     1      44.221   4.595  10.602  0.00  0.00    +0.000 A 
ATOM     16  C   UNL     1      45.002   4.618   9.438  0.00  0.00    +0.000 A 
BRANCH  11  18
ATOM     17  C   UNL     1      46.705   3.517   6.542  0.00  0.00    +0.000 C 
ATOM     18  C   UNL     1      46.073   3.484   7.560  0.00  0.00    +0.000 C 
ENDBRANCH  11  18
ENDBRANCH  10  15
ENDBRANCH   8  10
ENDBRANCH   7   8
ENDBRANCH   1   7
BRANCH   4  19
ATOM     19  C   UNL     1      49.819   7.393  14.498  0.00  0.00    +0.000 C 
BRANCH  19  20
ATOM     20  N   UNL     1      49.550   7.191  15.898  0.00  0.00    +0.000 N 
ATOM     21  C   UNL     1      48.924   6.065  16.368  0.00  0.00    +0.000 C 
ATOM     22  O   UNL     1      48.609   5.132  15.633  0.00  0.00    +0.000 OA
ATOM     23  H   UNL     1      49.604   8.003  16.496  0.00  0.00    +0.000 HD
BRANCH  21  24
ATOM     24  C   UNL     1      48.712   6.011  17.819  0.00  0.00    +0.000 A 
ATOM     25  C   UNL     1      48.909   4.820  18.503  0.00  0.00    +0.000 A 
ATOM     26  S   UNL     1      48.691   4.965  20.188  0.00  0.00    +0.000 S 
ATOM     27  C   UNL     1      48.275   6.606  20.044  0.00  0.00    +0.000 A 
ATOM     28  N   UNL     1      47.957   7.319  21.139  0.00  0.00    +0.000 NA
ATOM     29  C   UNL     1      47.641   8.584  20.857  0.00  0.00    +0.000 A 
ATOM     30  N   UNL     1      47.611   9.164  19.651  0.00  0.00    +0.000 NA
ATOM     31  C   UNL     1      47.935   8.410  18.585  0.00  0.00    +0.000 A 
ATOM     32  C   UNL     1      48.304   7.064  18.735  0.00  0.00    +0.000 A 
BRANCH  31  33
ATOM     33  O   UNL     1      47.903   8.970  17.325  0.00  0.00    +0.000 OA
ATOM     34  C   UNL     1      48.325  10.327  17.274  0.00  0.00    +0.000 C 
ENDBRANCH  31  33
ENDBRANCH  21  24
ENDBRANCH  19  20
ENDBRANCH   4  19
TORSDOF 9
ENDMDL
MODEL 9
REMARK VINA RESULT:    -6.182      3.388      7.914
REMARK INTER + INTRA:         -10.974
REMARK INTER:                  -8.701
REMARK INTRA:                  -2.273
REMARK UNBOUND:                -1.539
REMARK  Name = 
REMARK  10 active torsions:
REMARK  status: ('A' for Active; 'I' for Inactive)
REMARK    1  A    between atoms: C_2  and  C_3
REMARK    2  A    between atoms: C_7  and  C_8
REMARK    3  A    between atoms: C_8  and  N_9
REMARK    4  A    between atoms: N_9  and  C_10
REMARK    5  A    between atoms: C_10  and  C_11
REMARK    6  A    between atoms: C_14  and  C_15
REMARK    7  A    between atoms: C_15  and  N_16
REMARK    8  A    between atoms: C_17  and  C_19
REMARK    9  A    between atoms: C_26  and  O_27
REMARK   10  A    between atoms: O_27  and  C_28
REMARK                            x       y       z     vdW  Elec       q    Type
REMARK                         _______ _______ _______ _____ _____    ______ ____
ROOT
ATOM      1  C   UNL     1      49.189   8.194  18.723  0.00  0.00    +0.000 A 
ATOM      2  C   UNL     1      48.194   8.868  18.001  0.00  0.00    +0.000 A 
ATOM      3  C   UNL     1      48.248   8.944  16.606  0.00  0.00    +0.000 A 
ATOM      4  C   UNL     1      49.296   8.338  15.902  0.00  0.00    +0.000 A 
ATOM      5  C   UNL     1      50.307   7.692  16.627  0.00  0.00    +0.000 A 
ATOM      6  C   UNL     1      50.257   7.621  18.023  0.00  0.00    +0.000 A 
ENDROOT
BRANCH   1   7
ATOM      7  C   UNL     1      49.081   8.053  20.224  0.00  0.00    +0.000 C 
BRANCH   7   8
ATOM      8  N   UNL     1      47.920   7.263  20.644  0.00  0.00    +0.000 NA
ATOM      9  H   UNL     1      47.571   7.630  21.529  0.00  0.00    +0.000 HD
BRANCH   8  10
ATOM     10  C   UNL     1      48.259   5.851  20.835  0.00  0.00    +0.000 C 
BRANCH  10  15
ATOM     11  C   UNL     1      49.243   3.550  17.961  0.00  0.00    +0.000 A 
ATOM     12  C   UNL     1      48.185   3.731  17.075  0.00  0.00    +0.000 A 
ATOM     13  C   UNL     1      47.148   4.605  17.399  0.00  0.00    +0.000 A 
ATOM     14  C   UNL     1      47.169   5.292  18.613  0.00  0.00    +0.000 A 
ATOM     15  C   UNL     1      48.220   5.102  19.524  0.00  0.00    +0.000 A 
ATOM     16  C   UNL     1      49.261   4.229  19.182  0.00  0.00    +0.000 A 
BRANCH  11  18
ATOM     17  C   UNL     1      51.234   1.940  17.361  0.00  0.00    +0.000 C 
ATOM     18  C   UNL     1      50.330   2.683  17.624  0.00  0.00    +0.000 C 
ENDBRANCH  11  18
ENDBRANCH  10  15
ENDBRANCH   8  10
ENDBRANCH   7   8
ENDBRANCH   1   7
BRANCH   4  19
ATOM     19  C   UNL     1      49.355   8.393  14.395  0.00  0.00    +0.000 C 
BRANCH  19  20
ATOM     20  N   UNL     1      48.048   8.222  13.818  0.00  0.00    +0.000 N 
ATOM     21  C   UNL     1      47.704   7.101  13.106  0.00  0.00    +0.000 C 
ATOM     22  O   UNL     1      48.466   6.148  12.969  0.00  0.00    +0.000 OA
ATOM     23  H   UNL     1      47.474   9.048  13.731  0.00  0.00    +0.000 HD
BRANCH  21  24
ATOM     24  C   UNL     1      46.337   7.080  12.572  0.00  0.00    +0.000 A 
ATOM     25  C   UNL     1      45.874   8.146  11.814  0.00  0.00    +0.000 A 
ATOM     26  S   UNL     1      44.294   7.914  11.216  0.00  0.00    +0.000 S 
ATOM     27  C   UNL     1      44.164   6.410  11.997  0.00  0.00    +0.000 A 
ATOM     28  N   UNL     1      43.032   5.693  11.893  0.00  0.00    +0.000 NA
ATOM     29  C   UNL     1      43.084   4.546  12.574  0.00  0.00    +0.000 A 
ATOM     30  N   UNL     1      44.102   4.084  13.309  0.00  0.00    +0.000 NA
ATOM     31  C   UNL     1      45.214   4.838  13.385  0.00  0.00    +0.000 A 
ATOM     32  C   UNL     1      45.306   6.063  12.705  0.00  0.00    +0.000 A 
BRANCH  31  33
ATOM     33  O   UNL     1      46.279   4.400  14.143  0.00  0.00    +0.000 OA
ATOM     34  C   UNL     1      46.906   3.223  13.651  0.00  0.00    +0.000 C 
ENDBRANCH  31  33
ENDBRANCH  21  24
ENDBRANCH  19  20
ENDBRANCH   4  19
TORSDOF 9
ENDMDL
