MODEL 1
REMARK VINA RESULT:    -8.877      0.000      0.000
REMARK INTER + INTRA:         -12.397
REMARK INTER:                 -11.471
REMARK INTRA:                  -0.925
REMARK UNBOUND:                -0.925
REMARK  Name = 
REMARK  5 active torsions:
REMARK  status: ('A' for Active; 'I' for Inactive)
REMARK    1  A    between atoms: C_2  and  C_4
REMARK    2  A    between atoms: C_7  and  N_8
REMARK    3  A    between atoms: N_8  and  C_9
REMARK    4  A    between atoms: C_9  and  C_10
REMARK    5  A    between atoms: C_15  and  N_16
REMARK                            x       y       z     vdW  Elec       q    Type
REMARK                         _______ _______ _______ _____ _____    ______ ____
ROOT
ATOM      1  C   UNL     1      43.849   5.175  11.347  0.00  0.00    +0.000 C 
ATOM      2  C   UNL     1      43.663   4.092  12.401  0.00  0.00    +0.000 C 
ATOM      3  C   UNL     1      42.631   5.156  12.262  0.00  0.00    +0.000 C 
ENDROOT
BRANCH   1   4
ATOM      4  C   UNL     1      44.814   6.331  11.603  0.00  0.00    +0.000 A 
ATOM      5  C   UNL     1      44.420   7.668  11.425  0.00  0.00    +0.000 A 
ATOM      6  C   UNL     1      45.258   8.719  11.795  0.00  0.00    +0.000 A 
ATOM      7  C   UNL     1      46.499   8.442  12.360  0.00  0.00    +0.000 A 
ATOM      8  F   UNL     1      47.270   9.481  12.721  0.00  0.00    +0.000 F 
ATOM      9  C   UNL     1      46.960   7.128  12.530  0.00  0.00    +0.000 A 
ATOM     10  C   UNL     1      46.106   6.099  12.106  0.00  0.00    +0.000 A 
BRANCH   9  11
ATOM     11  N   UNL     1      48.153   6.803  13.142  0.00  0.00    +0.000 N 
ATOM     12  C   UNL     1      48.218   6.344  14.531  0.00  0.00    +0.000 C 
ATOM     13  C   UNL     1      49.079   7.298  15.366  0.00  0.00    +0.000 C 
ATOM     14  O   UNL     1      50.379   7.481  14.775  0.00  0.00    +0.000 OA
ATOM     15  C   UNL     1      50.250   8.040  13.455  0.00  0.00    +0.000 C 
ATOM     16  C   UNL     1      49.444   7.122  12.522  0.00  0.00    +0.000 C 
ENDBRANCH   9  11
ENDBRANCH   1   4
BRANCH   1  17
ATOM     17  N   UNL     1      43.690   4.827   9.929  0.00  0.00    +0.000 N 
ATOM     18  H   UNL     1      42.767   4.916   9.515  0.00  0.00    +0.000 HD
BRANCH  17  22
ATOM     19  C   UNL     1      46.364   2.322   7.802  0.00  0.00    +0.000 A 
ATOM     20  C   UNL     1      45.461   1.759   8.705  0.00  0.00    +0.000 A 
ATOM     21  C   UNL     1      44.583   2.581   9.418  0.00  0.00    +0.000 A 
ATOM     22  C   UNL     1      44.553   3.966   9.221  0.00  0.00    +0.000 A 
ATOM     23  C   UNL     1      45.506   4.521   8.355  0.00  0.00    +0.000 A 
ATOM     24  C   UNL     1      46.405   3.711   7.650  0.00  0.00    +0.000 A 
BRANCH  19  26
ATOM     25  N   UNL     1      48.412   2.087   6.517  0.00  0.00    +0.000 N 
ATOM     26  C   UNL     1      47.289   1.481   7.008  0.00  0.00    +0.000 C 
ATOM     27  O   UNL     1      47.081   0.287   6.824  0.00  0.00    +0.000 OA
ATOM     28  H   UNL     1      49.093   1.473   6.087  0.00  0.00    +0.000 HD
ATOM     29  H   UNL     1      48.749   2.975   6.865  0.00  0.00    +0.000 HD
ENDBRANCH  19  26
ENDBRANCH  17  22
ENDBRANCH   1  17
TORSDOF 5
ENDMDL
MODEL 2
REMARK VINA RESULT:    -8.851      1.472      2.144
REMARK INTER + INTRA:         -12.363
REMARK INTER:                 -11.306
REMARK INTRA:                  -1.057
REMARK UNBOUND:                -0.925
REMARK  Name = 
REMARK  5 active torsions:
REMARK  status: ('A' for Active; 'I' for Inactive)
REMARK    1  A    between atoms: C_2  and  C_4
REMARK    2  A    between atoms: C_7  and  N_8
REMARK    3  A    between atoms: N_8  and  C_9
REMARK    4  A    between atoms: C_9  and  C_10
REMARK    5  A    between atoms: C_15  and  N_16
REMARK                            x       y       z     vdW  Elec       q    Type
REMARK                         _______ _______ _______ _____ _____    ______ ____
ROOT
ATOM      1  C   UNL     1      43.916   5.005  11.377  0.00  0.00    +0.000 C 
ATOM      2  C   UNL     1      42.965   3.943  11.912  0.00  0.00    +0.000 C 
ATOM      3  C   UNL     1      42.566   5.376  11.977  0.00  0.00    +0.000 C 
ENDROOT
BRANCH   1   4
ATOM      4  C   UNL     1      45.120   5.440  12.210  0.00  0.00    +0.000 A 
ATOM      5  C   UNL     1      45.597   4.657  13.273  0.00  0.00    +0.000 A 
ATOM      6  C   UNL     1      46.778   4.989  13.936  0.00  0.00    +0.000 A 
ATOM      7  C   UNL     1      47.502   6.107  13.533  0.00  0.00    +0.000 A 
ATOM      8  F   UNL     1      48.644   6.383  14.184  0.00  0.00    +0.000 F 
ATOM      9  C   UNL     1      47.057   6.945  12.500  0.00  0.00    +0.000 A 
ATOM     10  C   UNL     1      45.842   6.602  11.887  0.00  0.00    +0.000 A 
BRANCH   9  11
ATOM     11  N   UNL     1      47.770   8.026  12.024  0.00  0.00    +0.000 N 
ATOM     12  C   UNL     1      49.097   7.880  11.422  0.00  0.00    +0.000 C 
ATOM     13  C   UNL     1      50.131   8.685  12.216  0.00  0.00    +0.000 C 
ATOM     14  O   UNL     1      49.728  10.060  12.358  0.00  0.00    +0.000 OA
ATOM     15  C   UNL     1      48.473  10.139  13.057  0.00  0.00    +0.000 C 
ATOM     16  C   UNL     1      47.351   9.404  12.303  0.00  0.00    +0.000 C 
ENDBRANCH   9  11
ENDBRANCH   1   4
BRANCH   1  17
ATOM     17  N   UNL     1      44.115   5.120   9.926  0.00  0.00    +0.000 N 
ATOM     18  H   UNL     1      43.410   5.611   9.384  0.00  0.00    +0.000 HD
BRANCH  17  22
ATOM     19  C   UNL     1      46.613   2.578   7.636  0.00  0.00    +0.000 A 
ATOM     20  C   UNL     1      45.693   2.022   8.525  0.00  0.00    +0.000 A 
ATOM     21  C   UNL     1      44.872   2.855   9.292  0.00  0.00    +0.000 A 
ATOM     22  C   UNL     1      44.919   4.249   9.163  0.00  0.00    +0.000 A 
ATOM     23  C   UNL     1      45.890   4.791   8.310  0.00  0.00    +0.000 A 
ATOM     24  C   UNL     1      46.732   3.968   7.551  0.00  0.00    +0.000 A 
BRANCH  19  26
ATOM     25  N   UNL     1      48.595   2.311   6.256  0.00  0.00    +0.000 N 
ATOM     26  C   UNL     1      47.479   1.728   6.787  0.00  0.00    +0.000 C 
ATOM     27  O   UNL     1      47.230   0.543   6.592  0.00  0.00    +0.000 OA
ATOM     28  H   UNL     1      49.239   1.688   5.786  0.00  0.00    +0.000 HD
ATOM     29  H   UNL     1      48.972   3.184   6.604  0.00  0.00    +0.000 HD
ENDBRANCH  19  26
ENDBRANCH  17  22
ENDBRANCH   1  17
TORSDOF 5
ENDMDL
MODEL 3
REMARK VINA RESULT:    -8.298      2.878      4.354
REMARK INTER + INTRA:         -11.648
REMARK INTER:                 -10.873
REMARK INTRA:                  -0.775
REMARK UNBOUND:                -0.925
REMARK  Name = 
REMARK  5 active torsions:
REMARK  status: ('A' for Active; 'I' for Inactive)
REMARK    1  A    between atoms: C_2  and  C_4
REMARK    2  A    between atoms: C_7  and  N_8
REMARK    3  A    between atoms: N_8  and  C_9
REMARK    4  A    between atoms: C_9  and  C_10
REMARK    5  A    between atoms: C_15  and  N_16
REMARK                            x       y       z     vdW  Elec       q    Type
REMARK                         _______ _______ _______ _____ _____    ______ ____
ROOT
ATOM      1  C   UNL     1      44.171   5.411  11.460  0.00  0.00    +0.000 C 
ATOM      2  C   UNL     1      44.433   4.267  12.429  0.00  0.00    +0.000 C 
ATOM      3  C   UNL     1      43.108   4.944  12.445  0.00  0.00    +0.000 C 
ENDROOT
BRANCH   1   4
ATOM      4  C   UNL     1      44.734   6.800  11.749  0.00  0.00    +0.000 A 
ATOM      5  C   UNL     1      45.994   6.970  12.348  0.00  0.00    +0.000 A 
ATOM      6  C   UNL     1      46.561   8.237  12.479  0.00  0.00    +0.000 A 
ATOM      7  C   UNL     1      45.877   9.350  12.001  0.00  0.00    +0.000 A 
ATOM      8  F   UNL     1      46.466  10.551  12.129  0.00  0.00    +0.000 F 
ATOM      9  C   UNL     1      44.603   9.245  11.425  0.00  0.00    +0.000 A 
ATOM     10  C   UNL     1      44.047   7.959  11.349  0.00  0.00    +0.000 A 
BRANCH   9  11
ATOM     11  N   UNL     1      43.914  10.310  10.879  0.00  0.00    +0.000 N 
ATOM     12  C   UNL     1      42.622  10.754  11.405  0.00  0.00    +0.000 C 
ATOM     13  C   UNL     1      41.545  10.656  10.320  0.00  0.00    +0.000 C 
ATOM     14  O   UNL     1      41.937  11.361   9.128  0.00  0.00    +0.000 OA
ATOM     15  C   UNL     1      43.153  10.802   8.598  0.00  0.00    +0.000 C 
ATOM     16  C   UNL     1      44.315  10.907   9.600  0.00  0.00    +0.000 C 
ENDBRANCH   9  11
ENDBRANCH   1   4
BRANCH   1  17
ATOM     17  N   UNL     1      44.008   5.114  10.030  0.00  0.00    +0.000 N 
ATOM     18  H   UNL     1      43.089   5.244   9.616  0.00  0.00    +0.000 HD
BRANCH  17  22
ATOM     19  C   UNL     1      46.450   2.441   7.830  0.00  0.00    +0.000 A 
ATOM     20  C   UNL     1      46.575   3.816   7.627  0.00  0.00    +0.000 A 
ATOM     21  C   UNL     1      45.764   4.704   8.342  0.00  0.00    +0.000 A 
ATOM     22  C   UNL     1      44.847   4.251   9.298  0.00  0.00    +0.000 A 
ATOM     23  C   UNL     1      44.693   2.865   9.446  0.00  0.00    +0.000 A 
ATOM     24  C   UNL     1      45.484   1.964   8.721  0.00  0.00    +0.000 A 
BRANCH  19  26
ATOM     25  N   UNL     1      48.433   1.966   6.510  0.00  0.00    +0.000 N 
ATOM     26  C   UNL     1      47.309   1.472   7.112  0.00  0.00    +0.000 C 
ATOM     27  O   UNL     1      47.048   0.275   7.083  0.00  0.00    +0.000 OA
ATOM     28  H   UNL     1      49.072   1.276   6.134  0.00  0.00    +0.000 HD
ATOM     29  H   UNL     1      48.818   2.874   6.735  0.00  0.00    +0.000 HD
ENDBRANCH  19  26
ENDBRANCH  17  22
ENDBRANCH   1  17
TORSDOF 5
ENDMDL
MODEL 4
REMARK VINA RESULT:    -7.963      1.884      2.564
REMARK INTER + INTRA:         -11.216
REMARK INTER:                 -10.710
REMARK INTRA:                  -0.506
REMARK UNBOUND:                -0.925
REMARK  Name = 
REMARK  5 active torsions:
REMARK  status: ('A' for Active; 'I' for Inactive)
REMARK    1  A    between atoms: C_2  and  C_4
REMARK    2  A    between atoms: C_7  and  N_8
REMARK    3  A    between atoms: N_8  and  C_9
REMARK    4  A    between atoms: C_9  and  C_10
REMARK    5  A    between atoms: C_15  and  N_16
REMARK                            x       y       z     vdW  Elec       q    Type
REMARK                         _______ _______ _______ _____ _____    ______ ____
ROOT
ATOM      1  C   UNL     1      44.386   5.133  11.857  0.00  0.00    +0.000 C 
ATOM      2  C   UNL     1      43.599   4.176  12.742  0.00  0.00    +0.000 C 
ATOM      3  C   UNL     1      43.216   5.614  12.706  0.00  0.00    +0.000 C 
ENDROOT
BRANCH   1   4
ATOM      4  C   UNL     1      45.750   5.645  12.312  0.00  0.00    +0.000 A 
ATOM      5  C   UNL     1      46.389   6.711  11.657  0.00  0.00    +0.000 A 
ATOM      6  C   UNL     1      47.565   7.264  12.163  0.00  0.00    +0.000 A 
ATOM      7  C   UNL     1      48.110   6.761  13.340  0.00  0.00    +0.000 A 
ATOM      8  F   UNL     1      49.233   7.332  13.806  0.00  0.00    +0.000 F 
ATOM      9  C   UNL     1      47.535   5.676  14.019  0.00  0.00    +0.000 A 
ATOM     10  C   UNL     1      46.377   5.120  13.455  0.00  0.00    +0.000 A 
BRANCH   9  11
ATOM     11  N   UNL     1      48.002   5.185  15.221  0.00  0.00    +0.000 N 
ATOM     12  C   UNL     1      47.546   3.907  15.770  0.00  0.00    +0.000 C 
ATOM     13  C   UNL     1      46.886   4.121  17.137  0.00  0.00    +0.000 C 
ATOM     14  O   UNL     1      47.757   4.837  18.032  0.00  0.00    +0.000 OA
ATOM     15  C   UNL     1      48.076   6.130  17.486  0.00  0.00    +0.000 C 
ATOM     16  C   UNL     1      48.797   6.017  16.132  0.00  0.00    +0.000 C 
ENDBRANCH   9  11
ENDBRANCH   1   4
BRANCH   1  17
ATOM     17  N   UNL     1      44.230   5.049  10.398  0.00  0.00    +0.000 N 
ATOM     18  H   UNL     1      43.371   5.404   9.988  0.00  0.00    +0.000 HD
BRANCH  17  22
ATOM     19  C   UNL     1      46.224   2.228   7.946  0.00  0.00    +0.000 A 
ATOM     20  C   UNL     1      46.370   3.592   7.688  0.00  0.00    +0.000 A 
ATOM     21  C   UNL     1      45.707   4.528   8.487  0.00  0.00    +0.000 A 
ATOM     22  C   UNL     1      44.922   4.136   9.578  0.00  0.00    +0.000 A 
ATOM     23  C   UNL     1      44.739   2.761   9.786  0.00  0.00    +0.000 A 
ATOM     24  C   UNL     1      45.381   1.812   8.981  0.00  0.00    +0.000 A 
BRANCH  19  26
ATOM     25  N   UNL     1      46.828  -0.091   7.550  0.00  0.00    +0.000 N 
ATOM     26  C   UNL     1      46.933   1.209   7.140  0.00  0.00    +0.000 C 
ATOM     27  O   UNL     1      47.561   1.506   6.129  0.00  0.00    +0.000 OA
ATOM     28  H   UNL     1      47.211  -0.786   6.920  0.00  0.00    +0.000 HD
ATOM     29  H   UNL     1      46.118  -0.402   8.199  0.00  0.00    +0.000 HD
ENDBRANCH  19  26
ENDBRANCH  17  22
ENDBRANCH   1  17
TORSDOF 5
ENDMDL
MODEL 5
REMARK VINA RESULT:    -6.849      3.935      7.866
REMARK INTER + INTRA:          -9.777
REMARK INTER:                  -9.220
REMARK INTRA:                  -0.557
REMARK UNBOUND:                -0.925
REMARK  Name = 
REMARK  5 active torsions:
REMARK  status: ('A' for Active; 'I' for Inactive)
REMARK    1  A    between atoms: C_2  and  C_4
REMARK    2  A    between atoms: C_7  and  N_8
REMARK    3  A    between atoms: N_8  and  C_9
REMARK    4  A    between atoms: C_9  and  C_10
REMARK    5  A    between atoms: C_15  and  N_16
REMARK                            x       y       z     vdW  Elec       q    Type
REMARK                         _______ _______ _______ _____ _____    ______ ____
ROOT
ATOM      1  C   UNL     1      48.634   6.681  15.593  0.00  0.00    +0.000 C 
ATOM      2  C   UNL     1      49.995   7.355  15.701  0.00  0.00    +0.000 C 
ATOM      3  C   UNL     1      48.783   8.086  16.162  0.00  0.00    +0.000 C 
ENDROOT
BRANCH   1   4
ATOM      4  C   UNL     1      47.920   6.617  14.245  0.00  0.00    +0.000 A 
ATOM      5  C   UNL     1      48.453   7.239  13.103  0.00  0.00    +0.000 A 
ATOM      6  C   UNL     1      47.870   7.058  11.849  0.00  0.00    +0.000 A 
ATOM      7  C   UNL     1      46.752   6.241  11.722  0.00  0.00    +0.000 A 
ATOM      8  F   UNL     1      46.231   6.076  10.494  0.00  0.00    +0.000 F 
ATOM      9  C   UNL     1      46.157   5.621  12.831  0.00  0.00    +0.000 A 
ATOM     10  C   UNL     1      46.746   5.863  14.081  0.00  0.00    +0.000 A 
BRANCH   9  11
ATOM     11  N   UNL     1      45.087   4.753  12.746  0.00  0.00    +0.000 N 
ATOM     12  C   UNL     1      45.241   3.369  12.295  0.00  0.00    +0.000 C 
ATOM     13  C   UNL     1      44.391   3.121  11.044  0.00  0.00    +0.000 C 
ATOM     14  O   UNL     1      43.017   3.490  11.264  0.00  0.00    +0.000 OA
ATOM     15  C   UNL     1      42.925   4.887  11.593  0.00  0.00    +0.000 C 
ATOM     16  C   UNL     1      43.704   5.226  12.875  0.00  0.00    +0.000 C 
ENDBRANCH   9  11
ENDBRANCH   1   4
BRANCH   1  17
ATOM     17  N   UNL     1      48.313   5.568  16.497  0.00  0.00    +0.000 N 
ATOM     18  H   UNL     1      47.599   5.717  17.204  0.00  0.00    +0.000 HD
BRANCH  17  22
ATOM     19  C   UNL     1      50.985   2.420  17.442  0.00  0.00    +0.000 A 
ATOM     20  C   UNL     1      49.726   2.122  16.919  0.00  0.00    +0.000 A 
ATOM     21  C   UNL     1      48.835   3.156  16.614  0.00  0.00    +0.000 A 
ATOM     22  C   UNL     1      49.187   4.500  16.782  0.00  0.00    +0.000 A 
ATOM     23  C   UNL     1      50.433   4.779  17.364  0.00  0.00    +0.000 A 
ATOM     24  C   UNL     1      51.326   3.752  17.693  0.00  0.00    +0.000 A 
BRANCH  19  26
ATOM     25  N   UNL     1      51.465   0.148  18.157  0.00  0.00    +0.000 N 
ATOM     26  C   UNL     1      51.965   1.353  17.750  0.00  0.00    +0.000 C 
ATOM     27  O   UNL     1      53.172   1.527  17.615  0.00  0.00    +0.000 OA
ATOM     28  H   UNL     1      52.138  -0.604  18.242  0.00  0.00    +0.000 HD
ATOM     29  H   UNL     1      50.498  -0.114  18.023  0.00  0.00    +0.000 HD
ENDBRANCH  19  26
ENDBRANCH  17  22
ENDBRANCH   1  17
TORSDOF 5
ENDMDL
MODEL 6
REMARK VINA RESULT:    -6.640      2.061      2.951
REMARK INTER + INTRA:          -9.507
REMARK INTER:                  -8.845
REMARK INTRA:                  -0.662
REMARK UNBOUND:                -0.925
REMARK  Name = 
REMARK  5 active torsions:
REMARK  status: ('A' for Active; 'I' for Inactive)
REMARK    1  A    between atoms: C_2  and  C_4
REMARK    2  A    between atoms: C_7  and  N_8
REMARK    3  A    between atoms: N_8  and  C_9
REMARK    4  A    between atoms: C_9  and  C_10
REMARK    5  A    between atoms: C_15  and  N_16
REMARK                            x       y       z     vdW  Elec       q    Type
REMARK                         _______ _______ _______ _____ _____    ______ ____
ROOT
ATOM      1  C   UNL     1      43.988   4.427  12.192  0.00  0.00    +0.000 C 
ATOM      2  C   UNL     1      43.696   3.284  13.154  0.00  0.00    +0.000 C 
ATOM      3  C   UNL     1      42.865   4.518  13.216  0.00  0.00    +0.000 C 
ENDROOT
BRANCH   1   4
ATOM      4  C   UNL     1      45.163   5.365  12.456  0.00  0.00    +0.000 A 
ATOM      5  C   UNL     1      46.475   4.879  12.588  0.00  0.00    +0.000 A 
ATOM      6  C   UNL     1      47.558   5.752  12.688  0.00  0.00    +0.000 A 
ATOM      7  C   UNL     1      47.339   7.126  12.647  0.00  0.00    +0.000 A 
ATOM      8  F   UNL     1      48.410   7.933  12.727  0.00  0.00    +0.000 F 
ATOM      9  C   UNL     1      46.050   7.669  12.551  0.00  0.00    +0.000 A 
ATOM     10  C   UNL     1      44.983   6.759  12.496  0.00  0.00    +0.000 A 
BRANCH   9  11
ATOM     11  N   UNL     1      45.789   9.020  12.442  0.00  0.00    +0.000 N 
ATOM     12  C   UNL     1      44.717   9.541  11.592  0.00  0.00    +0.000 C 
ATOM     13  C   UNL     1      45.294  10.477  10.525  0.00  0.00    +0.000 C 
ATOM     14  O   UNL     1      46.095  11.516  11.117  0.00  0.00    +0.000 OA
ATOM     15  C   UNL     1      47.195  10.941  11.844  0.00  0.00    +0.000 C 
ATOM     16  C   UNL     1      46.713  10.024  12.982  0.00  0.00    +0.000 C 
ENDBRANCH   9  11
ENDBRANCH   1   4
BRANCH   1  17
ATOM     17  N   UNL     1      43.655   4.267  10.769  0.00  0.00    +0.000 N 
ATOM     18  H   UNL     1      42.674   4.209  10.512  0.00  0.00    +0.000 HD
BRANCH  17  22
ATOM     19  C   UNL     1      46.358   2.761   7.876  0.00  0.00    +0.000 A 
ATOM     20  C   UNL     1      45.685   1.875   8.719  0.00  0.00    +0.000 A 
ATOM     21  C   UNL     1      44.800   2.366   9.683  0.00  0.00    +0.000 A 
ATOM     22  C   UNL     1      44.533   3.735   9.804  0.00  0.00    +0.000 A 
ATOM     23  C   UNL     1      45.261   4.614   8.989  0.00  0.00    +0.000 A 
ATOM     24  C   UNL     1      46.166   4.137   8.033  0.00  0.00    +0.000 A 
BRANCH  19  26
ATOM     25  N   UNL     1      47.146   2.823   5.579  0.00  0.00    +0.000 N 
ATOM     26  C   UNL     1      47.282   2.277   6.824  0.00  0.00    +0.000 C 
ATOM     27  O   UNL     1      48.153   1.448   7.062  0.00  0.00    +0.000 OA
ATOM     28  H   UNL     1      47.863   2.576   4.907  0.00  0.00    +0.000 HD
ATOM     29  H   UNL     1      46.637   3.681   5.412  0.00  0.00    +0.000 HD
ENDBRANCH  19  26
ENDBRANCH  17  22
ENDBRANCH   1  17
TORSDOF 5
ENDMDL
MODEL 7
REMARK VINA RESULT:    -6.545      2.713      7.556
REMARK INTER + INTRA:          -9.383
REMARK INTER:                  -9.292
REMARK INTRA:                  -0.091
REMARK UNBOUND:                -0.925
REMARK  Name = 
REMARK  5 active torsions:
REMARK  status: ('A' for Active; 'I' for Inactive)
REMARK    1  A    between atoms: C_2  and  C_4
REMARK    2  A    between atoms: C_7  and  N_8
REMARK    3  A    between atoms: N_8  and  C_9
REMARK    4  A    between atoms: C_9  and  C_10
REMARK    5  A    between atoms: C_15  and  N_16
REMARK                            x       y       z     vdW  Elec       q    Type
REMARK                         _______ _______ _______ _____ _____    ______ ____
ROOT
ATOM      1  C   UNL     1      46.098   6.833  12.367  0.00  0.00    +0.000 C 
ATOM      2  C   UNL     1      45.814   8.076  11.536  0.00  0.00    +0.000 C 
ATOM      3  C   UNL     1      45.290   7.996  12.927  0.00  0.00    +0.000 C 
ENDROOT
BRANCH   1   4
ATOM      4  C   UNL     1      45.291   5.558  12.131  0.00  0.00    +0.000 A 
ATOM      5  C   UNL     1      44.350   5.103  13.069  0.00  0.00    +0.000 A 
ATOM      6  C   UNL     1      43.518   4.020  12.784  0.00  0.00    +0.000 A 
ATOM      7  C   UNL     1      43.614   3.386  11.549  0.00  0.00    +0.000 A 
ATOM      8  F   UNL     1      42.783   2.359  11.305  0.00  0.00    +0.000 F 
ATOM      9  C   UNL     1      44.558   3.775  10.588  0.00  0.00    +0.000 A 
ATOM     10  C   UNL     1      45.405   4.840  10.928  0.00  0.00    +0.000 A 
BRANCH   9  11
ATOM     11  N   UNL     1      44.648   3.219   9.327  0.00  0.00    +0.000 N 
ATOM     12  C   UNL     1      44.824   1.781   9.120  0.00  0.00    +0.000 C 
ATOM     13  C   UNL     1      46.125   1.510   8.356  0.00  0.00    +0.000 C 
ATOM     14  O   UNL     1      46.179   2.264   7.131  0.00  0.00    +0.000 OA
ATOM     15  C   UNL     1      46.114   3.674   7.412  0.00  0.00    +0.000 C 
ATOM     16  C   UNL     1      44.809   4.055   8.132  0.00  0.00    +0.000 C 
ENDBRANCH   9  11
ENDBRANCH   1   4
BRANCH   1  17
ATOM     17  N   UNL     1      47.462   6.599  12.861  0.00  0.00    +0.000 N 
ATOM     18  H   UNL     1      48.207   6.497  12.177  0.00  0.00    +0.000 HD
BRANCH  17  22
ATOM     19  C   UNL     1      48.388   5.068  16.700  0.00  0.00    +0.000 A 
ATOM     20  C   UNL     1      47.516   4.364  15.869  0.00  0.00    +0.000 A 
ATOM     21  C   UNL     1      47.197   4.869  14.604  0.00  0.00    +0.000 A 
ATOM     22  C   UNL     1      47.766   6.054  14.124  0.00  0.00    +0.000 A 
ATOM     23  C   UNL     1      48.594   6.778  14.995  0.00  0.00    +0.000 A 
ATOM     24  C   UNL     1      48.904   6.294  16.272  0.00  0.00    +0.000 A 
BRANCH  19  26
ATOM     25  N   UNL     1      47.878   3.724  18.659  0.00  0.00    +0.000 N 
ATOM     26  C   UNL     1      48.770   4.550  18.034  0.00  0.00    +0.000 C 
ATOM     27  O   UNL     1      49.851   4.821  18.547  0.00  0.00    +0.000 OA
ATOM     28  H   UNL     1      48.206   3.281  19.509  0.00  0.00    +0.000 HD
ATOM     29  H   UNL     1      47.119   3.271  18.168  0.00  0.00    +0.000 HD
ENDBRANCH  19  26
ENDBRANCH  17  22
ENDBRANCH   1  17
TORSDOF 5
ENDMDL
MODEL 8
REMARK VINA RESULT:    -6.526      4.210      6.359
REMARK INTER + INTRA:          -9.359
REMARK INTER:                  -8.106
REMARK INTRA:                  -1.253
REMARK UNBOUND:                -0.925
REMARK  Name = 
REMARK  5 active torsions:
REMARK  status: ('A' for Active; 'I' for Inactive)
REMARK    1  A    between atoms: C_2  and  C_4
REMARK    2  A    between atoms: C_7  and  N_8
REMARK    3  A    between atoms: N_8  and  C_9
REMARK    4  A    between atoms: C_9  and  C_10
REMARK    5  A    between atoms: C_15  and  N_16
REMARK                            x       y       z     vdW  Elec       q    Type
REMARK                         _______ _______ _______ _____ _____    ______ ____
ROOT
ATOM      1  C   UNL     1      49.290   7.830  13.522  0.00  0.00    +0.000 C 
ATOM      2  C   UNL     1      49.445   9.156  12.791  0.00  0.00    +0.000 C 
ATOM      3  C   UNL     1      50.657   8.348  13.095  0.00  0.00    +0.000 C 
ENDROOT
BRANCH   1   4
ATOM      4  C   UNL     1      49.063   7.815  15.032  0.00  0.00    +0.000 A 
ATOM      5  C   UNL     1      48.627   8.959  15.720  0.00  0.00    +0.000 A 
ATOM      6  C   UNL     1      48.287   8.900  17.071  0.00  0.00    +0.000 A 
ATOM      7  C   UNL     1      48.369   7.686  17.747  0.00  0.00    +0.000 A 
ATOM      8  F   UNL     1      48.015   7.666  19.043  0.00  0.00    +0.000 F 
ATOM      9  C   UNL     1      48.830   6.519  17.122  0.00  0.00    +0.000 A 
ATOM     10  C   UNL     1      49.203   6.629  15.774  0.00  0.00    +0.000 A 
BRANCH   9  11
ATOM     11  N   UNL     1      48.868   5.282  17.732  0.00  0.00    +0.000 N 
ATOM     12  C   UNL     1      50.082   4.762  18.365  0.00  0.00    +0.000 C 
ATOM     13  C   UNL     1      50.510   3.452  17.696  0.00  0.00    +0.000 C 
ATOM     14  O   UNL     1      49.433   2.496  17.680  0.00  0.00    +0.000 OA
ATOM     15  C   UNL     1      48.313   3.023  16.947  0.00  0.00    +0.000 C 
ATOM     16  C   UNL     1      47.773   4.317  17.579  0.00  0.00    +0.000 C 
ENDBRANCH   9  11
ENDBRANCH   1   4
BRANCH   1  17
ATOM     17  N   UNL     1      48.698   6.688  12.813  0.00  0.00    +0.000 N 
ATOM     18  H   UNL     1      49.238   6.255  12.069  0.00  0.00    +0.000 HD
BRANCH  17  22
ATOM     19  C   UNL     1      44.548   5.847  12.696  0.00  0.00    +0.000 A 
ATOM     20  C   UNL     1      45.024   7.048  12.169  0.00  0.00    +0.000 A 
ATOM     21  C   UNL     1      46.391   7.337  12.214  0.00  0.00    +0.000 A 
ATOM     22  C   UNL     1      47.315   6.427  12.742  0.00  0.00    +0.000 A 
ATOM     23  C   UNL     1      46.814   5.252  13.320  0.00  0.00    +0.000 A 
ATOM     24  C   UNL     1      45.444   4.960  13.300  0.00  0.00    +0.000 A 
BRANCH  19  26
ATOM     25  N   UNL     1      42.338   6.172  11.740  0.00  0.00    +0.000 N 
ATOM     26  C   UNL     1      43.111   5.494  12.642  0.00  0.00    +0.000 C 
ATOM     27  O   UNL     1      42.635   4.611  13.347  0.00  0.00    +0.000 OA
ATOM     28  H   UNL     1      41.391   5.833  11.627  0.00  0.00    +0.000 HD
ATOM     29  H   UNL     1      42.733   6.699  10.972  0.00  0.00    +0.000 HD
ENDBRANCH  19  26
ENDBRANCH  17  22
ENDBRANCH   1  17
TORSDOF 5
ENDMDL
MODEL 9
REMARK VINA RESULT:    -6.404      3.218      5.391
REMARK INTER + INTRA:          -9.201
REMARK INTER:                  -8.626
REMARK INTRA:                  -0.574
REMARK UNBOUND:                -0.925
REMARK  Name = 
REMARK  5 active torsions:
REMARK  status: ('A' for Active; 'I' for Inactive)
REMARK    1  A    between atoms: C_2  and  C_4
REMARK    2  A    between atoms: C_7  and  N_8
REMARK    3  A    between atoms: N_8  and  C_9
REMARK    4  A    between atoms: C_9  and  C_10
REMARK    5  A    between atoms: C_15  and  N_16
REMARK                            x       y       z     vdW  Elec       q    Type
REMARK                         _______ _______ _______ _____ _____    ______ ____
ROOT
ATOM      1  C   UNL     1      48.041   7.688  13.411  0.00  0.00    +0.000 C 
ATOM      2  C   UNL     1      48.875   8.483  12.416  0.00  0.00    +0.000 C 
ATOM      3  C   UNL     1      49.014   7.002  12.462  0.00  0.00    +0.000 C 
ENDROOT
BRANCH   1   4
ATOM      4  C   UNL     1      48.452   7.639  14.881  0.00  0.00    +0.000 A 
ATOM      5  C   UNL     1      48.573   8.810  15.648  0.00  0.00    +0.000 A 
ATOM      6  C   UNL     1      48.809   8.748  17.021  0.00  0.00    +0.000 A 
ATOM      7  C   UNL     1      48.915   7.509  17.645  0.00  0.00    +0.000 A 
ATOM      8  F   UNL     1      49.124   7.491  18.972  0.00  0.00    +0.000 F 
ATOM      9  C   UNL     1      48.836   6.307  16.926  0.00  0.00    +0.000 A 
ATOM     10  C   UNL     1      48.642   6.412  15.540  0.00  0.00    +0.000 A 
BRANCH   9  11
ATOM     11  N   UNL     1      48.872   5.057  17.508  0.00  0.00    +0.000 N 
ATOM     12  C   UNL     1      50.089   4.513  18.114  0.00  0.00    +0.000 C 
ATOM     13  C   UNL     1      50.497   3.214  17.410  0.00  0.00    +0.000 C 
ATOM     14  O   UNL     1      49.412   2.269  17.387  0.00  0.00    +0.000 OA
ATOM     15  C   UNL     1      48.287   2.821  16.680  0.00  0.00    +0.000 C 
ATOM     16  C   UNL     1      47.767   4.105  17.348  0.00  0.00    +0.000 C 
ENDBRANCH   9  11
ENDBRANCH   1   4
BRANCH   1  17
ATOM     17  N   UNL     1      46.596   7.551  13.185  0.00  0.00    +0.000 N 
ATOM     18  H   UNL     1      45.971   8.157  13.710  0.00  0.00    +0.000 HD
BRANCH  17  22
ATOM     19  C   UNL     1      44.779   4.086  11.563  0.00  0.00    +0.000 A 
ATOM     20  C   UNL     1      45.243   4.070  12.879  0.00  0.00    +0.000 A 
ATOM     21  C   UNL     1      45.853   5.207  13.418  0.00  0.00    +0.000 A 
ATOM     22  C   UNL     1      45.978   6.390  12.680  0.00  0.00    +0.000 A 
ATOM     23  C   UNL     1      45.561   6.369  11.341  0.00  0.00    +0.000 A 
ATOM     24  C   UNL     1      44.967   5.230  10.783  0.00  0.00    +0.000 A 
BRANCH  19  26
ATOM     25  N   UNL     1      44.735   2.291   9.926  0.00  0.00    +0.000 N 
ATOM     26  C   UNL     1      44.103   2.910  10.968  0.00  0.00    +0.000 C 
ATOM     27  O   UNL     1      43.039   2.486  11.406  0.00  0.00    +0.000 OA
ATOM     28  H   UNL     1      44.324   1.420   9.614  0.00  0.00    +0.000 HD
ATOM     29  H   UNL     1      45.714   2.439   9.717  0.00  0.00    +0.000 HD
ENDBRANCH  19  26
ENDBRANCH  17  22
ENDBRANCH   1  17
TORSDOF 5
ENDMDL
