MODEL 1
REMARK VINA RESULT:    -6.960      0.000      0.000
REMARK INTER + INTRA:         -10.609
REMARK INTER:                  -9.401
REMARK INTRA:                  -1.208
REMARK UNBOUND:                -1.208
REMARK  Name = 
REMARK  9 active torsions:
REMARK  status: ('A' for Active; 'I' for Inactive)
REMARK    1  A    between atoms: C_1  and  C_2
REMARK    2  A    between atoms: C_2  and  C_3
REMARK    3  A    between atoms: C_2  and  C_4
REMARK    4  A    between atoms: C_2  and  N_5
REMARK    5  A    between atoms: C_8  and  N_9
REMARK    6  A    between atoms: C_8  and  C_19
REMARK    7  A    between atoms: N_9  and  C_10
REMARK    8  A    between atoms: C_13  and  C_14
REMARK    9  A    between atoms: C_23  and  C_24
REMARK                            x       y       z     vdW  Elec       q    Type
REMARK                         _______ _______ _______ _____ _____    ______ ____
ROOT
ATOM      1  N   UNL     1      47.567   7.324  12.223  0.00  0.00    +0.000 NA
ATOM      2  C   UNL     1      46.208   7.799  11.960  0.00  0.00    +0.000 C 
ATOM      3  C   UNL     1      45.301   7.032  12.911  0.00  0.00    +0.000 C 
ATOM      4  C   UNL     1      45.898   5.616  12.974  0.00  0.00    +0.000 C 
ATOM      5  C   UNL     1      47.407   5.892  12.575  0.00  0.00    +0.000 C 
ENDROOT
BRANCH   4   6
ATOM      6  C   UNL     1      45.262   4.620  11.992  0.00  0.00    +0.000 A 
ATOM      7  C   UNL     1      44.225   3.763  12.365  0.00  0.00    +0.000 A 
ATOM      8  N   UNL     1      43.620   2.865  11.555  0.00  0.00    +0.000 NA
ATOM      9  C   UNL     1      44.056   2.800  10.284  0.00  0.00    +0.000 A 
ATOM     10  C   UNL     1      45.069   3.598   9.780  0.00  0.00    +0.000 A 
ATOM     11  C   UNL     1      45.672   4.519  10.651  0.00  0.00    +0.000 A 
BRANCH  10  12
ATOM     12  C   UNL     1      45.488   3.462   8.349  0.00  0.00    +0.000 C 
ATOM     13  F   UNL     1      46.121   2.287   8.077  0.00  0.00    +0.000 F 
ATOM     14  F   UNL     1      44.431   3.520   7.492  0.00  0.00    +0.000 F 
ATOM     15  F   UNL     1      46.344   4.445   7.958  0.00  0.00    +0.000 F 
ENDBRANCH  10  12
ENDBRANCH   4   6
BRANCH   1  17
ATOM     16  C   UNL     1      47.619   8.873  14.233  0.00  0.00    +0.000 C 
ATOM     17  C   UNL     1      48.399   8.189  13.096  0.00  0.00    +0.000 C 
ATOM     18  C   UNL     1      49.065   9.291  12.229  0.00  0.00    +0.000 C 
ATOM     19  C   UNL     1      49.570   7.397  13.725  0.00  0.00    +0.000 C 
ENDBRANCH   1  17
BRANCH   4  20
ATOM     20  N   UNL     1      45.878   5.093  14.367  0.00  0.00    +0.000 N 
ATOM     21  H   UNL     1      45.010   4.606  14.584  0.00  0.00    +0.000 HD
BRANCH  20  22
ATOM     22  C   UNL     1      46.933   4.565  15.095  0.00  0.00    +0.000 A 
ATOM     23  C   UNL     1      47.594   5.217  16.135  0.00  0.00    +0.000 A 
ATOM     24  C   UNL     1      48.629   4.586  16.834  0.00  0.00    +0.000 A 
ATOM     25  C   UNL     1      48.959   3.280  16.498  0.00  0.00    +0.000 A 
ATOM     26  N   UNL     1      48.316   2.571  15.535  0.00  0.00    +0.000 NA
ATOM     27  C   UNL     1      47.326   3.232  14.882  0.00  0.00    +0.000 A 
BRANCH  25  28
ATOM     28  C   UNL     1      50.076   2.587  17.221  0.00  0.00    +0.000 C 
ATOM     29  N   UNL     1      50.515   3.207  18.365  0.00  0.00    +0.000 N 
ATOM     30  O   UNL     1      50.559   1.532  16.837  0.00  0.00    +0.000 OA
ATOM     31  H   UNL     1      50.093   4.082  18.652  0.00  0.00    +0.000 HD
ATOM     32  H   UNL     1      51.265   2.793  18.897  0.00  0.00    +0.000 HD
ENDBRANCH  25  28
ENDBRANCH  20  22
ENDBRANCH   4  20
TORSDOF 6
ENDMDL
MODEL 2
REMARK VINA RESULT:    -6.894      3.968      6.756
REMARK INTER + INTRA:         -10.519
REMARK INTER:                  -9.298
REMARK INTRA:                  -1.221
REMARK UNBOUND:                -1.208
REMARK  Name = 
REMARK  9 active torsions:
REMARK  status: ('A' for Active; 'I' for Inactive)
REMARK    1  A    between atoms: C_1  and  C_2
REMARK    2  A    between atoms: C_2  and  C_3
REMARK    3  A    between atoms: C_2  and  C_4
REMARK    4  A    between atoms: C_2  and  N_5
REMARK    5  A    between atoms: C_8  and  N_9
REMARK    6  A    between atoms: C_8  and  C_19
REMARK    7  A    between atoms: N_9  and  C_10
REMARK    8  A    between atoms: C_13  and  C_14
REMARK    9  A    between atoms: C_23  and  C_24
REMARK                            x       y       z     vdW  Elec       q    Type
REMARK                         _______ _______ _______ _____ _____    ______ ____
ROOT
ATOM      1  N   UNL     1      49.137   9.113  13.435  0.00  0.00    +0.000 NA
ATOM      2  C   UNL     1      49.885   7.967  12.914  0.00  0.00    +0.000 C 
ATOM      3  C   UNL     1      48.922   6.789  12.936  0.00  0.00    +0.000 C 
ATOM      4  C   UNL     1      48.097   6.975  14.220  0.00  0.00    +0.000 C 
ATOM      5  C   UNL     1      48.226   8.538  14.454  0.00  0.00    +0.000 C 
ENDROOT
BRANCH   4   6
ATOM      6  C   UNL     1      48.641   6.209  15.436  0.00  0.00    +0.000 A 
ATOM      7  C   UNL     1      49.715   6.680  16.195  0.00  0.00    +0.000 A 
ATOM      8  N   UNL     1      50.244   6.059  17.274  0.00  0.00    +0.000 NA
ATOM      9  C   UNL     1      49.679   4.896  17.645  0.00  0.00    +0.000 A 
ATOM     10  C   UNL     1      48.604   4.322  16.989  0.00  0.00    +0.000 A 
ATOM     11  C   UNL     1      48.083   4.996  15.873  0.00  0.00    +0.000 A 
BRANCH  10  12
ATOM     12  C   UNL     1      48.035   3.025  17.474  0.00  0.00    +0.000 C 
ATOM     13  F   UNL     1      48.268   2.790  18.795  0.00  0.00    +0.000 F 
ATOM     14  F   UNL     1      46.683   2.962  17.319  0.00  0.00    +0.000 F 
ATOM     15  F   UNL     1      48.541   1.950  16.810  0.00  0.00    +0.000 F 
ENDBRANCH  10  12
ENDBRANCH   4   6
BRANCH   1  17
ATOM     16  C   UNL     1      47.117   9.769  12.046  0.00  0.00    +0.000 C 
ATOM     17  C   UNL     1      48.585  10.043  12.420  0.00  0.00    +0.000 C 
ATOM     18  C   UNL     1      49.442   9.951  11.129  0.00  0.00    +0.000 C 
ATOM     19  C   UNL     1      48.696  11.515  12.883  0.00  0.00    +0.000 C 
ENDBRANCH   1  17
BRANCH   4  20
ATOM     20  N   UNL     1      46.662   6.662  13.979  0.00  0.00    +0.000 N 
ATOM     21  H   UNL     1      46.059   7.467  14.142  0.00  0.00    +0.000 HD
BRANCH  20  22
ATOM     22  C   UNL     1      46.122   5.830  13.012  0.00  0.00    +0.000 A 
ATOM     23  C   UNL     1      45.932   4.455  13.152  0.00  0.00    +0.000 A 
ATOM     24  C   UNL     1      45.346   3.704  12.127  0.00  0.00    +0.000 A 
ATOM     25  C   UNL     1      44.917   4.361  10.983  0.00  0.00    +0.000 A 
ATOM     26  N   UNL     1      45.021   5.704  10.809  0.00  0.00    +0.000 NA
ATOM     27  C   UNL     1      45.604   6.385  11.828  0.00  0.00    +0.000 A 
BRANCH  25  28
ATOM     28  C   UNL     1      44.301   3.576   9.863  0.00  0.00    +0.000 C 
ATOM     29  N   UNL     1      44.220   4.227   8.658  0.00  0.00    +0.000 N 
ATOM     30  O   UNL     1      43.910   2.425  10.000  0.00  0.00    +0.000 OA
ATOM     31  H   UNL     1      44.552   5.181   8.582  0.00  0.00    +0.000 HD
ATOM     32  H   UNL     1      43.814   3.754   7.865  0.00  0.00    +0.000 HD
ENDBRANCH  25  28
ENDBRANCH  20  22
ENDBRANCH   4  20
TORSDOF 6
ENDMDL
MODEL 3
REMARK VINA RESULT:    -6.556      2.004      2.338
REMARK INTER + INTRA:         -10.063
REMARK INTER:                  -8.923
REMARK INTRA:                  -1.140
REMARK UNBOUND:                -1.208
REMARK  Name = 
REMARK  9 active torsions:
REMARK  status: ('A' for Active; 'I' for Inactive)
REMARK    1  A    between atoms: C_1  and  C_2
REMARK    2  A    between atoms: C_2  and  C_3
REMARK    3  A    between atoms: C_2  and  C_4
REMARK    4  A    between atoms: C_2  and  N_5
REMARK    5  A    between atoms: C_8  and  N_9
REMARK    6  A    between atoms: C_8  and  C_19
REMARK    7  A    between atoms: N_9  and  C_10
REMARK    8  A    between atoms: C_13  and  C_14
REMARK    9  A    between atoms: C_23  and  C_24
REMARK                            x       y       z     vdW  Elec       q    Type
REMARK                         _______ _______ _______ _____ _____    ______ ____
ROOT
ATOM      1  N   UNL     1      47.633   8.944  11.726  0.00  0.00    +0.000 NA
ATOM      2  C   UNL     1      46.527   9.177  12.656  0.00  0.00    +0.000 C 
ATOM      3  C   UNL     1      46.530   8.000  13.620  0.00  0.00    +0.000 C 
ATOM      4  C   UNL     1      46.905   6.782  12.758  0.00  0.00    +0.000 C 
ATOM      5  C   UNL     1      47.687   7.471  11.563  0.00  0.00    +0.000 C 
ENDROOT
BRANCH   4   6
ATOM      6  C   UNL     1      45.700   5.995  12.221  0.00  0.00    +0.000 A 
ATOM      7  C   UNL     1      44.478   5.949  12.896  0.00  0.00    +0.000 A 
ATOM      8  N   UNL     1      43.380   5.277  12.482  0.00  0.00    +0.000 NA
ATOM      9  C   UNL     1      43.477   4.606  11.320  0.00  0.00    +0.000 A 
ATOM     10  C   UNL     1      44.625   4.576  10.546  0.00  0.00    +0.000 A 
ATOM     11  C   UNL     1      45.745   5.285  11.009  0.00  0.00    +0.000 A 
BRANCH  10  12
ATOM     12  C   UNL     1      44.643   3.805   9.263  0.00  0.00    +0.000 C 
ATOM     13  F   UNL     1      45.877   3.733   8.690  0.00  0.00    +0.000 F 
ATOM     14  F   UNL     1      44.235   2.516   9.427  0.00  0.00    +0.000 F 
ATOM     15  F   UNL     1      43.825   4.342   8.318  0.00  0.00    +0.000 F 
ENDBRANCH  10  12
ENDBRANCH   4   6
BRANCH   1  17
ATOM     16  C   UNL     1      48.933  10.330  13.408  0.00  0.00    +0.000 C 
ATOM     17  C   UNL     1      48.889   9.681  12.014  0.00  0.00    +0.000 C 
ATOM     18  C   UNL     1      49.076  10.796  10.950  0.00  0.00    +0.000 C 
ATOM     19  C   UNL     1      50.127   8.764  11.871  0.00  0.00    +0.000 C 
ENDBRANCH   1  17
BRANCH   4  20
ATOM     20  N   UNL     1      47.856   5.894  13.480  0.00  0.00    +0.000 N 
ATOM     21  H   UNL     1      48.810   5.986  13.133  0.00  0.00    +0.000 HD
BRANCH  20  22
ATOM     22  C   UNL     1      47.851   5.551  14.823  0.00  0.00    +0.000 A 
ATOM     23  C   UNL     1      47.163   4.470  15.372  0.00  0.00    +0.000 A 
ATOM     24  C   UNL     1      47.248   4.185  16.739  0.00  0.00    +0.000 A 
ATOM     25  C   UNL     1      48.065   4.976  17.533  0.00  0.00    +0.000 A 
ATOM     26  N   UNL     1      48.806   6.007  17.050  0.00  0.00    +0.000 NA
ATOM     27  C   UNL     1      48.681   6.247  15.720  0.00  0.00    +0.000 A 
BRANCH  25  28
ATOM     28  C   UNL     1      48.160   4.701  19.005  0.00  0.00    +0.000 C 
ATOM     29  N   UNL     1      48.384   3.392  19.350  0.00  0.00    +0.000 N 
ATOM     30  O   UNL     1      48.064   5.581  19.849  0.00  0.00    +0.000 OA
ATOM     31  H   UNL     1      48.455   2.689  18.623  0.00  0.00    +0.000 HD
ATOM     32  H   UNL     1      48.456   3.141  20.323  0.00  0.00    +0.000 HD
ENDBRANCH  25  28
ENDBRANCH  20  22
ENDBRANCH   4  20
TORSDOF 6
ENDMDL
MODEL 4
REMARK VINA RESULT:    -6.392      1.500      2.073
REMARK INTER + INTRA:          -9.842
REMARK INTER:                  -8.624
REMARK INTRA:                  -1.218
REMARK UNBOUND:                -1.208
REMARK  Name = 
REMARK  9 active torsions:
REMARK  status: ('A' for Active; 'I' for Inactive)
REMARK    1  A    between atoms: C_1  and  C_2
REMARK    2  A    between atoms: C_2  and  C_3
REMARK    3  A    between atoms: C_2  and  C_4
REMARK    4  A    between atoms: C_2  and  N_5
REMARK    5  A    between atoms: C_8  and  N_9
REMARK    6  A    between atoms: C_8  and  C_19
REMARK    7  A    between atoms: N_9  and  C_10
REMARK    8  A    between atoms: C_13  and  C_14
REMARK    9  A    between atoms: C_23  and  C_24
REMARK                            x       y       z     vdW  Elec       q    Type
REMARK                         _______ _______ _______ _____ _____    ______ ____
ROOT
ATOM      1  N   UNL     1      49.125   8.121  11.605  0.00  0.00    +0.000 NA
ATOM      2  C   UNL     1      48.026   9.059  11.369  0.00  0.00    +0.000 C 
ATOM      3  C   UNL     1      47.061   8.879  12.532  0.00  0.00    +0.000 C 
ATOM      4  C   UNL     1      47.075   7.370  12.829  0.00  0.00    +0.000 C 
ATOM      5  C   UNL     1      48.490   6.948  12.253  0.00  0.00    +0.000 C 
ENDROOT
BRANCH   4   6
ATOM      6  C   UNL     1      45.959   6.580  12.129  0.00  0.00    +0.000 A 
ATOM      7  C   UNL     1      44.655   6.529  12.627  0.00  0.00    +0.000 A 
ATOM      8  N   UNL     1      43.626   5.855  12.064  0.00  0.00    +0.000 NA
ATOM      9  C   UNL     1      43.887   5.185  10.927  0.00  0.00    +0.000 A 
ATOM     10  C   UNL     1      45.131   5.159  10.320  0.00  0.00    +0.000 A 
ATOM     11  C   UNL     1      46.173   5.871  10.934  0.00  0.00    +0.000 A 
BRANCH  10  12
ATOM     12  C   UNL     1      45.330   4.390   9.052  0.00  0.00    +0.000 C 
ATOM     13  F   UNL     1      45.625   3.075   9.254  0.00  0.00    +0.000 F 
ATOM     14  F   UNL     1      44.223   4.403   8.258  0.00  0.00    +0.000 F 
ATOM     15  F   UNL     1      46.344   4.885   8.292  0.00  0.00    +0.000 F 
ENDBRANCH  10  12
ENDBRANCH   4   6
BRANCH   1  17
ATOM     16  C   UNL     1      51.646   8.368  11.443  0.00  0.00    +0.000 C 
ATOM     17  C   UNL     1      50.352   8.698  12.209  0.00  0.00    +0.000 C 
ATOM     18  C   UNL     1      50.497   8.171  13.662  0.00  0.00    +0.000 C 
ATOM     19  C   UNL     1      50.249  10.236  12.338  0.00  0.00    +0.000 C 
ENDBRANCH   1  17
BRANCH   4  20
ATOM     20  N   UNL     1      47.080   7.118  14.296  0.00  0.00    +0.000 N 
ATOM     21  H   UNL     1      46.211   7.408  14.741  0.00  0.00    +0.000 HD
BRANCH  20  22
ATOM     22  C   UNL     1      47.650   6.052  14.976  0.00  0.00    +0.000 A 
ATOM     23  C   UNL     1      48.591   6.165  15.998  0.00  0.00    +0.000 A 
ATOM     24  C   UNL     1      49.083   5.028  16.648  0.00  0.00    +0.000 A 
ATOM     25  C   UNL     1      48.584   3.785  16.284  0.00  0.00    +0.000 A 
ATOM     26  N   UNL     1      47.626   3.613  15.337  0.00  0.00    +0.000 NA
ATOM     27  C   UNL     1      47.189   4.746  14.731  0.00  0.00    +0.000 A 
BRANCH  25  28
ATOM     28  C   UNL     1      49.108   2.549  16.954  0.00  0.00    +0.000 C 
ATOM     29  N   UNL     1      49.209   2.616  18.321  0.00  0.00    +0.000 N 
ATOM     30  O   UNL     1      49.409   1.539  16.336  0.00  0.00    +0.000 OA
ATOM     31  H   UNL     1      48.953   3.471  18.800  0.00  0.00    +0.000 HD
ATOM     32  H   UNL     1      49.556   1.819  18.832  0.00  0.00    +0.000 HD
ENDBRANCH  25  28
ENDBRANCH  20  22
ENDBRANCH   4  20
TORSDOF 6
ENDMDL
MODEL 5
REMARK VINA RESULT:    -6.391      3.443      6.758
REMARK INTER + INTRA:          -9.841
REMARK INTER:                  -8.526
REMARK INTRA:                  -1.314
REMARK UNBOUND:                -1.208
REMARK  Name = 
REMARK  9 active torsions:
REMARK  status: ('A' for Active; 'I' for Inactive)
REMARK    1  A    between atoms: C_1  and  C_2
REMARK    2  A    between atoms: C_2  and  C_3
REMARK    3  A    between atoms: C_2  and  C_4
REMARK    4  A    between atoms: C_2  and  N_5
REMARK    5  A    between atoms: C_8  and  N_9
REMARK    6  A    between atoms: C_8  and  C_19
REMARK    7  A    between atoms: N_9  and  C_10
REMARK    8  A    between atoms: C_13  and  C_14
REMARK    9  A    between atoms: C_23  and  C_24
REMARK                            x       y       z     vdW  Elec       q    Type
REMARK                         _______ _______ _______ _____ _____    ______ ____
ROOT
ATOM      1  N   UNL     1      49.162   6.161  15.675  0.00  0.00    +0.000 NA
ATOM      2  C   UNL     1      49.325   7.545  16.122  0.00  0.00    +0.000 C 
ATOM      3  C   UNL     1      48.184   8.329  15.489  0.00  0.00    +0.000 C 
ATOM      4  C   UNL     1      48.012   7.718  14.088  0.00  0.00    +0.000 C 
ATOM      5  C   UNL     1      48.615   6.268  14.301  0.00  0.00    +0.000 C 
ENDROOT
BRANCH   4   6
ATOM      6  C   UNL     1      48.779   8.455  12.980  0.00  0.00    +0.000 A 
ATOM      7  C   UNL     1      48.385   9.710  12.509  0.00  0.00    +0.000 A 
ATOM      8  N   UNL     1      49.012  10.414  11.538  0.00  0.00    +0.000 NA
ATOM      9  C   UNL     1      50.107   9.857  10.991  0.00  0.00    +0.000 A 
ATOM     10  C   UNL     1      50.611   8.624  11.371  0.00  0.00    +0.000 A 
ATOM     11  C   UNL     1      49.934   7.923  12.382  0.00  0.00    +0.000 A 
BRANCH  10  12
ATOM     12  C   UNL     1      51.839   8.081  10.710  0.00  0.00    +0.000 C 
ATOM     13  F   UNL     1      52.406   8.945   9.823  0.00  0.00    +0.000 F 
ATOM     14  F   UNL     1      52.818   7.776  11.607  0.00  0.00    +0.000 F 
ATOM     15  F   UNL     1      51.597   6.938  10.013  0.00  0.00    +0.000 F 
ENDBRANCH  10  12
ENDBRANCH   4   6
BRANCH   1  17
ATOM     16  C   UNL     1      47.914   5.939  17.874  0.00  0.00    +0.000 C 
ATOM     17  C   UNL     1      48.509   5.240  16.639  0.00  0.00    +0.000 C 
ATOM     18  C   UNL     1      49.549   4.195  17.124  0.00  0.00    +0.000 C 
ATOM     19  C   UNL     1      47.386   4.420  15.962  0.00  0.00    +0.000 C 
ENDBRANCH   1  17
BRANCH   4  20
ATOM     20  N   UNL     1      46.571   7.572  13.747  0.00  0.00    +0.000 N 
ATOM     21  H   UNL     1      46.069   8.457  13.801  0.00  0.00    +0.000 HD
BRANCH  20  22
ATOM     22  C   UNL     1      46.000   6.741  12.796  0.00  0.00    +0.000 A 
ATOM     23  C   UNL     1      46.309   6.748  11.436  0.00  0.00    +0.000 A 
ATOM     24  C   UNL     1      45.701   5.844  10.558  0.00  0.00    +0.000 A 
ATOM     25  C   UNL     1      44.814   4.910  11.074  0.00  0.00    +0.000 A 
ATOM     26  N   UNL     1      44.515   4.813  12.395  0.00  0.00    +0.000 NA
ATOM     27  C   UNL     1      45.124   5.718  13.202  0.00  0.00    +0.000 A 
BRANCH  25  28
ATOM     28  C   UNL     1      44.137   3.940  10.150  0.00  0.00    +0.000 C 
ATOM     29  N   UNL     1      44.136   4.290   8.823  0.00  0.00    +0.000 N 
ATOM     30  O   UNL     1      43.633   2.898  10.541  0.00  0.00    +0.000 OA
ATOM     31  H   UNL     1      44.560   5.164   8.536  0.00  0.00    +0.000 HD
ATOM     32  H   UNL     1      43.695   3.682   8.150  0.00  0.00    +0.000 HD
ENDBRANCH  25  28
ENDBRANCH  20  22
ENDBRANCH   4  20
TORSDOF 6
ENDMDL
MODEL 6
REMARK VINA RESULT:    -6.368      4.431      6.990
REMARK INTER + INTRA:          -9.810
REMARK INTER:                  -8.938
REMARK INTRA:                  -0.872
REMARK UNBOUND:                -1.208
REMARK  Name = 
REMARK  9 active torsions:
REMARK  status: ('A' for Active; 'I' for Inactive)
REMARK    1  A    between atoms: C_1  and  C_2
REMARK    2  A    between atoms: C_2  and  C_3
REMARK    3  A    between atoms: C_2  and  C_4
REMARK    4  A    between atoms: C_2  and  N_5
REMARK    5  A    between atoms: C_8  and  N_9
REMARK    6  A    between atoms: C_8  and  C_19
REMARK    7  A    between atoms: N_9  and  C_10
REMARK    8  A    between atoms: C_13  and  C_14
REMARK    9  A    between atoms: C_23  and  C_24
REMARK                            x       y       z     vdW  Elec       q    Type
REMARK                         _______ _______ _______ _____ _____    ______ ____
ROOT
ATOM      1  N   UNL     1      48.838   8.618  13.634  0.00  0.00    +0.000 NA
ATOM      2  C   UNL     1      49.607   7.480  13.127  0.00  0.00    +0.000 C 
ATOM      3  C   UNL     1      48.590   6.396  12.800  0.00  0.00    +0.000 C 
ATOM      4  C   UNL     1      47.526   6.503  13.906  0.00  0.00    +0.000 C 
ATOM      5  C   UNL     1      47.699   8.011  14.364  0.00  0.00    +0.000 C 
ENDROOT
BRANCH   4   6
ATOM      6  C   UNL     1      47.754   5.557  15.094  0.00  0.00    +0.000 A 
ATOM      7  C   UNL     1      47.163   4.294  15.166  0.00  0.00    +0.000 A 
ATOM      8  N   UNL     1      47.319   3.412  16.179  0.00  0.00    +0.000 NA
ATOM      9  C   UNL     1      48.118   3.786  17.196  0.00  0.00    +0.000 A 
ATOM     10  C   UNL     1      48.773   5.004  17.246  0.00  0.00    +0.000 A 
ATOM     11  C   UNL     1      48.586   5.893  16.176  0.00  0.00    +0.000 A 
BRANCH  10  12
ATOM     12  C   UNL     1      49.647   5.337  18.415  0.00  0.00    +0.000 C 
ATOM     13  F   UNL     1      49.622   6.656  18.755  0.00  0.00    +0.000 F 
ATOM     14  F   UNL     1      49.288   4.658  19.540  0.00  0.00    +0.000 F 
ATOM     15  F   UNL     1      50.955   5.035  18.195  0.00  0.00    +0.000 F 
ENDBRANCH  10  12
ENDBRANCH   4   6
BRANCH   1  17
ATOM     16  C   UNL     1      47.139   9.704  12.094  0.00  0.00    +0.000 C 
ATOM     17  C   UNL     1      48.570   9.705  12.660  0.00  0.00    +0.000 C 
ATOM     18  C   UNL     1      49.564   9.579  11.475  0.00  0.00    +0.000 C 
ATOM     19  C   UNL     1      48.841  11.097  13.278  0.00  0.00    +0.000 C 
ENDBRANCH   1  17
BRANCH   4  20
ATOM     20  N   UNL     1      46.157   6.348  13.343  0.00  0.00    +0.000 N 
ATOM     21  H   UNL     1      45.610   7.203  13.416  0.00  0.00    +0.000 HD
BRANCH  20  22
ATOM     22  C   UNL     1      45.770   5.609  12.236  0.00  0.00    +0.000 A 
ATOM     23  C   UNL     1      45.920   6.013  10.910  0.00  0.00    +0.000 A 
ATOM     24  C   UNL     1      45.527   5.179   9.857  0.00  0.00    +0.000 A 
ATOM     25  C   UNL     1      45.022   3.922  10.157  0.00  0.00    +0.000 A 
ATOM     26  N   UNL     1      44.905   3.447  11.424  0.00  0.00    +0.000 NA
ATOM     27  C   UNL     1      45.291   4.298  12.408  0.00  0.00    +0.000 A 
BRANCH  25  28
ATOM     28  C   UNL     1      44.578   3.016   9.047  0.00  0.00    +0.000 C 
ATOM     29  N   UNL     1      44.249   3.640   7.870  0.00  0.00    +0.000 N 
ATOM     30  O   UNL     1      44.527   1.800   9.166  0.00  0.00    +0.000 OA
ATOM     31  H   UNL     1      44.300   4.650   7.808  0.00  0.00    +0.000 HD
ATOM     32  H   UNL     1      43.941   3.087   7.085  0.00  0.00    +0.000 HD
ENDBRANCH  25  28
ENDBRANCH  20  22
ENDBRANCH   4  20
TORSDOF 6
ENDMDL
MODEL 7
REMARK VINA RESULT:    -6.156      4.331      7.117
REMARK INTER + INTRA:          -9.523
REMARK INTER:                  -8.404
REMARK INTRA:                  -1.119
REMARK UNBOUND:                -1.208
REMARK  Name = 
REMARK  9 active torsions:
REMARK  status: ('A' for Active; 'I' for Inactive)
REMARK    1  A    between atoms: C_1  and  C_2
REMARK    2  A    between atoms: C_2  and  C_3
REMARK    3  A    between atoms: C_2  and  C_4
REMARK    4  A    between atoms: C_2  and  N_5
REMARK    5  A    between atoms: C_8  and  N_9
REMARK    6  A    between atoms: C_8  and  C_19
REMARK    7  A    between atoms: N_9  and  C_10
REMARK    8  A    between atoms: C_13  and  C_14
REMARK    9  A    between atoms: C_23  and  C_24
REMARK                            x       y       z     vdW  Elec       q    Type
REMARK                         _______ _______ _______ _____ _____    ______ ____
ROOT
ATOM      1  N   UNL     1      49.083   9.690  13.926  0.00  0.00    +0.000 NA
ATOM      2  C   UNL     1      50.385   9.189  14.368  0.00  0.00    +0.000 C 
ATOM      3  C   UNL     1      50.347   7.681  14.171  0.00  0.00    +0.000 C 
ATOM      4  C   UNL     1      48.911   7.269  14.540  0.00  0.00    +0.000 C 
ATOM      5  C   UNL     1      48.122   8.621  14.292  0.00  0.00    +0.000 C 
ENDROOT
BRANCH   4   6
ATOM      6  C   UNL     1      48.741   6.814  15.997  0.00  0.00    +0.000 A 
ATOM      7  C   UNL     1      48.684   7.719  17.060  0.00  0.00    +0.000 A 
ATOM      8  N   UNL     1      48.536   7.389  18.363  0.00  0.00    +0.000 NA
ATOM      9  C   UNL     1      48.429   6.079  18.652  0.00  0.00    +0.000 A 
ATOM     10  C   UNL     1      48.460   5.078  17.695  0.00  0.00    +0.000 A 
ATOM     11  C   UNL     1      48.615   5.460  16.353  0.00  0.00    +0.000 A 
BRANCH  10  12
ATOM     12  C   UNL     1      48.330   3.645  18.106  0.00  0.00    +0.000 C 
ATOM     13  F   UNL     1      47.133   3.089  17.770  0.00  0.00    +0.000 F 
ATOM     14  F   UNL     1      49.279   2.854  17.534  0.00  0.00    +0.000 F 
ATOM     15  F   UNL     1      48.455   3.471  19.450  0.00  0.00    +0.000 F 
ENDBRANCH  10  12
ENDBRANCH   4   6
BRANCH   1  17
ATOM     16  C   UNL     1      49.449   9.273  11.450  0.00  0.00    +0.000 C 
ATOM     17  C   UNL     1      49.037  10.259  12.557  0.00  0.00    +0.000 C 
ATOM     18  C   UNL     1      49.980  11.491  12.489  0.00  0.00    +0.000 C 
ATOM     19  C   UNL     1      47.628  10.801  12.217  0.00  0.00    +0.000 C 
ENDBRANCH   1  17
BRANCH   4  20
ATOM     20  N   UNL     1      48.390   6.250  13.588  0.00  0.00    +0.000 N 
ATOM     21  H   UNL     1      48.754   5.319  13.783  0.00  0.00    +0.000 HD
BRANCH  20  22
ATOM     22  C   UNL     1      47.126   6.177  13.025  0.00  0.00    +0.000 A 
ATOM     23  C   UNL     1      46.760   6.736  11.801  0.00  0.00    +0.000 A 
ATOM     24  C   UNL     1      45.463   6.579  11.300  0.00  0.00    +0.000 A 
ATOM     25  C   UNL     1      44.557   5.819  12.026  0.00  0.00    +0.000 A 
ATOM     26  N   UNL     1      44.868   5.201  13.195  0.00  0.00    +0.000 NA
ATOM     27  C   UNL     1      46.135   5.392  13.641  0.00  0.00    +0.000 A 
BRANCH  25  28
ATOM     28  C   UNL     1      43.156   5.649  11.518  0.00  0.00    +0.000 C 
ATOM     29  N   UNL     1      42.516   6.806  11.149  0.00  0.00    +0.000 N 
ATOM     30  O   UNL     1      42.617   4.557  11.418  0.00  0.00    +0.000 OA
ATOM     31  H   UNL     1      42.993   7.694  11.249  0.00  0.00    +0.000 HD
ATOM     32  H   UNL     1      41.571   6.761  10.801  0.00  0.00    +0.000 HD
ENDBRANCH  25  28
ENDBRANCH  20  22
ENDBRANCH   4  20
TORSDOF 6
ENDMDL
MODEL 8
REMARK VINA RESULT:    -6.073      2.245      3.117
REMARK INTER + INTRA:          -9.411
REMARK INTER:                  -8.342
REMARK INTRA:                  -1.069
REMARK UNBOUND:                -1.208
REMARK  Name = 
REMARK  9 active torsions:
REMARK  status: ('A' for Active; 'I' for Inactive)
REMARK    1  A    between atoms: C_1  and  C_2
REMARK    2  A    between atoms: C_2  and  C_3
REMARK    3  A    between atoms: C_2  and  C_4
REMARK    4  A    between atoms: C_2  and  N_5
REMARK    5  A    between atoms: C_8  and  N_9
REMARK    6  A    between atoms: C_8  and  C_19
REMARK    7  A    between atoms: N_9  and  C_10
REMARK    8  A    between atoms: C_13  and  C_14
REMARK    9  A    between atoms: C_23  and  C_24
REMARK                            x       y       z     vdW  Elec       q    Type
REMARK                         _______ _______ _______ _____ _____    ______ ____
ROOT
ATOM      1  N   UNL     1      49.728   8.172  11.707  0.00  0.00    +0.000 NA
ATOM      2  C   UNL     1      48.687   9.165  11.436  0.00  0.00    +0.000 C 
ATOM      3  C   UNL     1      47.819   9.219  12.685  0.00  0.00    +0.000 C 
ATOM      4  C   UNL     1      47.744   7.764  13.179  0.00  0.00    +0.000 C 
ATOM      5  C   UNL     1      49.065   7.150  12.554  0.00  0.00    +0.000 C 
ENDROOT
BRANCH   4   6
ATOM      6  C   UNL     1      46.512   6.993  12.681  0.00  0.00    +0.000 A 
ATOM      7  C   UNL     1      45.370   7.639  12.203  0.00  0.00    +0.000 A 
ATOM      8  N   UNL     1      44.253   7.024  11.751  0.00  0.00    +0.000 NA
ATOM      9  C   UNL     1      44.252   5.679  11.758  0.00  0.00    +0.000 A 
ATOM     10  C   UNL     1      45.321   4.915  12.195  0.00  0.00    +0.000 A 
ATOM     11  C   UNL     1      46.462   5.588  12.657  0.00  0.00    +0.000 A 
BRANCH  10  12
ATOM     12  C   UNL     1      45.235   3.420  12.164  0.00  0.00    +0.000 C 
ATOM     13  F   UNL     1      45.357   2.894  10.914  0.00  0.00    +0.000 F 
ATOM     14  F   UNL     1      46.209   2.830  12.911  0.00  0.00    +0.000 F 
ATOM     15  F   UNL     1      44.053   2.953  12.650  0.00  0.00    +0.000 F 
ENDBRANCH  10  12
ENDBRANCH   4   6
BRANCH   1  17
ATOM     16  C   UNL     1      51.348   8.529  13.628  0.00  0.00    +0.000 C 
ATOM     17  C   UNL     1      51.044   8.710  12.130  0.00  0.00    +0.000 C 
ATOM     18  C   UNL     1      51.101  10.226  11.800  0.00  0.00    +0.000 C 
ATOM     19  C   UNL     1      52.200   8.071  11.324  0.00  0.00    +0.000 C 
ENDBRANCH   1  17
BRANCH   4  20
ATOM     20  N   UNL     1      47.862   7.700  14.661  0.00  0.00    +0.000 N 
ATOM     21  H   UNL     1      47.012   8.008  15.130  0.00  0.00    +0.000 HD
BRANCH  20  22
ATOM     22  C   UNL     1      48.529   6.753  15.423  0.00  0.00    +0.000 A 
ATOM     23  C   UNL     1      49.718   6.975  16.116  0.00  0.00    +0.000 A 
ATOM     24  C   UNL     1      50.298   5.962  16.887  0.00  0.00    +0.000 A 
ATOM     25  C   UNL     1      49.644   4.742  16.984  0.00  0.00    +0.000 A 
ATOM     26  N   UNL     1      48.455   4.482  16.380  0.00  0.00    +0.000 NA
ATOM     27  C   UNL     1      47.940   5.494  15.637  0.00  0.00    +0.000 A 
BRANCH  25  28
ATOM     28  C   UNL     1      50.254   3.634  17.791  0.00  0.00    +0.000 C 
ATOM     29  N   UNL     1      49.383   2.935  18.590  0.00  0.00    +0.000 N 
ATOM     30  O   UNL     1      51.442   3.353  17.736  0.00  0.00    +0.000 OA
ATOM     31  H   UNL     1      48.405   3.199  18.613  0.00  0.00    +0.000 HD
ATOM     32  H   UNL     1      49.731   2.180  19.159  0.00  0.00    +0.000 HD
ENDBRANCH  25  28
ENDBRANCH  20  22
ENDBRANCH   4  20
TORSDOF 6
ENDMDL
MODEL 9
REMARK VINA RESULT:    -5.970      2.449      3.120
REMARK INTER + INTRA:          -9.272
REMARK INTER:                  -8.663
REMARK INTRA:                  -0.609
REMARK UNBOUND:                -1.208
REMARK  Name = 
REMARK  9 active torsions:
REMARK  status: ('A' for Active; 'I' for Inactive)
REMARK    1  A    between atoms: C_1  and  C_2
REMARK    2  A    between atoms: C_2  and  C_3
REMARK    3  A    between atoms: C_2  and  C_4
REMARK    4  A    between atoms: C_2  and  N_5
REMARK    5  A    between atoms: C_8  and  N_9
REMARK    6  A    between atoms: C_8  and  C_19
REMARK    7  A    between atoms: N_9  and  C_10
REMARK    8  A    between atoms: C_13  and  C_14
REMARK    9  A    between atoms: C_23  and  C_24
REMARK                            x       y       z     vdW  Elec       q    Type
REMARK                         _______ _______ _______ _____ _____    ______ ____
ROOT
ATOM      1  N   UNL     1      49.272   7.906  11.973  0.00  0.00    +0.000 NA
ATOM      2  C   UNL     1      47.942   8.471  11.741  0.00  0.00    +0.000 C 
ATOM      3  C   UNL     1      47.191   8.340  13.058  0.00  0.00    +0.000 C 
ATOM      4  C   UNL     1      47.644   6.990  13.639  0.00  0.00    +0.000 C 
ATOM      5  C   UNL     1      49.050   6.798  12.934  0.00  0.00    +0.000 C 
ENDROOT
BRANCH   4   6
ATOM      6  C   UNL     1      46.715   5.814  13.301  0.00  0.00    +0.000 A 
ATOM      7  C   UNL     1      47.094   4.484  13.493  0.00  0.00    +0.000 A 
ATOM      8  N   UNL     1      46.329   3.403  13.218  0.00  0.00    +0.000 NA
ATOM      9  C   UNL     1      45.100   3.636  12.723  0.00  0.00    +0.000 A 
ATOM     10  C   UNL     1      44.595   4.904  12.493  0.00  0.00    +0.000 A 
ATOM     11  C   UNL     1      45.419   6.001  12.791  0.00  0.00    +0.000 A 
BRANCH  10  12
ATOM     12  C   UNL     1      43.213   5.072  11.943  0.00  0.00    +0.000 C 
ATOM     13  F   UNL     1      42.782   4.001  11.219  0.00  0.00    +0.000 F 
ATOM     14  F   UNL     1      42.284   5.253  12.923  0.00  0.00    +0.000 F 
ATOM     15  F   UNL     1      43.104   6.147  11.117  0.00  0.00    +0.000 F 
ENDBRANCH  10  12
ENDBRANCH   4   6
BRANCH   1  17
ATOM     16  C   UNL     1      50.045  10.315  11.765  0.00  0.00    +0.000 C 
ATOM     17  C   UNL     1      50.354   8.885  12.242  0.00  0.00    +0.000 C 
ATOM     18  C   UNL     1      51.654   8.407  11.541  0.00  0.00    +0.000 C 
ATOM     19  C   UNL     1      50.699   8.945  13.749  0.00  0.00    +0.000 C 
ENDBRANCH   1  17
BRANCH   4  20
ATOM     20  N   UNL     1      47.875   7.094  15.106  0.00  0.00    +0.000 N 
ATOM     21  H   UNL     1      47.058   7.449  15.601  0.00  0.00    +0.000 HD
BRANCH  20  22
ATOM     22  C   UNL     1      48.610   6.243  15.916  0.00  0.00    +0.000 A 
ATOM     23  C   UNL     1      48.107   5.107  16.550  0.00  0.00    +0.000 A 
ATOM     24  C   UNL     1      48.939   4.290  17.323  0.00  0.00    +0.000 A 
ATOM     25  C   UNL     1      50.287   4.609  17.413  0.00  0.00    +0.000 A 
ATOM     26  N   UNL     1      50.849   5.667  16.774  0.00  0.00    +0.000 NA
ATOM     27  C   UNL     1      49.997   6.432  16.044  0.00  0.00    +0.000 A 
BRANCH  25  28
ATOM     28  C   UNL     1      51.197   3.758  18.249  0.00  0.00    +0.000 C 
ATOM     29  N   UNL     1      51.362   2.466  17.816  0.00  0.00    +0.000 N 
ATOM     30  O   UNL     1      51.772   4.182  19.241  0.00  0.00    +0.000 OA
ATOM     31  H   UNL     1      50.867   2.148  16.991  0.00  0.00    +0.000 HD
ATOM     32  H   UNL     1      51.960   1.842  18.335  0.00  0.00    +0.000 HD
ENDBRANCH  25  28
ENDBRANCH  20  22
ENDBRANCH   4  20
TORSDOF 6
ENDMDL
