MODEL 1
REMARK VINA RESULT:    -6.320      0.000      0.000
REMARK INTER + INTRA:          -9.331
REMARK INTER:                  -8.537
REMARK INTRA:                  -0.794
REMARK UNBOUND:                -0.794
REMARK  Name = 
REMARK  7 active torsions:
REMARK  status: ('A' for Active; 'I' for Inactive)
REMARK    1  A    between atoms: C_1  and  O_2
REMARK    2  A    between atoms: O_2  and  C_3
REMARK    3  A    between atoms: C_10  and  C_11
REMARK    4  A    between atoms: N_13  and  C_14
REMARK    5  A    between atoms: C_14  and  C_15
REMARK    6  A    between atoms: C_18  and  C_19
REMARK    7  A    between atoms: C_20  and  C_21
REMARK                            x       y       z     vdW  Elec       q    Type
REMARK                         _______ _______ _______ _____ _____    ______ ____
ROOT
ATOM      1  C   UNL     1      47.935   7.113  13.596  0.00  0.00    +0.000 C 
ATOM      2  O   UNL     1      49.048   6.787  13.196  0.00  0.00    +0.000 OA
ATOM      3  N   UNL     1      47.764   7.882  14.717  0.00  0.00    +0.000 N 
ATOM      4  H   UNL     1      46.828   8.127  14.997  0.00  0.00    +0.000 HD
ENDROOT
BRANCH   1  12
ATOM      5  C   UNL     1      46.386   4.082  13.160  0.00  0.00    +0.000 A 
ATOM      6  N   UNL     1      45.572   3.045  12.904  0.00  0.00    +0.000 NA
ATOM      7  C   UNL     1      44.449   3.288  12.229  0.00  0.00    +0.000 A 
ATOM      8  N   UNL     1      44.042   4.458  11.750  0.00  0.00    +0.000 NA
ATOM      9  C   UNL     1      44.886   5.468  12.028  0.00  0.00    +0.000 A 
ATOM     10  S   UNL     1      44.538   7.040  11.486  0.00  0.00    +0.000 S 
ATOM     11  C   UNL     1      45.953   7.659  12.204  0.00  0.00    +0.000 A 
ATOM     12  C   UNL     1      46.702   6.704  12.884  0.00  0.00    +0.000 A 
ATOM     13  C   UNL     1      46.076   5.387  12.743  0.00  0.00    +0.000 A 
BRANCH   5  15
ATOM     14  C   UNL     1      47.201   3.798  15.321  0.00  0.00    +0.000 C 
ATOM     15  O   UNL     1      47.499   3.828  13.930  0.00  0.00    +0.000 OA
ENDBRANCH   5  15
ENDBRANCH   1  12
BRANCH   3  16
ATOM     16  C   UNL     1      48.837   8.388  15.544  0.00  0.00    +0.000 C 
BRANCH  16  17
ATOM     17  C   UNL     1      49.660   7.282  16.181  0.00  0.00    +0.000 A 
ATOM     18  C   UNL     1      51.045   7.216  15.967  0.00  0.00    +0.000 A 
ATOM     19  C   UNL     1      51.815   6.181  16.518  0.00  0.00    +0.000 A 
ATOM     20  C   UNL     1      51.207   5.176  17.272  0.00  0.00    +0.000 A 
ATOM     21  C   UNL     1      49.835   5.242  17.514  0.00  0.00    +0.000 A 
ATOM     22  C   UNL     1      49.071   6.293  16.987  0.00  0.00    +0.000 A 
BRANCH  20  23
ATOM     23  C   UNL     1      51.965   4.076  17.774  0.00  0.00    +0.000 C 
ATOM     24  C   UNL     1      52.632   3.135  18.138  0.00  0.00    +0.000 C 
BRANCH  24  25
ATOM     25  C   UNL     1      53.432   2.014  18.501  0.00  0.00    +0.000 A 
ATOM     26  C   UNL     1      53.386   0.825  17.776  0.00  0.00    +0.000 A 
ATOM     27  C   UNL     1      54.206  -0.236  18.152  0.00  0.00    +0.000 A 
ATOM     28  C   UNL     1      55.045  -0.068  19.245  0.00  0.00    +0.000 A 
ATOM     29  N   UNL     1      55.110   1.067  19.973  0.00  0.00    +0.000 NA
ATOM     30  C   UNL     1      54.301   2.083  19.584  0.00  0.00    +0.000 A 
ENDBRANCH  24  25
ENDBRANCH  20  23
ENDBRANCH  16  17
ENDBRANCH   3  16
TORSDOF 6
ENDMDL
MODEL 2
REMARK VINA RESULT:    -5.848      1.255      1.721
REMARK INTER + INTRA:          -8.694
REMARK INTER:                  -7.571
REMARK INTRA:                  -1.122
REMARK UNBOUND:                -0.794
REMARK  Name = 
REMARK  7 active torsions:
REMARK  status: ('A' for Active; 'I' for Inactive)
REMARK    1  A    between atoms: C_1  and  O_2
REMARK    2  A    between atoms: O_2  and  C_3
REMARK    3  A    between atoms: C_10  and  C_11
REMARK    4  A    between atoms: N_13  and  C_14
REMARK    5  A    between atoms: C_14  and  C_15
REMARK    6  A    between atoms: C_18  and  C_19
REMARK    7  A    between atoms: C_20  and  C_21
REMARK                            x       y       z     vdW  Elec       q    Type
REMARK                         _______ _______ _______ _____ _____    ______ ____
ROOT
ATOM      1  C   UNL     1      47.381   8.887  13.476  0.00  0.00    +0.000 C 
ATOM      2  O   UNL     1      48.418   9.274  12.945  0.00  0.00    +0.000 OA
ATOM      3  N   UNL     1      47.260   8.783  14.837  0.00  0.00    +0.000 N 
ATOM      4  H   UNL     1      46.384   8.466  15.221  0.00  0.00    +0.000 HD
ENDROOT
BRANCH   1  12
ATOM      5  C   UNL     1      45.645   5.951  13.095  0.00  0.00    +0.000 A 
ATOM      6  N   UNL     1      44.778   4.960  12.832  0.00  0.00    +0.000 NA
ATOM      7  C   UNL     1      43.744   5.233  12.038  0.00  0.00    +0.000 A 
ATOM      8  N   UNL     1      43.475   6.391  11.445  0.00  0.00    +0.000 NA
ATOM      9  C   UNL     1      44.367   7.356  11.735  0.00  0.00    +0.000 A 
ATOM     10  S   UNL     1      44.195   8.904  11.059  0.00  0.00    +0.000 S 
ATOM     11  C   UNL     1      45.583   9.470  11.868  0.00  0.00    +0.000 A 
ATOM     12  C   UNL     1      46.189   8.517  12.678  0.00  0.00    +0.000 A 
ATOM     13  C   UNL     1      45.478   7.242  12.565  0.00  0.00    +0.000 A 
BRANCH   5  15
ATOM     14  C   UNL     1      47.133   4.338  13.868  0.00  0.00    +0.000 C 
ATOM     15  O   UNL     1      46.660   5.675  13.983  0.00  0.00    +0.000 OA
ENDBRANCH   5  15
ENDBRANCH   1  12
BRANCH   3  16
ATOM     16  C   UNL     1      48.301   9.104  15.787  0.00  0.00    +0.000 C 
BRANCH  16  17
ATOM     17  C   UNL     1      49.138   7.895  16.171  0.00  0.00    +0.000 A 
ATOM     18  C   UNL     1      48.567   6.842  16.903  0.00  0.00    +0.000 A 
ATOM     19  C   UNL     1      49.333   5.736  17.297  0.00  0.00    +0.000 A 
ATOM     20  C   UNL     1      50.693   5.674  16.988  0.00  0.00    +0.000 A 
ATOM     21  C   UNL     1      51.269   6.702  16.240  0.00  0.00    +0.000 A 
ATOM     22  C   UNL     1      50.495   7.794  15.822  0.00  0.00    +0.000 A 
BRANCH  20  23
ATOM     23  C   UNL     1      51.501   4.593  17.449  0.00  0.00    +0.000 C 
ATOM     24  C   UNL     1      52.166   3.641  17.787  0.00  0.00    +0.000 C 
BRANCH  24  25
ATOM     25  C   UNL     1      52.918   2.482  18.137  0.00  0.00    +0.000 A 
ATOM     26  C   UNL     1      52.791   1.293  17.422  0.00  0.00    +0.000 A 
ATOM     27  C   UNL     1      53.567   0.193  17.784  0.00  0.00    +0.000 A 
ATOM     28  C   UNL     1      54.441   0.324  18.852  0.00  0.00    +0.000 A 
ATOM     29  N   UNL     1      54.584   1.459  19.570  0.00  0.00    +0.000 NA
ATOM     30  C   UNL     1      53.819   2.512  19.195  0.00  0.00    +0.000 A 
ENDBRANCH  24  25
ENDBRANCH  20  23
ENDBRANCH  16  17
ENDBRANCH   3  16
TORSDOF 6
ENDMDL
MODEL 3
REMARK VINA RESULT:    -5.807      5.190      7.745
REMARK INTER + INTRA:          -8.638
REMARK INTER:                  -7.499
REMARK INTRA:                  -1.140
REMARK UNBOUND:                -0.794
REMARK  Name = 
REMARK  7 active torsions:
REMARK  status: ('A' for Active; 'I' for Inactive)
REMARK    1  A    between atoms: C_1  and  O_2
REMARK    2  A    between atoms: O_2  and  C_3
REMARK    3  A    between atoms: C_10  and  C_11
REMARK    4  A    between atoms: N_13  and  C_14
REMARK    5  A    between atoms: C_14  and  C_15
REMARK    6  A    between atoms: C_18  and  C_19
REMARK    7  A    between atoms: C_20  and  C_21
REMARK                            x       y       z     vdW  Elec       q    Type
REMARK                         _______ _______ _______ _____ _____    ______ ____
ROOT
ATOM      1  C   UNL     1      49.076   7.910  16.781  0.00  0.00    +0.000 C 
ATOM      2  O   UNL     1      50.054   8.629  16.966  0.00  0.00    +0.000 OA
ATOM      3  N   UNL     1      48.207   8.120  15.743  0.00  0.00    +0.000 N 
ATOM      4  H   UNL     1      47.425   7.496  15.633  0.00  0.00    +0.000 HD
ENDROOT
BRANCH   1  12
ATOM      5  C   UNL     1      47.912   4.739  16.175  0.00  0.00    +0.000 A 
ATOM      6  N   UNL     1      47.535   3.450  16.192  0.00  0.00    +0.000 NA
ATOM      7  C   UNL     1      47.527   2.819  17.365  0.00  0.00    +0.000 A 
ATOM      8  N   UNL     1      47.834   3.334  18.551  0.00  0.00    +0.000 NA
ATOM      9  C   UNL     1      48.205   4.625  18.489  0.00  0.00    +0.000 A 
ATOM     10  S   UNL     1      48.624   5.458  19.909  0.00  0.00    +0.000 S 
ATOM     11  C   UNL     1      48.954   6.885  19.039  0.00  0.00    +0.000 A 
ATOM     12  C   UNL     1      48.779   6.758  17.665  0.00  0.00    +0.000 A 
ATOM     13  C   UNL     1      48.295   5.414  17.346  0.00  0.00    +0.000 A 
BRANCH   5  15
ATOM     14  C   UNL     1      46.929   4.976  14.080  0.00  0.00    +0.000 C 
ATOM     15  O   UNL     1      47.995   5.351  14.944  0.00  0.00    +0.000 OA
ENDBRANCH   5  15
ENDBRANCH   1  12
BRANCH   3  16
ATOM     16  C   UNL     1      48.326   9.181  14.768  0.00  0.00    +0.000 C 
BRANCH  16  17
ATOM     17  C   UNL     1      49.196   8.795  13.584  0.00  0.00    +0.000 A 
ATOM     18  C   UNL     1      48.647   8.091  12.501  0.00  0.00    +0.000 A 
ATOM     19  C   UNL     1      49.443   7.694  11.417  0.00  0.00    +0.000 A 
ATOM     20  C   UNL     1      50.809   7.974  11.407  0.00  0.00    +0.000 A 
ATOM     21  C   UNL     1      51.365   8.695  12.464  0.00  0.00    +0.000 A 
ATOM     22  C   UNL     1      50.563   9.116  13.534  0.00  0.00    +0.000 A 
BRANCH  20  23
ATOM     23  C   UNL     1      51.645   7.510  10.348  0.00  0.00    +0.000 C 
ATOM     24  C   UNL     1      52.300   7.089   9.422  0.00  0.00    +0.000 C 
BRANCH  24  25
ATOM     25  C   UNL     1      53.018   6.555   8.313  0.00  0.00    +0.000 A 
ATOM     26  C   UNL     1      53.863   5.458   8.457  0.00  0.00    +0.000 A 
ATOM     27  C   UNL     1      54.524   4.954   7.339  0.00  0.00    +0.000 A 
ATOM     28  C   UNL     1      54.314   5.569   6.114  0.00  0.00    +0.000 A 
ATOM     29  N   UNL     1      53.507   6.637   5.940  0.00  0.00    +0.000 NA
ATOM     30  C   UNL     1      52.877   7.106   7.044  0.00  0.00    +0.000 A 
ENDBRANCH  24  25
ENDBRANCH  20  23
ENDBRANCH  16  17
ENDBRANCH   3  16
TORSDOF 6
ENDMDL
MODEL 4
REMARK VINA RESULT:    -5.542      2.165      3.424
REMARK INTER + INTRA:          -8.279
REMARK INTER:                  -7.219
REMARK INTRA:                  -1.060
REMARK UNBOUND:                -0.794
REMARK  Name = 
REMARK  7 active torsions:
REMARK  status: ('A' for Active; 'I' for Inactive)
REMARK    1  A    between atoms: C_1  and  O_2
REMARK    2  A    between atoms: O_2  and  C_3
REMARK    3  A    between atoms: C_10  and  C_11
REMARK    4  A    between atoms: N_13  and  C_14
REMARK    5  A    between atoms: C_14  and  C_15
REMARK    6  A    between atoms: C_18  and  C_19
REMARK    7  A    between atoms: C_20  and  C_21
REMARK                            x       y       z     vdW  Elec       q    Type
REMARK                         _______ _______ _______ _____ _____    ______ ____
ROOT
ATOM      1  C   UNL     1      49.064   6.958  16.058  0.00  0.00    +0.000 C 
ATOM      2  O   UNL     1      48.950   7.916  16.818  0.00  0.00    +0.000 OA
ATOM      3  N   UNL     1      49.943   5.937  16.306  0.00  0.00    +0.000 N 
ATOM      4  H   UNL     1      49.991   5.172  15.653  0.00  0.00    +0.000 HD
ENDROOT
BRANCH   1  12
ATOM      5  C   UNL     1      47.298   4.367  14.665  0.00  0.00    +0.000 A 
ATOM      6  N   UNL     1      46.499   3.546  13.965  0.00  0.00    +0.000 NA
ATOM      7  C   UNL     1      45.897   4.036  12.883  0.00  0.00    +0.000 A 
ATOM      8  N   UNL     1      46.016   5.265  12.391  0.00  0.00    +0.000 NA
ATOM      9  C   UNL     1      46.824   6.054  13.121  0.00  0.00    +0.000 A 
ATOM     10  S   UNL     1      47.108   7.658  12.641  0.00  0.00    +0.000 S 
ATOM     11  C   UNL     1      48.121   7.938  13.981  0.00  0.00    +0.000 A 
ATOM     12  C   UNL     1      48.248   6.841  14.827  0.00  0.00    +0.000 A 
ATOM     13  C   UNL     1      47.499   5.705  14.286  0.00  0.00    +0.000 A 
BRANCH   5  15
ATOM     14  C   UNL     1      46.981   4.031  16.945  0.00  0.00    +0.000 C 
ATOM     15  O   UNL     1      47.845   3.868  15.826  0.00  0.00    +0.000 OA
ENDBRANCH   5  15
ENDBRANCH   1  12
BRANCH   3  16
ATOM     16  C   UNL     1      50.819   5.861  17.454  0.00  0.00    +0.000 C 
BRANCH  16  17
ATOM     17  C   UNL     1      51.532   4.524  17.560  0.00  0.00    +0.000 A 
ATOM     18  C   UNL     1      50.815   3.325  17.415  0.00  0.00    +0.000 A 
ATOM     19  C   UNL     1      51.450   2.082  17.546  0.00  0.00    +0.000 A 
ATOM     20  C   UNL     1      52.810   2.014  17.850  0.00  0.00    +0.000 A 
ATOM     21  C   UNL     1      53.541   3.196  17.974  0.00  0.00    +0.000 A 
ATOM     22  C   UNL     1      52.911   4.438  17.814  0.00  0.00    +0.000 A 
BRANCH  20  23
ATOM     23  C   UNL     1      53.452   0.757  18.062  0.00  0.00    +0.000 C 
ATOM     24  C   UNL     1      53.952  -0.335  18.201  0.00  0.00    +0.000 C 
BRANCH  24  25
ATOM     25  C   UNL     1      54.487  -1.649  18.331  0.00  0.00    +0.000 A 
ATOM     26  C   UNL     1      54.557  -2.284  19.569  0.00  0.00    +0.000 A 
ATOM     27  C   UNL     1      55.063  -3.580  19.645  0.00  0.00    +0.000 A 
ATOM     28  C   UNL     1      55.485  -4.194  18.475  0.00  0.00    +0.000 A 
ATOM     29  N   UNL     1      55.438  -3.606  17.260  0.00  0.00    +0.000 NA
ATOM     30  C   UNL     1      54.940  -2.346  17.217  0.00  0.00    +0.000 A 
ENDBRANCH  24  25
ENDBRANCH  20  23
ENDBRANCH  16  17
ENDBRANCH   3  16
TORSDOF 6
ENDMDL
MODEL 5
REMARK VINA RESULT:    -5.438      1.835      2.362
REMARK INTER + INTRA:          -8.140
REMARK INTER:                  -7.129
REMARK INTRA:                  -1.011
REMARK UNBOUND:                -0.794
REMARK  Name = 
REMARK  7 active torsions:
REMARK  status: ('A' for Active; 'I' for Inactive)
REMARK    1  A    between atoms: C_1  and  O_2
REMARK    2  A    between atoms: O_2  and  C_3
REMARK    3  A    between atoms: C_10  and  C_11
REMARK    4  A    between atoms: N_13  and  C_14
REMARK    5  A    between atoms: C_14  and  C_15
REMARK    6  A    between atoms: C_18  and  C_19
REMARK    7  A    between atoms: C_20  and  C_21
REMARK                            x       y       z     vdW  Elec       q    Type
REMARK                         _______ _______ _______ _____ _____    ______ ____
ROOT
ATOM      1  C   UNL     1      47.047   6.856  11.754  0.00  0.00    +0.000 C 
ATOM      2  O   UNL     1      48.177   7.074  11.327  0.00  0.00    +0.000 OA
ATOM      3  N   UNL     1      46.552   7.504  12.856  0.00  0.00    +0.000 N 
ATOM      4  H   UNL     1      45.615   7.293  13.160  0.00  0.00    +0.000 HD
ENDROOT
BRANCH   1  12
ATOM      5  C   UNL     1      45.002   4.381  12.966  0.00  0.00    +0.000 A 
ATOM      6  N   UNL     1      44.097   3.415  13.192  0.00  0.00    +0.000 NA
ATOM      7  C   UNL     1      43.459   2.903  12.141  0.00  0.00    +0.000 A 
ATOM      8  N   UNL     1      43.633   3.229  10.865  0.00  0.00    +0.000 NA
ATOM      9  C   UNL     1      44.546   4.199  10.683  0.00  0.00    +0.000 A 
ATOM     10  S   UNL     1      44.912   4.740   9.116  0.00  0.00    +0.000 S 
ATOM     11  C   UNL     1      46.034   5.875   9.711  0.00  0.00    +0.000 A 
ATOM     12  C   UNL     1      46.140   5.886  11.098  0.00  0.00    +0.000 A 
ATOM     13  C   UNL     1      45.273   4.854  11.672  0.00  0.00    +0.000 A 
BRANCH   5  15
ATOM     14  C   UNL     1      46.752   4.254  14.494  0.00  0.00    +0.000 C 
ATOM     15  O   UNL     1      45.590   4.957  14.070  0.00  0.00    +0.000 OA
ENDBRANCH   5  15
ENDBRANCH   1  12
BRANCH   3  16
ATOM     16  C   UNL     1      47.273   8.490  13.629  0.00  0.00    +0.000 C 
BRANCH  16  17
ATOM     17  C   UNL     1      48.349   7.875  14.507  0.00  0.00    +0.000 A 
ATOM     18  C   UNL     1      49.703   7.994  14.157  0.00  0.00    +0.000 A 
ATOM     19  C   UNL     1      50.708   7.402  14.936  0.00  0.00    +0.000 A 
ATOM     20  C   UNL     1      50.374   6.657  16.068  0.00  0.00    +0.000 A 
ATOM     21  C   UNL     1      49.034   6.550  16.443  0.00  0.00    +0.000 A 
ATOM     22  C   UNL     1      48.033   7.167  15.679  0.00  0.00    +0.000 A 
BRANCH  20  23
ATOM     23  C   UNL     1      51.378   5.985  16.827  0.00  0.00    +0.000 C 
ATOM     24  C   UNL     1      52.225   5.365  17.427  0.00  0.00    +0.000 C 
BRANCH  24  25
ATOM     25  C   UNL     1      53.207   4.579  18.096  0.00  0.00    +0.000 A 
ATOM     26  C   UNL     1      52.848   3.627  19.048  0.00  0.00    +0.000 A 
ATOM     27  C   UNL     1      53.841   2.863  19.657  0.00  0.00    +0.000 A 
ATOM     28  C   UNL     1      55.161   3.081  19.292  0.00  0.00    +0.000 A 
ATOM     29  N   UNL     1      55.544   4.000  18.379  0.00  0.00    +0.000 NA
ATOM     30  C   UNL     1      54.557   4.727  17.802  0.00  0.00    +0.000 A 
ENDBRANCH  24  25
ENDBRANCH  20  23
ENDBRANCH  16  17
ENDBRANCH   3  16
TORSDOF 6
ENDMDL
MODEL 6
REMARK VINA RESULT:    -5.408      6.874      9.852
REMARK INTER + INTRA:          -8.099
REMARK INTER:                  -7.146
REMARK INTRA:                  -0.953
REMARK UNBOUND:                -0.794
REMARK  Name = 
REMARK  7 active torsions:
REMARK  status: ('A' for Active; 'I' for Inactive)
REMARK    1  A    between atoms: C_1  and  O_2
REMARK    2  A    between atoms: O_2  and  C_3
REMARK    3  A    between atoms: C_10  and  C_11
REMARK    4  A    between atoms: N_13  and  C_14
REMARK    5  A    between atoms: C_14  and  C_15
REMARK    6  A    between atoms: C_18  and  C_19
REMARK    7  A    between atoms: C_20  and  C_21
REMARK                            x       y       z     vdW  Elec       q    Type
REMARK                         _______ _______ _______ _____ _____    ______ ____
ROOT
ATOM      1  C   UNL     1      53.405   9.939   9.607  0.00  0.00    +0.000 C 
ATOM      2  O   UNL     1      54.091   9.294  10.395  0.00  0.00    +0.000 OA
ATOM      3  N   UNL     1      52.266  10.590  10.002  0.00  0.00    +0.000 N 
ATOM      4  H   UNL     1      51.745  11.111   9.316  0.00  0.00    +0.000 HD
ENDROOT
BRANCH   1  12
ATOM      5  C   UNL     1      53.473   7.698   7.009  0.00  0.00    +0.000 A 
ATOM      6  N   UNL     1      53.524   7.042   5.839  0.00  0.00    +0.000 NA
ATOM      7  C   UNL     1      53.873   7.730   4.754  0.00  0.00    +0.000 A 
ATOM      8  N   UNL     1      54.205   9.016   4.696  0.00  0.00    +0.000 NA
ATOM      9  C   UNL     1      54.141   9.635   5.889  0.00  0.00    +0.000 A 
ATOM     10  S   UNL     1      54.542  11.280   6.015  0.00  0.00    +0.000 S 
ATOM     11  C   UNL     1      54.212  11.288   7.686  0.00  0.00    +0.000 A 
ATOM     12  C   UNL     1      53.773  10.063   8.178  0.00  0.00    +0.000 A 
ATOM     13  C   UNL     1      53.768   9.068   7.103  0.00  0.00    +0.000 A 
BRANCH   5  15
ATOM     14  C   UNL     1      54.038   6.146   8.648  0.00  0.00    +0.000 C 
ATOM     15  O   UNL     1      53.030   6.990   8.105  0.00  0.00    +0.000 OA
ENDBRANCH   5  15
ENDBRANCH   1  12
BRANCH   3  16
ATOM     16  C   UNL     1      51.745  10.598  11.351  0.00  0.00    +0.000 C 
BRANCH  16  17
ATOM     17  C   UNL     1      50.576   9.645  11.534  0.00  0.00    +0.000 A 
ATOM     18  C   UNL     1      50.790   8.258  11.553  0.00  0.00    +0.000 A 
ATOM     19  C   UNL     1      49.719   7.362  11.685  0.00  0.00    +0.000 A 
ATOM     20  C   UNL     1      48.411   7.837  11.775  0.00  0.00    +0.000 A 
ATOM     21  C   UNL     1      48.184   9.214  11.782  0.00  0.00    +0.000 A 
ATOM     22  C   UNL     1      49.258  10.109  11.680  0.00  0.00    +0.000 A 
BRANCH  20  23
ATOM     23  C   UNL     1      47.306   6.936  11.832  0.00  0.00    +0.000 C 
ATOM     24  C   UNL     1      46.406   6.128  11.848  0.00  0.00    +0.000 C 
BRANCH  24  25
ATOM     25  C   UNL     1      45.382   5.137  11.822  0.00  0.00    +0.000 A 
ATOM     26  C   UNL     1      44.817   4.710  10.623  0.00  0.00    +0.000 A 
ATOM     27  C   UNL     1      43.837   3.719  10.645  0.00  0.00    +0.000 A 
ATOM     28  C   UNL     1      43.457   3.193  11.870  0.00  0.00    +0.000 A 
ATOM     29  N   UNL     1      43.979   3.588  13.051  0.00  0.00    +0.000 NA
ATOM     30  C   UNL     1      44.930   4.552  12.999  0.00  0.00    +0.000 A 
ENDBRANCH  24  25
ENDBRANCH  20  23
ENDBRANCH  16  17
ENDBRANCH   3  16
TORSDOF 6
ENDMDL
MODEL 7
REMARK VINA RESULT:    -5.226      4.780      8.921
REMARK INTER + INTRA:          -7.853
REMARK INTER:                  -6.720
REMARK INTRA:                  -1.133
REMARK UNBOUND:                -0.794
REMARK  Name = 
REMARK  7 active torsions:
REMARK  status: ('A' for Active; 'I' for Inactive)
REMARK    1  A    between atoms: C_1  and  O_2
REMARK    2  A    between atoms: O_2  and  C_3
REMARK    3  A    between atoms: C_10  and  C_11
REMARK    4  A    between atoms: N_13  and  C_14
REMARK    5  A    between atoms: C_14  and  C_15
REMARK    6  A    between atoms: C_18  and  C_19
REMARK    7  A    between atoms: C_20  and  C_21
REMARK                            x       y       z     vdW  Elec       q    Type
REMARK                         _______ _______ _______ _____ _____    ______ ____
ROOT
ATOM      1  C   UNL     1      50.585   9.771  16.500  0.00  0.00    +0.000 C 
ATOM      2  O   UNL     1      51.646   9.847  15.887  0.00  0.00    +0.000 OA
ATOM      3  N   UNL     1      49.388  10.098  15.920  0.00  0.00    +0.000 N 
ATOM      4  H   UNL     1      48.546  10.010  16.466  0.00  0.00    +0.000 HD
ENDROOT
BRANCH   1  12
ATOM      5  C   UNL     1      48.870   7.241  18.061  0.00  0.00    +0.000 A 
ATOM      6  N   UNL     1      48.369   6.299  18.876  0.00  0.00    +0.000 NA
ATOM      7  C   UNL     1      48.762   6.304  20.148  0.00  0.00    +0.000 A 
ATOM      8  N   UNL     1      49.595   7.165  20.724  0.00  0.00    +0.000 NA
ATOM      9  C   UNL     1      50.073   8.091  19.873  0.00  0.00    +0.000 A 
ATOM     10  S   UNL     1      51.145   9.284  20.430  0.00  0.00    +0.000 S 
ATOM     11  C   UNL     1      51.271   9.972  18.877  0.00  0.00    +0.000 A 
ATOM     12  C   UNL     1      50.531   9.307  17.906  0.00  0.00    +0.000 A 
ATOM     13  C   UNL     1      49.786   8.203  18.516  0.00  0.00    +0.000 A 
BRANCH   5  15
ATOM     14  C   UNL     1      48.630   5.850  16.211  0.00  0.00    +0.000 C 
ATOM     15  O   UNL     1      48.518   7.169  16.731  0.00  0.00    +0.000 OA
ENDBRANCH   5  15
ENDBRANCH   1  12
BRANCH   3  16
ATOM     16  C   UNL     1      49.228  10.562  14.560  0.00  0.00    +0.000 C 
BRANCH  16  17
ATOM     17  C   UNL     1      48.474   9.572  13.687  0.00  0.00    +0.000 A 
ATOM     18  C   UNL     1      47.180   9.160  14.040  0.00  0.00    +0.000 A 
ATOM     19  C   UNL     1      46.483   8.220  13.266  0.00  0.00    +0.000 A 
ATOM     20  C   UNL     1      47.080   7.655  12.139  0.00  0.00    +0.000 A 
ATOM     21  C   UNL     1      48.357   8.074  11.762  0.00  0.00    +0.000 A 
ATOM     22  C   UNL     1      49.040   9.035  12.519  0.00  0.00    +0.000 A 
BRANCH  20  23
ATOM     23  C   UNL     1      46.415   6.642  11.386  0.00  0.00    +0.000 C 
ATOM     24  C   UNL     1      45.895   5.739  10.771  0.00  0.00    +0.000 C 
BRANCH  24  25
ATOM     25  C   UNL     1      45.338   4.636  10.062  0.00  0.00    +0.000 A 
ATOM     26  C   UNL     1      45.533   4.483   8.691  0.00  0.00    +0.000 A 
ATOM     27  C   UNL     1      44.991   3.375   8.044  0.00  0.00    +0.000 A 
ATOM     28  C   UNL     1      44.270   2.458   8.795  0.00  0.00    +0.000 A 
ATOM     29  N   UNL     1      44.056   2.579  10.123  0.00  0.00    +0.000 NA
ATOM     30  C   UNL     1      44.596   3.666  10.726  0.00  0.00    +0.000 A 
ENDBRANCH  24  25
ENDBRANCH  20  23
ENDBRANCH  16  17
ENDBRANCH   3  16
TORSDOF 6
ENDMDL
MODEL 8
REMARK VINA RESULT:    -4.959      4.301      9.334
REMARK INTER + INTRA:          -7.492
REMARK INTER:                  -6.368
REMARK INTRA:                  -1.125
REMARK UNBOUND:                -0.794
REMARK  Name = 
REMARK  7 active torsions:
REMARK  status: ('A' for Active; 'I' for Inactive)
REMARK    1  A    between atoms: C_1  and  O_2
REMARK    2  A    between atoms: O_2  and  C_3
REMARK    3  A    between atoms: C_10  and  C_11
REMARK    4  A    between atoms: N_13  and  C_14
REMARK    5  A    between atoms: C_14  and  C_15
REMARK    6  A    between atoms: C_18  and  C_19
REMARK    7  A    between atoms: C_20  and  C_21
REMARK                            x       y       z     vdW  Elec       q    Type
REMARK                         _______ _______ _______ _____ _____    ______ ____
ROOT
ATOM      1  C   UNL     1      51.759   6.394  19.568  0.00  0.00    +0.000 C 
ATOM      2  O   UNL     1      51.057   7.103  20.283  0.00  0.00    +0.000 OA
ATOM      3  N   UNL     1      51.331   5.175  19.111  0.00  0.00    +0.000 N 
ATOM      4  H   UNL     1      51.945   4.637  18.521  0.00  0.00    +0.000 HD
ENDROOT
BRANCH   1  12
ATOM      5  C   UNL     1      53.195   6.886  16.490  0.00  0.00    +0.000 A 
ATOM      6  N   UNL     1      53.952   7.201  15.427  0.00  0.00    +0.000 NA
ATOM      7  C   UNL     1      55.185   7.651  15.651  0.00  0.00    +0.000 A 
ATOM      8  N   UNL     1      55.775   7.807  16.832  0.00  0.00    +0.000 NA
ATOM      9  C   UNL     1      54.984   7.480  17.869  0.00  0.00    +0.000 A 
ATOM     10  S   UNL     1      55.570   7.604  19.458  0.00  0.00    +0.000 S 
ATOM     11  C   UNL     1      54.085   7.075  20.105  0.00  0.00    +0.000 A 
ATOM     12  C   UNL     1      53.114   6.818  19.143  0.00  0.00    +0.000 A 
ATOM     13  C   UNL     1      53.670   7.026  17.805  0.00  0.00    +0.000 A 
BRANCH   5  15
ATOM     14  C   UNL     1      51.227   7.393  15.357  0.00  0.00    +0.000 C 
ATOM     15  O   UNL     1      51.896   6.502  16.242  0.00  0.00    +0.000 OA
ENDBRANCH   5  15
ENDBRANCH   1  12
BRANCH   3  16
ATOM     16  C   UNL     1      50.042   4.589  19.405  0.00  0.00    +0.000 C 
BRANCH  16  17
ATOM     17  C   UNL     1      49.130   4.540  18.192  0.00  0.00    +0.000 A 
ATOM     18  C   UNL     1      48.548   3.326  17.792  0.00  0.00    +0.000 A 
ATOM     19  C   UNL     1      47.732   3.254  16.654  0.00  0.00    +0.000 A 
ATOM     20  C   UNL     1      47.503   4.391  15.878  0.00  0.00    +0.000 A 
ATOM     21  C   UNL     1      48.054   5.610  16.277  0.00  0.00    +0.000 A 
ATOM     22  C   UNL     1      48.846   5.686  17.431  0.00  0.00    +0.000 A 
BRANCH  20  23
ATOM     23  C   UNL     1      46.739   4.318  14.676  0.00  0.00    +0.000 C 
ATOM     24  C   UNL     1      46.115   4.316  13.640  0.00  0.00    +0.000 C 
BRANCH  24  25
ATOM     25  C   UNL     1      45.396   4.379  12.412  0.00  0.00    +0.000 A 
ATOM     26  C   UNL     1      45.701   5.331  11.442  0.00  0.00    +0.000 A 
ATOM     27  C   UNL     1      44.988   5.338  10.244  0.00  0.00    +0.000 A 
ATOM     28  C   UNL     1      43.992   4.390  10.062  0.00  0.00    +0.000 A 
ATOM     29  N   UNL     1      43.666   3.458  10.984  0.00  0.00    +0.000 NA
ATOM     30  C   UNL     1      44.376   3.475  12.138  0.00  0.00    +0.000 A 
ENDBRANCH  24  25
ENDBRANCH  20  23
ENDBRANCH  16  17
ENDBRANCH   3  16
TORSDOF 6
ENDMDL
MODEL 9
REMARK VINA RESULT:    -4.929     10.429     11.834
REMARK INTER + INTRA:          -7.452
REMARK INTER:                  -6.439
REMARK INTRA:                  -1.013
REMARK UNBOUND:                -0.794
REMARK  Name = 
REMARK  7 active torsions:
REMARK  status: ('A' for Active; 'I' for Inactive)
REMARK    1  A    between atoms: C_1  and  O_2
REMARK    2  A    between atoms: O_2  and  C_3
REMARK    3  A    between atoms: C_10  and  C_11
REMARK    4  A    between atoms: N_13  and  C_14
REMARK    5  A    between atoms: C_14  and  C_15
REMARK    6  A    between atoms: C_18  and  C_19
REMARK    7  A    between atoms: C_20  and  C_21
REMARK                            x       y       z     vdW  Elec       q    Type
REMARK                         _______ _______ _______ _____ _____    ______ ____
ROOT
ATOM      1  C   UNL     1      38.158  -1.111  18.908  0.00  0.00    +0.000 C 
ATOM      2  O   UNL     1      37.272  -1.926  19.149  0.00  0.00    +0.000 OA
ATOM      3  N   UNL     1      39.392  -1.186  19.498  0.00  0.00    +0.000 N 
ATOM      4  H   UNL     1      40.085  -0.496  19.258  0.00  0.00    +0.000 HD
ENDROOT
BRANCH   1  12
ATOM      5  C   UNL     1      38.671   2.275  19.117  0.00  0.00    +0.000 A 
ATOM      6  N   UNL     1      38.840   3.594  18.931  0.00  0.00    +0.000 NA
ATOM      7  C   UNL     1      38.543   4.097  17.734  0.00  0.00    +0.000 A 
ATOM      8  N   UNL     1      38.068   3.434  16.685  0.00  0.00    +0.000 NA
ATOM      9  C   UNL     1      37.914   2.117  16.913  0.00  0.00    +0.000 A 
ATOM     10  S   UNL     1      37.305   1.108  15.691  0.00  0.00    +0.000 S 
ATOM     11  C   UNL     1      37.430  -0.267  16.690  0.00  0.00    +0.000 A 
ATOM     12  C   UNL     1      37.951   0.001  17.951  0.00  0.00    +0.000 A 
ATOM     13  C   UNL     1      38.204   1.437  18.091  0.00  0.00    +0.000 A 
BRANCH   5  15
ATOM     14  C   UNL     1      39.921   2.642  21.045  0.00  0.00    +0.000 C 
ATOM     15  O   UNL     1      39.061   1.760  20.333  0.00  0.00    +0.000 OA
ENDBRANCH   5  15
ENDBRANCH   1  12
BRANCH   3  16
ATOM     16  C   UNL     1      39.793  -2.198  20.449  0.00  0.00    +0.000 C 
BRANCH  16  17
ATOM     17  C   UNL     1      40.906  -3.089  19.924  0.00  0.00    +0.000 A 
ATOM     18  C   UNL     1      41.921  -3.535  20.785  0.00  0.00    +0.000 A 
ATOM     19  C   UNL     1      42.976  -4.328  20.310  0.00  0.00    +0.000 A 
ATOM     20  C   UNL     1      43.049  -4.669  18.959  0.00  0.00    +0.000 A 
ATOM     21  C   UNL     1      42.034  -4.253  18.096  0.00  0.00    +0.000 A 
ATOM     22  C   UNL     1      40.964  -3.484  18.578  0.00  0.00    +0.000 A 
BRANCH  20  23
ATOM     23  C   UNL     1      44.155  -5.409  18.447  0.00  0.00    +0.000 C 
ATOM     24  C   UNL     1      45.133  -5.985  18.028  0.00  0.00    +0.000 C 
BRANCH  24  25
ATOM     25  C   UNL     1      46.319  -6.605  17.540  0.00  0.00    +0.000 A 
ATOM     26  C   UNL     1      47.551  -5.958  17.596  0.00  0.00    +0.000 A 
ATOM     27  C   UNL     1      48.689  -6.614  17.131  0.00  0.00    +0.000 A 
ATOM     28  C   UNL     1      48.551  -7.897  16.624  0.00  0.00    +0.000 A 
ATOM     29  N   UNL     1      47.372  -8.551  16.549  0.00  0.00    +0.000 NA
ATOM     30  C   UNL     1      46.283  -7.889  17.009  0.00  0.00    +0.000 A 
ENDBRANCH  24  25
ENDBRANCH  20  23
ENDBRANCH  16  17
ENDBRANCH   3  16
TORSDOF 6
ENDMDL
