MODEL 1
REMARK VINA RESULT:    -7.424      0.000      0.000
REMARK INTER + INTRA:         -11.565
REMARK INTER:                 -10.462
REMARK INTRA:                  -1.103
REMARK UNBOUND:                -1.103
REMARK  Name = 
REMARK  7 active torsions:
REMARK  status: ('A' for Active; 'I' for Inactive)
REMARK    1  A    between atoms: C_2  and  C_3
REMARK    2  A    between atoms: C_7  and  C_8
REMARK    3  A    between atoms: N_10  and  C_11
REMARK    4  A    between atoms: C_11  and  C_12
REMARK    5  A    between atoms: C_15  and  C_16
REMARK    6  A    between atoms: C_16  and  N_17
REMARK    7  A    between atoms: C_18  and  C_20
REMARK                            x       y       z     vdW  Elec       q    Type
REMARK                         _______ _______ _______ _____ _____    ______ ____
ROOT
ATOM      1  C   UNL     1      51.358   3.836  17.885  0.00  0.00    +0.000 A 
ATOM      2  C   UNL     1      50.476   4.924  17.938  0.00  0.00    +0.000 A 
ATOM      3  C   UNL     1      49.134   4.776  17.567  0.00  0.00    +0.000 A 
ATOM      4  C   UNL     1      48.638   3.531  17.155  0.00  0.00    +0.000 A 
ATOM      5  C   UNL     1      49.525   2.450  17.081  0.00  0.00    +0.000 A 
ATOM      6  C   UNL     1      50.865   2.597  17.454  0.00  0.00    +0.000 A 
ENDROOT
BRANCH   1   7
ATOM      7  C   UNL     1      52.807   3.986  18.271  0.00  0.00    +0.000 C 
BRANCH   7  10
ATOM      8  C   UNL     1      54.280   2.037  18.591  0.00  0.00    +0.000 C 
ATOM      9  O   UNL     1      54.214   2.108  19.813  0.00  0.00    +0.000 OA
ATOM     10  N   UNL     1      53.638   2.919  17.752  0.00  0.00    +0.000 N 
ATOM     11  H   UNL     1      53.825   2.902  16.760  0.00  0.00    +0.000 HD
BRANCH   8  16
ATOM     12  C   UNL     1      54.166  -0.250  17.526  0.00  0.00    +0.000 C 
ATOM     13  C   UNL     1      54.872  -0.932  16.349  0.00  0.00    +0.000 C 
ATOM     14  C   UNL     1      55.774   0.123  15.715  0.00  0.00    +0.000 C 
ATOM     15  C   UNL     1      55.570   1.403  16.515  0.00  0.00    +0.000 C 
ATOM     16  C   UNL     1      55.064   0.943  17.881  0.00  0.00    +0.000 C 
BRANCH  12  18
ATOM     17  N   UNL     1      53.843  -1.869  19.574  0.00  0.00    +0.000 NA
ATOM     18  C   UNL     1      53.990  -1.167  18.659  0.00  0.00    +0.000 C 
ENDBRANCH  12  18
ENDBRANCH   8  16
ENDBRANCH   7  10
ENDBRANCH   1   7
BRANCH   4  19
ATOM     19  C   UNL     1      47.186   3.352  16.782  0.00  0.00    +0.000 C 
BRANCH  19  20
ATOM     20  N   UNL     1      46.752   4.346  15.835  0.00  0.00    +0.000 N 
ATOM     21  C   UNL     1      46.834   4.130  14.480  0.00  0.00    +0.000 C 
ATOM     22  O   UNL     1      47.231   3.067  14.009  0.00  0.00    +0.000 OA
ATOM     23  H   UNL     1      46.676   5.297  16.178  0.00  0.00    +0.000 HD
BRANCH  21  24
ATOM     24  C   UNL     1      46.352   5.218  13.619  0.00  0.00    +0.000 A 
ATOM     25  C   UNL     1      47.131   6.352  13.429  0.00  0.00    +0.000 A 
ATOM     26  S   UNL     1      46.440   7.483  12.355  0.00  0.00    +0.000 S 
ATOM     27  C   UNL     1      45.051   6.523  12.149  0.00  0.00    +0.000 A 
ATOM     28  N   UNL     1      44.026   6.931  11.352  0.00  0.00    +0.000 NA
ATOM     29  C   UNL     1      43.025   6.116  11.311  0.00  0.00    +0.000 A 
ATOM     30  N   UNL     1      42.959   4.928  11.984  0.00  0.00    +0.000 N 
ATOM     31  C   UNL     1      43.980   4.459  12.777  0.00  0.00    +0.000 A 
ATOM     32  O   UNL     1      43.907   3.366  13.327  0.00  0.00    +0.000 OA
ATOM     33  C   UNL     1      45.125   5.345  12.872  0.00  0.00    +0.000 A 
ATOM     34  H   UNL     1      42.152   4.328  11.902  0.00  0.00    +0.000 HD
ENDBRANCH  21  24
ENDBRANCH  19  20
ENDBRANCH   4  19
TORSDOF 7
ENDMDL
MODEL 2
REMARK VINA RESULT:    -7.166      3.306      5.070
REMARK INTER + INTRA:         -11.201
REMARK INTER:                  -9.901
REMARK INTRA:                  -1.300
REMARK UNBOUND:                -1.103
REMARK  Name = 
REMARK  7 active torsions:
REMARK  status: ('A' for Active; 'I' for Inactive)
REMARK    1  A    between atoms: C_2  and  C_3
REMARK    2  A    between atoms: C_7  and  C_8
REMARK    3  A    between atoms: N_10  and  C_11
REMARK    4  A    between atoms: C_11  and  C_12
REMARK    5  A    between atoms: C_15  and  C_16
REMARK    6  A    between atoms: C_16  and  N_17
REMARK    7  A    between atoms: C_18  and  C_20
REMARK                            x       y       z     vdW  Elec       q    Type
REMARK                         _______ _______ _______ _____ _____    ______ ____
ROOT
ATOM      1  C   UNL     1      50.296   7.358  15.167  0.00  0.00    +0.000 A 
ATOM      2  C   UNL     1      49.027   6.768  15.250  0.00  0.00    +0.000 A 
ATOM      3  C   UNL     1      48.105   6.906  14.204  0.00  0.00    +0.000 A 
ATOM      4  C   UNL     1      48.438   7.620  13.045  0.00  0.00    +0.000 A 
ATOM      5  C   UNL     1      49.698   8.228  12.973  0.00  0.00    +0.000 A 
ATOM      6  C   UNL     1      50.620   8.087  14.015  0.00  0.00    +0.000 A 
ENDROOT
BRANCH   1   7
ATOM      7  C   UNL     1      51.292   7.225  16.290  0.00  0.00    +0.000 C 
BRANCH   7  10
ATOM      8  C   UNL     1      50.855   5.472  17.965  0.00  0.00    +0.000 C 
ATOM      9  O   UNL     1      50.247   6.240  18.703  0.00  0.00    +0.000 OA
ATOM     10  N   UNL     1      51.414   5.863  16.771  0.00  0.00    +0.000 N 
ATOM     11  H   UNL     1      52.014   5.231  16.260  0.00  0.00    +0.000 HD
BRANCH   8  16
ATOM     12  C   UNL     1      50.299   3.107  17.273  0.00  0.00    +0.000 C 
ATOM     13  C   UNL     1      51.027   1.761  17.341  0.00  0.00    +0.000 C 
ATOM     14  C   UNL     1      52.413   2.046  17.912  0.00  0.00    +0.000 C 
ATOM     15  C   UNL     1      52.480   3.549  18.151  0.00  0.00    +0.000 C 
ATOM     16  C   UNL     1      51.026   3.995  18.292  0.00  0.00    +0.000 C 
BRANCH  12  18
ATOM     17  N   UNL     1      47.732   2.879  17.803  0.00  0.00    +0.000 NA
ATOM     18  C   UNL     1      48.870   2.968  17.581  0.00  0.00    +0.000 C 
ENDBRANCH  12  18
ENDBRANCH   8  16
ENDBRANCH   7  10
ENDBRANCH   1   7
BRANCH   4  19
ATOM     19  C   UNL     1      47.463   7.750  11.899  0.00  0.00    +0.000 C 
BRANCH  19  20
ATOM     20  N   UNL     1      46.780   6.510  11.637  0.00  0.00    +0.000 N 
ATOM     21  C   UNL     1      45.409   6.422  11.685  0.00  0.00    +0.000 C 
ATOM     22  O   UNL     1      44.698   7.400  11.902  0.00  0.00    +0.000 OA
ATOM     23  H   UNL     1      47.331   5.662  11.719  0.00  0.00    +0.000 HD
BRANCH  21  24
ATOM     24  C   UNL     1      44.832   5.104  11.391  0.00  0.00    +0.000 A 
ATOM     25  C   UNL     1      44.068   4.450  12.348  0.00  0.00    +0.000 A 
ATOM     26  S   UNL     1      43.432   2.960  11.813  0.00  0.00    +0.000 S 
ATOM     27  C   UNL     1      44.201   3.110  10.304  0.00  0.00    +0.000 A 
ATOM     28  N   UNL     1      44.087   2.139   9.357  0.00  0.00    +0.000 NA
ATOM     29  C   UNL     1      44.746   2.372   8.271  0.00  0.00    +0.000 A 
ATOM     30  N   UNL     1      45.500   3.489   8.042  0.00  0.00    +0.000 N 
ATOM     31  C   UNL     1      45.623   4.510   8.955  0.00  0.00    +0.000 A 
ATOM     32  O   UNL     1      46.268   5.520   8.696  0.00  0.00    +0.000 OA
ATOM     33  C   UNL     1      44.914   4.292  10.202  0.00  0.00    +0.000 A 
ATOM     34  H   UNL     1      45.984   3.619   7.167  0.00  0.00    +0.000 HD
ENDBRANCH  21  24
ENDBRANCH  19  20
ENDBRANCH   4  19
TORSDOF 7
ENDMDL
MODEL 3
REMARK VINA RESULT:    -6.923      3.294      5.047
REMARK INTER + INTRA:         -10.859
REMARK INTER:                  -9.612
REMARK INTRA:                  -1.247
REMARK UNBOUND:                -1.103
REMARK  Name = 
REMARK  7 active torsions:
REMARK  status: ('A' for Active; 'I' for Inactive)
REMARK    1  A    between atoms: C_2  and  C_3
REMARK    2  A    between atoms: C_7  and  C_8
REMARK    3  A    between atoms: N_10  and  C_11
REMARK    4  A    between atoms: C_11  and  C_12
REMARK    5  A    between atoms: C_15  and  C_16
REMARK    6  A    between atoms: C_16  and  N_17
REMARK    7  A    between atoms: C_18  and  C_20
REMARK                            x       y       z     vdW  Elec       q    Type
REMARK                         _______ _______ _______ _____ _____    ______ ____
ROOT
ATOM      1  C   UNL     1      50.233   7.547  15.432  0.00  0.00    +0.000 A 
ATOM      2  C   UNL     1      48.842   7.378  15.374  0.00  0.00    +0.000 A 
ATOM      3  C   UNL     1      48.136   7.661  14.198  0.00  0.00    +0.000 A 
ATOM      4  C   UNL     1      48.806   8.100  13.048  0.00  0.00    +0.000 A 
ATOM      5  C   UNL     1      50.192   8.290  13.114  0.00  0.00    +0.000 A 
ATOM      6  C   UNL     1      50.898   8.004  14.287  0.00  0.00    +0.000 A 
ENDROOT
BRANCH   1   7
ATOM      7  C   UNL     1      51.002   7.256  16.695  0.00  0.00    +0.000 C 
BRANCH   7  10
ATOM      8  C   UNL     1      50.183   5.313  17.971  0.00  0.00    +0.000 C 
ATOM      9  O   UNL     1      49.386   5.991  18.611  0.00  0.00    +0.000 OA
ATOM     10  N   UNL     1      51.025   5.844  17.021  0.00  0.00    +0.000 N 
ATOM     11  H   UNL     1      51.752   5.274  16.614  0.00  0.00    +0.000 HD
BRANCH   8  16
ATOM     12  C   UNL     1      49.572   3.052  17.027  0.00  0.00    +0.000 C 
ATOM     13  C   UNL     1      50.254   1.681  16.975  0.00  0.00    +0.000 C 
ATOM     14  C   UNL     1      51.632   1.858  17.608  0.00  0.00    +0.000 C 
ATOM     15  C   UNL     1      51.740   3.326  18.001  0.00  0.00    +0.000 C 
ATOM     16  C   UNL     1      50.297   3.806  18.149  0.00  0.00    +0.000 C 
BRANCH  12  18
ATOM     17  N   UNL     1      46.995   2.842  17.514  0.00  0.00    +0.000 NA
ATOM     18  C   UNL     1      48.131   2.932  17.282  0.00  0.00    +0.000 C 
ENDBRANCH  12  18
ENDBRANCH   8  16
ENDBRANCH   7  10
ENDBRANCH   1   7
BRANCH   4  19
ATOM     19  C   UNL     1      48.059   8.379  11.766  0.00  0.00    +0.000 C 
BRANCH  19  20
ATOM     20  N   UNL     1      47.423   7.194  11.251  0.00  0.00    +0.000 N 
ATOM     21  C   UNL     1      46.056   7.052  11.261  0.00  0.00    +0.000 C 
ATOM     22  O   UNL     1      45.309   7.942  11.661  0.00  0.00    +0.000 OA
ATOM     23  H   UNL     1      48.003   6.367  11.168  0.00  0.00    +0.000 HD
BRANCH  21  24
ATOM     24  C   UNL     1      45.529   5.801  10.701  0.00  0.00    +0.000 A 
ATOM     25  C   UNL     1      45.755   5.486   9.367  0.00  0.00    +0.000 A 
ATOM     26  S   UNL     1      45.121   3.971   8.906  0.00  0.00    +0.000 S 
ATOM     27  C   UNL     1      44.475   3.707  10.458  0.00  0.00    +0.000 A 
ATOM     28  N   UNL     1      43.769   2.579  10.743  0.00  0.00    +0.000 NA
ATOM     29  C   UNL     1      43.314   2.525  11.950  0.00  0.00    +0.000 A 
ATOM     30  N   UNL     1      43.508   3.488  12.900  0.00  0.00    +0.000 N 
ATOM     31  C   UNL     1      44.238   4.630  12.670  0.00  0.00    +0.000 A 
ATOM     32  O   UNL     1      44.433   5.451  13.559  0.00  0.00    +0.000 OA
ATOM     33  C   UNL     1      44.759   4.750  11.321  0.00  0.00    +0.000 A 
ATOM     34  H   UNL     1      43.136   3.383  13.831  0.00  0.00    +0.000 HD
ENDBRANCH  21  24
ENDBRANCH  19  20
ENDBRANCH   4  19
TORSDOF 7
ENDMDL
MODEL 4
REMARK VINA RESULT:    -6.908      4.583      9.982
REMARK INTER + INTRA:         -10.837
REMARK INTER:                 -10.393
REMARK INTRA:                  -0.445
REMARK UNBOUND:                -1.103
REMARK  Name = 
REMARK  7 active torsions:
REMARK  status: ('A' for Active; 'I' for Inactive)
REMARK    1  A    between atoms: C_2  and  C_3
REMARK    2  A    between atoms: C_7  and  C_8
REMARK    3  A    between atoms: N_10  and  C_11
REMARK    4  A    between atoms: C_11  and  C_12
REMARK    5  A    between atoms: C_15  and  C_16
REMARK    6  A    between atoms: C_16  and  N_17
REMARK    7  A    between atoms: C_18  and  C_20
REMARK                            x       y       z     vdW  Elec       q    Type
REMARK                         _______ _______ _______ _____ _____    ______ ____
ROOT
ATOM      1  C   UNL     1      45.028   5.307  11.421  0.00  0.00    +0.000 A 
ATOM      2  C   UNL     1      45.663   4.568  12.429  0.00  0.00    +0.000 A 
ATOM      3  C   UNL     1      46.763   5.097  13.118  0.00  0.00    +0.000 A 
ATOM      4  C   UNL     1      47.238   6.383  12.829  0.00  0.00    +0.000 A 
ATOM      5  C   UNL     1      46.617   7.112  11.807  0.00  0.00    +0.000 A 
ATOM      6  C   UNL     1      45.517   6.586  11.121  0.00  0.00    +0.000 A 
ENDROOT
BRANCH   1   7
ATOM      7  C   UNL     1      43.852   4.745  10.665  0.00  0.00    +0.000 C 
BRANCH   7  10
ATOM      8  C   UNL     1      45.046   3.876   8.693  0.00  0.00    +0.000 C 
ATOM      9  O   UNL     1      45.492   4.979   8.398  0.00  0.00    +0.000 OA
ATOM     10  N   UNL     1      44.224   3.663   9.776  0.00  0.00    +0.000 N 
ATOM     11  H   UNL     1      43.777   2.766   9.905  0.00  0.00    +0.000 HD
BRANCH   8  16
ATOM     12  C   UNL     1      46.808   2.685   7.331  0.00  0.00    +0.000 C 
ATOM     13  C   UNL     1      47.210   1.221   7.124  0.00  0.00    +0.000 C 
ATOM     14  C   UNL     1      46.319   0.393   8.046  0.00  0.00    +0.000 C 
ATOM     15  C   UNL     1      45.429   1.382   8.788  0.00  0.00    +0.000 C 
ATOM     16  C   UNL     1      45.384   2.623   7.898  0.00  0.00    +0.000 C 
BRANCH  12  18
ATOM     17  N   UNL     1      46.902   4.032   5.073  0.00  0.00    +0.000 NA
ATOM     18  C   UNL     1      46.872   3.448   6.078  0.00  0.00    +0.000 C 
ENDBRANCH  12  18
ENDBRANCH   8  16
ENDBRANCH   7  10
ENDBRANCH   1   7
BRANCH   4  19
ATOM     19  C   UNL     1      48.403   6.976  13.586  0.00  0.00    +0.000 C 
BRANCH  19  20
ATOM     20  N   UNL     1      48.165   6.986  15.007  0.00  0.00    +0.000 N 
ATOM     21  C   UNL     1      49.190   6.810  15.906  0.00  0.00    +0.000 C 
ATOM     22  O   UNL     1      50.359   6.687  15.550  0.00  0.00    +0.000 OA
ATOM     23  H   UNL     1      47.212   6.821  15.308  0.00  0.00    +0.000 HD
BRANCH  21  24
ATOM     24  C   UNL     1      48.820   6.848  17.327  0.00  0.00    +0.000 A 
ATOM     25  C   UNL     1      48.364   8.029  17.896  0.00  0.00    +0.000 A 
ATOM     26  S   UNL     1      47.927   7.872  19.538  0.00  0.00    +0.000 S 
ATOM     27  C   UNL     1      48.383   6.234  19.560  0.00  0.00    +0.000 A 
ATOM     28  N   UNL     1      48.285   5.493  20.698  0.00  0.00    +0.000 NA
ATOM     29  C   UNL     1      48.693   4.274  20.577  0.00  0.00    +0.000 A 
ATOM     30  N   UNL     1      49.180   3.726  19.423  0.00  0.00    +0.000 N 
ATOM     31  C   UNL     1      49.272   4.424  18.242  0.00  0.00    +0.000 A 
ATOM     32  O   UNL     1      49.668   3.887  17.214  0.00  0.00    +0.000 OA
ATOM     33  C   UNL     1      48.841   5.807  18.326  0.00  0.00    +0.000 A 
ATOM     34  H   UNL     1      49.474   2.761  19.389  0.00  0.00    +0.000 HD
ENDBRANCH  21  24
ENDBRANCH  19  20
ENDBRANCH   4  19
TORSDOF 7
ENDMDL
MODEL 5
REMARK VINA RESULT:    -6.888      5.241      9.931
REMARK INTER + INTRA:         -10.810
REMARK INTER:                  -9.702
REMARK INTRA:                  -1.108
REMARK UNBOUND:                -1.103
REMARK  Name = 
REMARK  7 active torsions:
REMARK  status: ('A' for Active; 'I' for Inactive)
REMARK    1  A    between atoms: C_2  and  C_3
REMARK    2  A    between atoms: C_7  and  C_8
REMARK    3  A    between atoms: N_10  and  C_11
REMARK    4  A    between atoms: C_11  and  C_12
REMARK    5  A    between atoms: C_15  and  C_16
REMARK    6  A    between atoms: C_16  and  N_17
REMARK    7  A    between atoms: C_18  and  C_20
REMARK                            x       y       z     vdW  Elec       q    Type
REMARK                         _______ _______ _______ _____ _____    ______ ____
ROOT
ATOM      1  C   UNL     1      45.102   4.324  11.827  0.00  0.00    +0.000 A 
ATOM      2  C   UNL     1      45.645   3.845  13.027  0.00  0.00    +0.000 A 
ATOM      3  C   UNL     1      46.619   4.581  13.715  0.00  0.00    +0.000 A 
ATOM      4  C   UNL     1      47.057   5.820  13.229  0.00  0.00    +0.000 A 
ATOM      5  C   UNL     1      46.529   6.287  12.018  0.00  0.00    +0.000 A 
ATOM      6  C   UNL     1      45.555   5.555  11.333  0.00  0.00    +0.000 A 
ENDROOT
BRANCH   1   7
ATOM      7  C   UNL     1      44.061   3.537  11.073  0.00  0.00    +0.000 C 
BRANCH   7  10
ATOM      8  C   UNL     1      44.701   3.095   8.735  0.00  0.00    +0.000 C 
ATOM      9  O   UNL     1      44.263   4.173   8.346  0.00  0.00    +0.000 OA
ATOM     10  N   UNL     1      44.636   2.689  10.048  0.00  0.00    +0.000 N 
ATOM     11  H   UNL     1      44.889   1.744  10.299  0.00  0.00    +0.000 HD
BRANCH   8  16
ATOM     12  C   UNL     1      46.802   2.575   7.433  0.00  0.00    +0.000 C 
ATOM     13  C   UNL     1      47.546   1.293   7.048  0.00  0.00    +0.000 C 
ATOM     14  C   UNL     1      46.794   0.140   7.708  0.00  0.00    +0.000 C 
ATOM     15  C   UNL     1      45.639   0.765   8.479  0.00  0.00    +0.000 C 
ATOM     16  C   UNL     1      45.386   2.110   7.800  0.00  0.00    +0.000 C 
BRANCH  12  18
ATOM     17  N   UNL     1      46.805   4.301   5.447  0.00  0.00    +0.000 NA
ATOM     18  C   UNL     1      46.797   3.551   6.336  0.00  0.00    +0.000 C 
ENDBRANCH  12  18
ENDBRANCH   8  16
ENDBRANCH   7  10
ENDBRANCH   1   7
BRANCH   4  19
ATOM     19  C   UNL     1      48.084   6.636  13.977  0.00  0.00    +0.000 C 
BRANCH  19  20
ATOM     20  N   UNL     1      47.962   6.469  15.402  0.00  0.00    +0.000 N 
ATOM     21  C   UNL     1      49.068   6.299  16.200  0.00  0.00    +0.000 C 
ATOM     22  O   UNL     1      50.211   6.332  15.751  0.00  0.00    +0.000 OA
ATOM     23  H   UNL     1      47.055   6.178  15.749  0.00  0.00    +0.000 HD
BRANCH  21  24
ATOM     24  C   UNL     1      48.813   6.146  17.639  0.00  0.00    +0.000 A 
ATOM     25  C   UNL     1      49.066   4.933  18.265  0.00  0.00    +0.000 A 
ATOM     26  S   UNL     1      48.767   4.956  19.945  0.00  0.00    +0.000 S 
ATOM     27  C   UNL     1      48.236   6.570  19.884  0.00  0.00    +0.000 A 
ATOM     28  N   UNL     1      47.801   7.210  21.005  0.00  0.00    +0.000 NA
ATOM     29  C   UNL     1      47.402   8.421  20.806  0.00  0.00    +0.000 A 
ATOM     30  N   UNL     1      47.406   9.055  19.595  0.00  0.00    +0.000 N 
ATOM     31  C   UNL     1      47.862   8.462  18.441  0.00  0.00    +0.000 A 
ATOM     32  O   UNL     1      47.896   9.077  17.381  0.00  0.00    +0.000 OA
ATOM     33  C   UNL     1      48.308   7.091  18.605  0.00  0.00    +0.000 A 
ATOM     34  H   UNL     1      47.090  10.009  19.506  0.00  0.00    +0.000 HD
ENDBRANCH  21  24
ENDBRANCH  19  20
ENDBRANCH   4  19
TORSDOF 7
ENDMDL
MODEL 6
REMARK VINA RESULT:    -6.587      4.323      6.859
REMARK INTER + INTRA:         -10.386
REMARK INTER:                  -9.115
REMARK INTRA:                  -1.270
REMARK UNBOUND:                -1.103
REMARK  Name = 
REMARK  7 active torsions:
REMARK  status: ('A' for Active; 'I' for Inactive)
REMARK    1  A    between atoms: C_2  and  C_3
REMARK    2  A    between atoms: C_7  and  C_8
REMARK    3  A    between atoms: N_10  and  C_11
REMARK    4  A    between atoms: C_11  and  C_12
REMARK    5  A    between atoms: C_15  and  C_16
REMARK    6  A    between atoms: C_16  and  N_17
REMARK    7  A    between atoms: C_18  and  C_20
REMARK                            x       y       z     vdW  Elec       q    Type
REMARK                         _______ _______ _______ _____ _____    ______ ____
ROOT
ATOM      1  C   UNL     1      47.978   7.572  14.109  0.00  0.00    +0.000 A 
ATOM      2  C   UNL     1      47.887   6.242  13.673  0.00  0.00    +0.000 A 
ATOM      3  C   UNL     1      46.946   5.870  12.704  0.00  0.00    +0.000 A 
ATOM      4  C   UNL     1      46.090   6.822  12.135  0.00  0.00    +0.000 A 
ATOM      5  C   UNL     1      46.167   8.145  12.587  0.00  0.00    +0.000 A 
ATOM      6  C   UNL     1      47.108   8.518  13.552  0.00  0.00    +0.000 A 
ENDROOT
BRANCH   1   7
ATOM      7  C   UNL     1      48.979   7.981  15.158  0.00  0.00    +0.000 C 
BRANCH   7  10
ATOM      8  C   UNL     1      48.875   6.798  17.317  0.00  0.00    +0.000 C 
ATOM      9  O   UNL     1      48.130   7.638  17.813  0.00  0.00    +0.000 OA
ATOM     10  N   UNL     1      49.354   6.887  16.030  0.00  0.00    +0.000 N 
ATOM     11  H   UNL     1      50.065   6.245  15.709  0.00  0.00    +0.000 HD
BRANCH   8  16
ATOM     12  C   UNL     1      49.173   4.292  17.220  0.00  0.00    +0.000 C 
ATOM     13  C   UNL     1      50.173   3.298  17.818  0.00  0.00    +0.000 C 
ATOM     14  C   UNL     1      51.213   4.127  18.567  0.00  0.00    +0.000 C 
ATOM     15  C   UNL     1      50.818   5.586  18.380  0.00  0.00    +0.000 C 
ATOM     16  C   UNL     1      49.321   5.557  18.076  0.00  0.00    +0.000 C 
BRANCH  12  18
ATOM     17  N   UNL     1      46.726   3.326  17.241  0.00  0.00    +0.000 NA
ATOM     18  C   UNL     1      47.803   3.765  17.244  0.00  0.00    +0.000 C 
ENDBRANCH  12  18
ENDBRANCH   8  16
ENDBRANCH   7  10
ENDBRANCH   1   7
BRANCH   4  19
ATOM     19  C   UNL     1      45.093   6.439  11.068  0.00  0.00    +0.000 C 
BRANCH  19  20
ATOM     20  N   UNL     1      45.453   5.205  10.419  0.00  0.00    +0.000 N 
ATOM     21  C   UNL     1      44.529   4.463   9.724  0.00  0.00    +0.000 C 
ATOM     22  O   UNL     1      43.367   4.836   9.577  0.00  0.00    +0.000 OA
ATOM     23  H   UNL     1      46.304   4.756  10.740  0.00  0.00    +0.000 HD
BRANCH  21  24
ATOM     24  C   UNL     1      45.022   3.228   9.102  0.00  0.00    +0.000 A 
ATOM     25  C   UNL     1      44.459   2.005   9.440  0.00  0.00    +0.000 A 
ATOM     26  S   UNL     1      45.116   0.688   8.578  0.00  0.00    +0.000 S 
ATOM     27  C   UNL     1      46.215   1.698   7.763  0.00  0.00    +0.000 A 
ATOM     28  N   UNL     1      47.111   1.189   6.872  0.00  0.00    +0.000 NA
ATOM     29  C   UNL     1      47.901   2.067   6.351  0.00  0.00    +0.000 A 
ATOM     30  N   UNL     1      47.874   3.405   6.629  0.00  0.00    +0.000 N 
ATOM     31  C   UNL     1      46.970   3.970   7.498  0.00  0.00    +0.000 A 
ATOM     32  O   UNL     1      46.942   5.181   7.688  0.00  0.00    +0.000 OA
ATOM     33  C   UNL     1      46.067   3.025   8.127  0.00  0.00    +0.000 A 
ATOM     34  H   UNL     1      48.512   4.044   6.180  0.00  0.00    +0.000 HD
ENDBRANCH  21  24
ENDBRANCH  19  20
ENDBRANCH   4  19
TORSDOF 7
ENDMDL
MODEL 7
REMARK VINA RESULT:    -6.552      1.663      2.527
REMARK INTER + INTRA:         -10.336
REMARK INTER:                  -9.065
REMARK INTRA:                  -1.271
REMARK UNBOUND:                -1.103
REMARK  Name = 
REMARK  7 active torsions:
REMARK  status: ('A' for Active; 'I' for Inactive)
REMARK    1  A    between atoms: C_2  and  C_3
REMARK    2  A    between atoms: C_7  and  C_8
REMARK    3  A    between atoms: N_10  and  C_11
REMARK    4  A    between atoms: C_11  and  C_12
REMARK    5  A    between atoms: C_15  and  C_16
REMARK    6  A    between atoms: C_16  and  N_17
REMARK    7  A    between atoms: C_18  and  C_20
REMARK                            x       y       z     vdW  Elec       q    Type
REMARK                         _______ _______ _______ _____ _____    ______ ____
ROOT
ATOM      1  C   UNL     1      51.532   3.322  17.804  0.00  0.00    +0.000 A 
ATOM      2  C   UNL     1      50.756   4.471  18.008  0.00  0.00    +0.000 A 
ATOM      3  C   UNL     1      49.390   4.475  17.700  0.00  0.00    +0.000 A 
ATOM      4  C   UNL     1      48.765   3.325  17.200  0.00  0.00    +0.000 A 
ATOM      5  C   UNL     1      49.546   2.184  16.976  0.00  0.00    +0.000 A 
ATOM      6  C   UNL     1      50.909   2.178  17.286  0.00  0.00    +0.000 A 
ENDROOT
BRANCH   1   7
ATOM      7  C   UNL     1      53.006   3.309  18.122  0.00  0.00    +0.000 C 
BRANCH   7  10
ATOM      8  C   UNL     1      54.994   1.866  17.940  0.00  0.00    +0.000 C 
ATOM      9  O   UNL     1      55.745   2.740  18.359  0.00  0.00    +0.000 OA
ATOM     10  N   UNL     1      53.641   2.054  17.777  0.00  0.00    +0.000 N 
ATOM     11  H   UNL     1      53.085   1.352  17.308  0.00  0.00    +0.000 HD
BRANCH   8  16
ATOM     12  C   UNL     1      54.543  -0.613  18.118  0.00  0.00    +0.000 C 
ATOM     13  C   UNL     1      54.790  -1.825  17.214  0.00  0.00    +0.000 C 
ATOM     14  C   UNL     1      55.387  -1.284  15.918  0.00  0.00    +0.000 C 
ATOM     15  C   UNL     1      55.462   0.229  16.076  0.00  0.00    +0.000 C 
ATOM     16  C   UNL     1      55.488   0.471  17.584  0.00  0.00    +0.000 C 
BRANCH  12  18
ATOM     17  N   UNL     1      55.022  -1.148  20.649  0.00  0.00    +0.000 NA
ATOM     18  C   UNL     1      54.801  -0.926  19.529  0.00  0.00    +0.000 C 
ENDBRANCH  12  18
ENDBRANCH   8  16
ENDBRANCH   7  10
ENDBRANCH   1   7
BRANCH   4  19
ATOM     19  C   UNL     1      47.287   3.307  16.893  0.00  0.00    +0.000 C 
BRANCH  19  20
ATOM     20  N   UNL     1      46.927   4.330  15.945  0.00  0.00    +0.000 N 
ATOM     21  C   UNL     1      46.991   4.106  14.591  0.00  0.00    +0.000 C 
ATOM     22  O   UNL     1      47.306   3.016  14.121  0.00  0.00    +0.000 OA
ATOM     23  H   UNL     1      46.924   5.284  16.287  0.00  0.00    +0.000 HD
BRANCH  21  24
ATOM     24  C   UNL     1      46.591   5.226  13.728  0.00  0.00    +0.000 A 
ATOM     25  C   UNL     1      45.414   5.154  12.994  0.00  0.00    +0.000 A 
ATOM     26  S   UNL     1      45.082   6.566  12.096  0.00  0.00    +0.000 S 
ATOM     27  C   UNL     1      46.526   7.302  12.613  0.00  0.00    +0.000 A 
ATOM     28  N   UNL     1      46.874   8.545  12.183  0.00  0.00    +0.000 NA
ATOM     29  C   UNL     1      48.009   8.967  12.633  0.00  0.00    +0.000 A 
ATOM     30  N   UNL     1      48.821   8.266  13.480  0.00  0.00    +0.000 N 
ATOM     31  C   UNL     1      48.499   7.020  13.965  0.00  0.00    +0.000 A 
ATOM     32  O   UNL     1      49.228   6.440  14.761  0.00  0.00    +0.000 OA
ATOM     33  C   UNL     1      47.240   6.490  13.477  0.00  0.00    +0.000 A 
ATOM     34  H   UNL     1      49.692   8.654  13.806  0.00  0.00    +0.000 HD
ENDBRANCH  21  24
ENDBRANCH  19  20
ENDBRANCH   4  19
TORSDOF 7
ENDMDL
MODEL 8
REMARK VINA RESULT:    -6.458      3.415      9.996
REMARK INTER + INTRA:         -10.204
REMARK INTER:                  -9.077
REMARK INTRA:                  -1.126
REMARK UNBOUND:                -1.103
REMARK  Name = 
REMARK  7 active torsions:
REMARK  status: ('A' for Active; 'I' for Inactive)
REMARK    1  A    between atoms: C_2  and  C_3
REMARK    2  A    between atoms: C_7  and  C_8
REMARK    3  A    between atoms: N_10  and  C_11
REMARK    4  A    between atoms: C_11  and  C_12
REMARK    5  A    between atoms: C_15  and  C_16
REMARK    6  A    between atoms: C_16  and  N_17
REMARK    7  A    between atoms: C_18  and  C_20
REMARK                            x       y       z     vdW  Elec       q    Type
REMARK                         _______ _______ _______ _____ _____    ______ ____
ROOT
ATOM      1  C   UNL     1      47.909   7.482  13.150  0.00  0.00    +0.000 A 
ATOM      2  C   UNL     1      47.918   6.334  13.955  0.00  0.00    +0.000 A 
ATOM      3  C   UNL     1      48.476   6.366  15.239  0.00  0.00    +0.000 A 
ATOM      4  C   UNL     1      49.019   7.550  15.755  0.00  0.00    +0.000 A 
ATOM      5  C   UNL     1      49.030   8.690  14.941  0.00  0.00    +0.000 A 
ATOM      6  C   UNL     1      48.470   8.660  13.660  0.00  0.00    +0.000 A 
ENDROOT
BRANCH   1   7
ATOM      7  C   UNL     1      47.321   7.456  11.762  0.00  0.00    +0.000 C 
BRANCH   7  10
ATOM      8  C   UNL     1      45.037   6.624  11.360  0.00  0.00    +0.000 C 
ATOM      9  O   UNL     1      44.562   7.755  11.332  0.00  0.00    +0.000 OA
ATOM     10  N   UNL     1      46.372   6.377  11.577  0.00  0.00    +0.000 N 
ATOM     11  H   UNL     1      46.695   5.430  11.721  0.00  0.00    +0.000 HD
BRANCH   8  16
ATOM     12  C   UNL     1      45.034   4.222  10.582  0.00  0.00    +0.000 C 
ATOM     13  C   UNL     1      44.260   2.958  10.973  0.00  0.00    +0.000 C 
ATOM     14  C   UNL     1      43.367   3.345  12.150  0.00  0.00    +0.000 C 
ATOM     15  C   UNL     1      43.645   4.814  12.438  0.00  0.00    +0.000 C 
ATOM     16  C   UNL     1      44.190   5.381  11.128  0.00  0.00    +0.000 C 
BRANCH  12  18
ATOM     17  N   UNL     1      45.366   4.355   7.975  0.00  0.00    +0.000 NA
ATOM     18  C   UNL     1      45.225   4.313   9.129  0.00  0.00    +0.000 C 
ENDBRANCH  12  18
ENDBRANCH   8  16
ENDBRANCH   7  10
ENDBRANCH   1   7
BRANCH   4  19
ATOM     19  C   UNL     1      49.596   7.605  17.149  0.00  0.00    +0.000 C 
BRANCH  19  20
ATOM     20  N   UNL     1      50.520   6.526  17.387  0.00  0.00    +0.000 N 
ATOM     21  C   UNL     1      50.631   5.937  18.623  0.00  0.00    +0.000 C 
ATOM     22  O   UNL     1      49.919   6.262  19.570  0.00  0.00    +0.000 OA
ATOM     23  H   UNL     1      51.279   6.425  16.723  0.00  0.00    +0.000 HD
BRANCH  21  24
ATOM     24  C   UNL     1      51.604   4.842  18.735  0.00  0.00    +0.000 A 
ATOM     25  C   UNL     1      52.781   5.027  19.447  0.00  0.00    +0.000 A 
ATOM     26  S   UNL     1      53.762   3.633  19.520  0.00  0.00    +0.000 S 
ATOM     27  C   UNL     1      52.675   2.749  18.556  0.00  0.00    +0.000 A 
ATOM     28  N   UNL     1      52.931   1.458  18.209  0.00  0.00    +0.000 NA
ATOM     29  C   UNL     1      52.034   0.921  17.452  0.00  0.00    +0.000 A 
ATOM     30  N   UNL     1      50.901   1.551  17.018  0.00  0.00    +0.000 N 
ATOM     31  C   UNL     1      50.583   2.843  17.365  0.00  0.00    +0.000 A 
ATOM     32  O   UNL     1      49.534   3.360  16.997  0.00  0.00    +0.000 OA
ATOM     33  C   UNL     1      51.568   3.501  18.203  0.00  0.00    +0.000 A 
ATOM     34  H   UNL     1      50.231   1.073  16.436  0.00  0.00    +0.000 HD
ENDBRANCH  21  24
ENDBRANCH  19  20
ENDBRANCH   4  19
TORSDOF 7
ENDMDL
MODEL 9
REMARK VINA RESULT:    -6.289      3.105      4.894
REMARK INTER + INTRA:          -9.966
REMARK INTER:                  -8.737
REMARK INTRA:                  -1.228
REMARK UNBOUND:                -1.103
REMARK  Name = 
REMARK  7 active torsions:
REMARK  status: ('A' for Active; 'I' for Inactive)
REMARK    1  A    between atoms: C_2  and  C_3
REMARK    2  A    between atoms: C_7  and  C_8
REMARK    3  A    between atoms: N_10  and  C_11
REMARK    4  A    between atoms: C_11  and  C_12
REMARK    5  A    between atoms: C_15  and  C_16
REMARK    6  A    between atoms: C_16  and  N_17
REMARK    7  A    between atoms: C_18  and  C_20
REMARK                            x       y       z     vdW  Elec       q    Type
REMARK                         _______ _______ _______ _____ _____    ______ ____
ROOT
ATOM      1  C   UNL     1      51.418   4.716  17.837  0.00  0.00    +0.000 A 
ATOM      2  C   UNL     1      50.468   5.684  17.483  0.00  0.00    +0.000 A 
ATOM      3  C   UNL     1      49.183   5.308  17.071  0.00  0.00    +0.000 A 
ATOM      4  C   UNL     1      48.813   3.957  17.023  0.00  0.00    +0.000 A 
ATOM      5  C   UNL     1      49.770   2.990  17.356  0.00  0.00    +0.000 A 
ATOM      6  C   UNL     1      51.052   3.365  17.771  0.00  0.00    +0.000 A 
ENDROOT
BRANCH   1   7
ATOM      7  C   UNL     1      52.807   5.109  18.272  0.00  0.00    +0.000 C 
BRANCH   7  10
ATOM      8  C   UNL     1      54.070   6.519  16.696  0.00  0.00    +0.000 C 
ATOM      9  O   UNL     1      54.570   5.552  16.132  0.00  0.00    +0.000 OA
ATOM     10  N   UNL     1      53.207   6.404  17.761  0.00  0.00    +0.000 N 
ATOM     11  H   UNL     1      52.924   7.226  18.275  0.00  0.00    +0.000 HD
BRANCH   8  16
ATOM     12  C   UNL     1      53.039   8.753  16.127  0.00  0.00    +0.000 C 
ATOM     13  C   UNL     1      53.468  10.215  16.287  0.00  0.00    +0.000 C 
ATOM     14  C   UNL     1      54.803  10.196  17.027  0.00  0.00    +0.000 C 
ATOM     15  C   UNL     1      55.122   8.733  17.302  0.00  0.00    +0.000 C 
ATOM     16  C   UNL     1      54.340   7.949  16.250  0.00  0.00    +0.000 C 
BRANCH  12  18
ATOM     17  N   UNL     1      51.819   8.368  13.828  0.00  0.00    +0.000 NA
ATOM     18  C   UNL     1      52.366   8.523  14.842  0.00  0.00    +0.000 C 
ENDBRANCH  12  18
ENDBRANCH   8  16
ENDBRANCH   7  10
ENDBRANCH   1   7
BRANCH   4  19
ATOM     19  C   UNL     1      47.422   3.541  16.609  0.00  0.00    +0.000 C 
BRANCH  19  20
ATOM     20  N   UNL     1      46.840   4.474  15.680  0.00  0.00    +0.000 N 
ATOM     21  C   UNL     1      46.799   4.212  14.332  0.00  0.00    +0.000 C 
ATOM     22  O   UNL     1      47.206   3.154  13.858  0.00  0.00    +0.000 OA
ATOM     23  H   UNL     1      46.746   5.432  15.998  0.00  0.00    +0.000 HD
BRANCH  21  24
ATOM     24  C   UNL     1      46.173   5.239  13.489  0.00  0.00    +0.000 A 
ATOM     25  C   UNL     1      46.827   6.442  13.258  0.00  0.00    +0.000 A 
ATOM     26  S   UNL     1      45.979   7.490  12.212  0.00  0.00    +0.000 S 
ATOM     27  C   UNL     1      44.684   6.396  12.075  0.00  0.00    +0.000 A 
ATOM     28  N   UNL     1      43.587   6.695  11.326  0.00  0.00    +0.000 NA
ATOM     29  C   UNL     1      42.671   5.786  11.336  0.00  0.00    +0.000 A 
ATOM     30  N   UNL     1      42.753   4.604  12.017  0.00  0.00    +0.000 N 
ATOM     31  C   UNL     1      43.850   4.244  12.763  0.00  0.00    +0.000 A 
ATOM     32  O   UNL     1      43.910   3.154  13.321  0.00  0.00    +0.000 OA
ATOM     33  C   UNL     1      44.906   5.239  12.800  0.00  0.00    +0.000 A 
ATOM     34  H   UNL     1      42.006   3.927  11.976  0.00  0.00    +0.000 HD
ENDBRANCH  21  24
ENDBRANCH  19  20
ENDBRANCH   4  19
TORSDOF 7
ENDMDL
