MODEL 1
REMARK VINA RESULT:    -8.239      0.000      0.000
REMARK INTER + INTRA:         -13.276
REMARK INTER:                 -12.092
REMARK INTRA:                  -1.184
REMARK UNBOUND:                -1.184
REMARK  Name = 
REMARK  10 active torsions:
REMARK  status: ('A' for Active; 'I' for Inactive)
REMARK    1  A    between atoms: C_1  and  O_2
REMARK    2  A    between atoms: O_2  and  C_3
REMARK    3  A    between atoms: C_10  and  C_11
REMARK    4  A    between atoms: N_13  and  C_14
REMARK    5  A    between atoms: C_14  and  C_15
REMARK    6  A    between atoms: C_18  and  C_19
REMARK    7  A    between atoms: C_19  and  N_20
REMARK    8  A    between atoms: N_20  and  C_21
REMARK    9  A    between atoms: C_21  and  C_22
REMARK   10  A    between atoms: C_21  and  C_23
REMARK                            x       y       z     vdW  Elec       q    Type
REMARK                         _______ _______ _______ _____ _____    ______ ____
ROOT
ATOM      1  C   UNL     1      47.398   6.090  14.034  0.00  0.00    +0.000 A 
ATOM      2  C   UNL     1      46.758   6.584  12.892  0.00  0.00    +0.000 A 
ATOM      3  C   UNL     1      45.879   5.778  12.162  0.00  0.00    +0.000 A 
ATOM      4  C   UNL     1      45.618   4.457  12.556  0.00  0.00    +0.000 A 
ATOM      5  C   UNL     1      46.272   3.957  13.690  0.00  0.00    +0.000 A 
ATOM      6  C   UNL     1      47.150   4.766  14.424  0.00  0.00    +0.000 A 
ENDROOT
BRANCH   1   7
ATOM      7  C   UNL     1      48.308   6.980  14.839  0.00  0.00    +0.000 C 
BRANCH   7  10
ATOM      8  C   UNL     1      49.405   5.923  16.755  0.00  0.00    +0.000 C 
ATOM      9  O   UNL     1      48.467   6.256  17.479  0.00  0.00    +0.000 OA
ATOM     10  N   UNL     1      49.408   6.243  15.423  0.00  0.00    +0.000 N 
ATOM     11  H   UNL     1      50.160   5.937  14.818  0.00  0.00    +0.000 HD
BRANCH   8  19
ATOM     12  C   UNL     1      50.199   2.567  17.001  0.00  0.00    +0.000 A 
ATOM     13  N   UNL     1      50.762   1.360  17.218  0.00  0.00    +0.000 NA
ATOM     14  C   UNL     1      51.964   1.318  17.801  0.00  0.00    +0.000 A 
ATOM     15  N   UNL     1      52.691   2.354  18.203  0.00  0.00    +0.000 NA
ATOM     16  C   UNL     1      52.094   3.535  17.976  0.00  0.00    +0.000 A 
ATOM     17  S   UNL     1      52.882   4.966  18.435  0.00  0.00    +0.000 S 
ATOM     18  C   UNL     1      51.597   5.913  17.857  0.00  0.00    +0.000 A 
ATOM     19  C   UNL     1      50.553   5.178  17.303  0.00  0.00    +0.000 A 
ATOM     20  C   UNL     1      50.851   3.751  17.383  0.00  0.00    +0.000 A 
BRANCH  12  22
ATOM     21  C   UNL     1      47.899   2.696  17.386  0.00  0.00    +0.000 C 
ATOM     22  O   UNL     1      48.947   2.606  16.421  0.00  0.00    +0.000 OA
ENDBRANCH  12  22
ENDBRANCH   8  19
ENDBRANCH   7  10
ENDBRANCH   1   7
BRANCH   4  23
ATOM     23  C   UNL     1      44.598   3.623  11.808  0.00  0.00    +0.000 C 
BRANCH  23  24
ATOM     24  N   UNL     1      45.218   2.828  10.750  0.00  0.00    +0.000 NA
ATOM     25  H   UNL     1      45.152   1.842  11.008  0.00  0.00    +0.000 HD
BRANCH  24  26
ATOM     26  C   UNL     1      44.591   2.993   9.431  0.00  0.00    +0.000 C 
ATOM     27  C   UNL     1      44.089   4.425   9.177  0.00  0.00    +0.000 C 
BRANCH  26  28
ATOM     28  C   UNL     1      45.578   2.608   8.335  0.00  0.00    +0.000 A 
ATOM     29  C   UNL     1      45.965   3.538   7.359  0.00  0.00    +0.000 A 
ATOM     30  C   UNL     1      46.887   3.187   6.367  0.00  0.00    +0.000 A 
ATOM     31  C   UNL     1      47.430   1.904   6.336  0.00  0.00    +0.000 A 
ATOM     32  C   UNL     1      47.057   0.970   7.299  0.00  0.00    +0.000 A 
ATOM     33  C   UNL     1      46.135   1.317   8.288  0.00  0.00    +0.000 A 
ENDBRANCH  26  28
ENDBRANCH  24  26
ENDBRANCH  23  24
ENDBRANCH   4  23
TORSDOF 8
ENDMDL
MODEL 2
REMARK VINA RESULT:    -8.004      2.578      3.804
REMARK INTER + INTRA:         -12.931
REMARK INTER:                 -11.731
REMARK INTRA:                  -1.200
REMARK UNBOUND:                -1.184
REMARK  Name = 
REMARK  10 active torsions:
REMARK  status: ('A' for Active; 'I' for Inactive)
REMARK    1  A    between atoms: C_1  and  O_2
REMARK    2  A    between atoms: O_2  and  C_3
REMARK    3  A    between atoms: C_10  and  C_11
REMARK    4  A    between atoms: N_13  and  C_14
REMARK    5  A    between atoms: C_14  and  C_15
REMARK    6  A    between atoms: C_18  and  C_19
REMARK    7  A    between atoms: C_19  and  N_20
REMARK    8  A    between atoms: N_20  and  C_21
REMARK    9  A    between atoms: C_21  and  C_22
REMARK   10  A    between atoms: C_21  and  C_23
REMARK                            x       y       z     vdW  Elec       q    Type
REMARK                         _______ _______ _______ _____ _____    ______ ____
ROOT
ATOM      1  C   UNL     1      46.880   6.273  12.893  0.00  0.00    +0.000 A 
ATOM      2  C   UNL     1      45.905   5.409  13.403  0.00  0.00    +0.000 A 
ATOM      3  C   UNL     1      44.847   4.973  12.599  0.00  0.00    +0.000 A 
ATOM      4  C   UNL     1      44.738   5.391  11.264  0.00  0.00    +0.000 A 
ATOM      5  C   UNL     1      45.706   6.269  10.758  0.00  0.00    +0.000 A 
ATOM      6  C   UNL     1      46.768   6.703  11.563  0.00  0.00    +0.000 A 
ENDROOT
BRANCH   1   7
ATOM      7  C   UNL     1      48.039   6.701  13.753  0.00  0.00    +0.000 C 
BRANCH   7  10
ATOM      8  C   UNL     1      48.938   6.251  15.986  0.00  0.00    +0.000 C 
ATOM      9  O   UNL     1      50.065   6.553  15.596  0.00  0.00    +0.000 OA
ATOM     10  N   UNL     1      47.867   6.296  15.132  0.00  0.00    +0.000 N 
ATOM     11  H   UNL     1      46.934   6.085  15.461  0.00  0.00    +0.000 HD
BRANCH   8  19
ATOM     12  C   UNL     1      47.917   7.875  18.863  0.00  0.00    +0.000 A 
ATOM     13  N   UNL     1      47.540   8.236  20.107  0.00  0.00    +0.000 NA
ATOM     14  C   UNL     1      47.506   7.295  21.055  0.00  0.00    +0.000 A 
ATOM     15  N   UNL     1      47.806   6.010  20.915  0.00  0.00    +0.000 NA
ATOM     16  C   UNL     1      48.183   5.692  19.665  0.00  0.00    +0.000 A 
ATOM     17  S   UNL     1      48.611   4.089  19.309  0.00  0.00    +0.000 S 
ATOM     18  C   UNL     1      48.925   4.485  17.688  0.00  0.00    +0.000 A 
ATOM     19  C   UNL     1      48.711   5.825  17.378  0.00  0.00    +0.000 A 
ATOM     20  C   UNL     1      48.274   6.548  18.569  0.00  0.00    +0.000 A 
BRANCH  12  22
ATOM     21  C   UNL     1      47.704  10.156  18.407  0.00  0.00    +0.000 C 
ATOM     22  O   UNL     1      47.977   8.853  17.891  0.00  0.00    +0.000 OA
ENDBRANCH  12  22
ENDBRANCH   8  19
ENDBRANCH   7  10
ENDBRANCH   1   7
BRANCH   4  23
ATOM     23  C   UNL     1      43.638   4.843  10.378  0.00  0.00    +0.000 C 
BRANCH  23  24
ATOM     24  N   UNL     1      44.173   4.217   9.171  0.00  0.00    +0.000 NA
ATOM     25  H   UNL     1      44.779   4.892   8.701  0.00  0.00    +0.000 HD
BRANCH  24  26
ATOM     26  C   UNL     1      44.961   3.002   9.425  0.00  0.00    +0.000 C 
ATOM     27  C   UNL     1      44.091   1.778   9.759  0.00  0.00    +0.000 C 
BRANCH  26  28
ATOM     28  C   UNL     1      45.828   2.683   8.213  0.00  0.00    +0.000 A 
ATOM     29  C   UNL     1      46.076   3.656   7.233  0.00  0.00    +0.000 A 
ATOM     30  C   UNL     1      46.889   3.365   6.131  0.00  0.00    +0.000 A 
ATOM     31  C   UNL     1      47.460   2.102   5.995  0.00  0.00    +0.000 A 
ATOM     32  C   UNL     1      47.224   1.126   6.960  0.00  0.00    +0.000 A 
ATOM     33  C   UNL     1      46.411   1.412   8.058  0.00  0.00    +0.000 A 
ENDBRANCH  26  28
ENDBRANCH  24  26
ENDBRANCH  23  24
ENDBRANCH   4  23
TORSDOF 8
ENDMDL
MODEL 3
REMARK VINA RESULT:    -7.976      2.382      3.033
REMARK INTER + INTRA:         -12.890
REMARK INTER:                 -11.655
REMARK INTRA:                  -1.234
REMARK UNBOUND:                -1.184
REMARK  Name = 
REMARK  10 active torsions:
REMARK  status: ('A' for Active; 'I' for Inactive)
REMARK    1  A    between atoms: C_1  and  O_2
REMARK    2  A    between atoms: O_2  and  C_3
REMARK    3  A    between atoms: C_10  and  C_11
REMARK    4  A    between atoms: N_13  and  C_14
REMARK    5  A    between atoms: C_14  and  C_15
REMARK    6  A    between atoms: C_18  and  C_19
REMARK    7  A    between atoms: C_19  and  N_20
REMARK    8  A    between atoms: N_20  and  C_21
REMARK    9  A    between atoms: C_21  and  C_22
REMARK   10  A    between atoms: C_21  and  C_23
REMARK                            x       y       z     vdW  Elec       q    Type
REMARK                         _______ _______ _______ _____ _____    ______ ____
ROOT
ATOM      1  C   UNL     1      47.161   6.284  12.913  0.00  0.00    +0.000 A 
ATOM      2  C   UNL     1      46.396   5.193  13.339  0.00  0.00    +0.000 A 
ATOM      3  C   UNL     1      45.285   4.769  12.604  0.00  0.00    +0.000 A 
ATOM      4  C   UNL     1      44.912   5.426  11.421  0.00  0.00    +0.000 A 
ATOM      5  C   UNL     1      45.669   6.529  11.003  0.00  0.00    +0.000 A 
ATOM      6  C   UNL     1      46.784   6.952  11.739  0.00  0.00    +0.000 A 
ENDROOT
BRANCH   1   7
ATOM      7  C   UNL     1      48.381   6.704  13.689  0.00  0.00    +0.000 C 
BRANCH   7  10
ATOM      8  C   UNL     1      49.004   6.702  16.056  0.00  0.00    +0.000 C 
ATOM      9  O   UNL     1      50.112   6.251  15.767  0.00  0.00    +0.000 OA
ATOM     10  N   UNL     1      48.076   6.958  15.081  0.00  0.00    +0.000 N 
ATOM     11  H   UNL     1      47.179   7.363  15.313  0.00  0.00    +0.000 HD
BRANCH   8  19
ATOM     12  C   UNL     1      48.839   4.758  18.911  0.00  0.00    +0.000 A 
ATOM     13  N   UNL     1      48.698   4.257  20.156  0.00  0.00    +0.000 NA
ATOM     14  C   UNL     1      48.320   5.087  21.132  0.00  0.00    +0.000 A 
ATOM     15  N   UNL     1      48.060   6.384  21.020  0.00  0.00    +0.000 NA
ATOM     16  C   UNL     1      48.204   6.842  19.766  0.00  0.00    +0.000 A 
ATOM     17  S   UNL     1      47.904   8.480  19.441  0.00  0.00    +0.000 S 
ATOM     18  C   UNL     1      48.278   8.269  17.798  0.00  0.00    +0.000 A 
ATOM     19  C   UNL     1      48.641   6.969  17.460  0.00  0.00    +0.000 A 
ATOM     20  C   UNL     1      48.588   6.114  18.642  0.00  0.00    +0.000 A 
BRANCH  12  22
ATOM     21  C   UNL     1      48.084   3.246  17.298  0.00  0.00    +0.000 C 
ATOM     22  O   UNL     1      49.206   3.894  17.899  0.00  0.00    +0.000 OA
ENDBRANCH  12  22
ENDBRANCH   8  19
ENDBRANCH   7  10
ENDBRANCH   1   7
BRANCH   4  23
ATOM     23  C   UNL     1      43.760   4.905  10.587  0.00  0.00    +0.000 C 
BRANCH  23  24
ATOM     24  N   UNL     1      44.222   4.301   9.339  0.00  0.00    +0.000 NA
ATOM     25  H   UNL     1      44.838   4.967   8.869  0.00  0.00    +0.000 HD
BRANCH  24  26
ATOM     26  C   UNL     1      44.968   3.047   9.521  0.00  0.00    +0.000 C 
ATOM     27  C   UNL     1      44.057   1.838   9.795  0.00  0.00    +0.000 C 
BRANCH  26  28
ATOM     28  C   UNL     1      45.816   2.764   8.286  0.00  0.00    +0.000 A 
ATOM     29  C   UNL     1      46.068   3.772   7.343  0.00  0.00    +0.000 A 
ATOM     30  C   UNL     1      46.863   3.514   6.222  0.00  0.00    +0.000 A 
ATOM     31  C   UNL     1      47.413   2.249   6.027  0.00  0.00    +0.000 A 
ATOM     32  C   UNL     1      47.173   1.238   6.955  0.00  0.00    +0.000 A 
ATOM     33  C   UNL     1      46.377   1.492   8.073  0.00  0.00    +0.000 A 
ENDBRANCH  26  28
ENDBRANCH  24  26
ENDBRANCH  23  24
ENDBRANCH   4  23
TORSDOF 8
ENDMDL
MODEL 4
REMARK VINA RESULT:    -7.309      3.847      8.568
REMARK INTER + INTRA:         -11.911
REMARK INTER:                 -10.022
REMARK INTRA:                  -1.889
REMARK UNBOUND:                -1.184
REMARK  Name = 
REMARK  10 active torsions:
REMARK  status: ('A' for Active; 'I' for Inactive)
REMARK    1  A    between atoms: C_1  and  O_2
REMARK    2  A    between atoms: O_2  and  C_3
REMARK    3  A    between atoms: C_10  and  C_11
REMARK    4  A    between atoms: N_13  and  C_14
REMARK    5  A    between atoms: C_14  and  C_15
REMARK    6  A    between atoms: C_18  and  C_19
REMARK    7  A    between atoms: C_19  and  N_20
REMARK    8  A    between atoms: N_20  and  C_21
REMARK    9  A    between atoms: C_21  and  C_22
REMARK   10  A    between atoms: C_21  and  C_23
REMARK                            x       y       z     vdW  Elec       q    Type
REMARK                         _______ _______ _______ _____ _____    ______ ____
ROOT
ATOM      1  C   UNL     1      48.513   8.077  13.286  0.00  0.00    +0.000 A 
ATOM      2  C   UNL     1      48.156   9.197  14.047  0.00  0.00    +0.000 A 
ATOM      3  C   UNL     1      48.269   9.179  15.441  0.00  0.00    +0.000 A 
ATOM      4  C   UNL     1      48.744   8.040  16.109  0.00  0.00    +0.000 A 
ATOM      5  C   UNL     1      49.086   6.913  15.349  0.00  0.00    +0.000 A 
ATOM      6  C   UNL     1      48.975   6.933  13.952  0.00  0.00    +0.000 A 
ENDROOT
BRANCH   1   7
ATOM      7  C   UNL     1      48.429   8.123  11.784  0.00  0.00    +0.000 C 
BRANCH   7  10
ATOM      8  C   UNL     1      46.365   6.910  11.272  0.00  0.00    +0.000 C 
ATOM      9  O   UNL     1      45.703   7.829  11.753  0.00  0.00    +0.000 OA
ATOM     10  N   UNL     1      47.734   6.974  11.246  0.00  0.00    +0.000 N 
ATOM     11  H   UNL     1      48.278   6.236  10.816  0.00  0.00    +0.000 HD
BRANCH   8  19
ATOM     12  C   UNL     1      44.477   4.356  12.637  0.00  0.00    +0.000 A 
ATOM     13  N   UNL     1      43.722   3.266  12.887  0.00  0.00    +0.000 NA
ATOM     14  C   UNL     1      43.388   2.479  11.860  0.00  0.00    +0.000 A 
ATOM     15  N   UNL     1      43.719   2.649  10.585  0.00  0.00    +0.000 NA
ATOM     16  C   UNL     1      44.476   3.739  10.380  0.00  0.00    +0.000 A 
ATOM     17  S   UNL     1      44.996   4.104   8.807  0.00  0.00    +0.000 S 
ATOM     18  C   UNL     1      45.811   5.491   9.349  0.00  0.00    +0.000 A 
ATOM     19  C   UNL     1      45.706   5.714  10.718  0.00  0.00    +0.000 A 
ATOM     20  C   UNL     1      44.910   4.656  11.335  0.00  0.00    +0.000 A 
BRANCH  12  22
ATOM     21  C   UNL     1      46.117   4.799  14.241  0.00  0.00    +0.000 C 
ATOM     22  O   UNL     1      44.843   5.153  13.704  0.00  0.00    +0.000 OA
ENDBRANCH  12  22
ENDBRANCH   8  19
ENDBRANCH   7  10
ENDBRANCH   1   7
BRANCH   4  23
ATOM     23  C   UNL     1      48.944   8.063  17.610  0.00  0.00    +0.000 C 
BRANCH  23  24
ATOM     24  N   UNL     1      47.872   7.360  18.312  0.00  0.00    +0.000 NA
ATOM     25  H   UNL     1      47.251   6.945  17.616  0.00  0.00    +0.000 HD
BRANCH  24  26
ATOM     26  C   UNL     1      48.341   6.284  19.198  0.00  0.00    +0.000 C 
ATOM     27  C   UNL     1      47.419   6.053  20.407  0.00  0.00    +0.000 C 
BRANCH  26  28
ATOM     28  C   UNL     1      48.469   4.984  18.412  0.00  0.00    +0.000 A 
ATOM     29  C   UNL     1      47.335   4.354  17.879  0.00  0.00    +0.000 A 
ATOM     30  C   UNL     1      47.458   3.172  17.141  0.00  0.00    +0.000 A 
ATOM     31  C   UNL     1      48.714   2.605  16.929  0.00  0.00    +0.000 A 
ATOM     32  C   UNL     1      49.849   3.219  17.450  0.00  0.00    +0.000 A 
ATOM     33  C   UNL     1      49.728   4.397  18.190  0.00  0.00    +0.000 A 
ENDBRANCH  26  28
ENDBRANCH  24  26
ENDBRANCH  23  24
ENDBRANCH   4  23
TORSDOF 8
ENDMDL
MODEL 5
REMARK VINA RESULT:    -7.125      2.154      2.809
REMARK INTER + INTRA:         -11.641
REMARK INTER:                 -10.462
REMARK INTRA:                  -1.180
REMARK UNBOUND:                -1.184
REMARK  Name = 
REMARK  10 active torsions:
REMARK  status: ('A' for Active; 'I' for Inactive)
REMARK    1  A    between atoms: C_1  and  O_2
REMARK    2  A    between atoms: O_2  and  C_3
REMARK    3  A    between atoms: C_10  and  C_11
REMARK    4  A    between atoms: N_13  and  C_14
REMARK    5  A    between atoms: C_14  and  C_15
REMARK    6  A    between atoms: C_18  and  C_19
REMARK    7  A    between atoms: C_19  and  N_20
REMARK    8  A    between atoms: N_20  and  C_21
REMARK    9  A    between atoms: C_21  and  C_22
REMARK   10  A    between atoms: C_21  and  C_23
REMARK                            x       y       z     vdW  Elec       q    Type
REMARK                         _______ _______ _______ _____ _____    ______ ____
ROOT
ATOM      1  C   UNL     1      47.683   7.884  12.747  0.00  0.00    +0.000 A 
ATOM      2  C   UNL     1      46.483   8.391  13.259  0.00  0.00    +0.000 A 
ATOM      3  C   UNL     1      45.252   7.912  12.801  0.00  0.00    +0.000 A 
ATOM      4  C   UNL     1      45.189   6.910  11.820  0.00  0.00    +0.000 A 
ATOM      5  C   UNL     1      46.390   6.414  11.296  0.00  0.00    +0.000 A 
ATOM      6  C   UNL     1      47.624   6.892  11.757  0.00  0.00    +0.000 A 
ENDROOT
BRANCH   1   7
ATOM      7  C   UNL     1      49.002   8.376  13.278  0.00  0.00    +0.000 C 
BRANCH   7  10
ATOM      8  C   UNL     1      49.207   8.383  15.718  0.00  0.00    +0.000 C 
ATOM      9  O   UNL     1      48.766   9.531  15.754  0.00  0.00    +0.000 OA
ATOM     10  N   UNL     1      49.359   7.729  14.523  0.00  0.00    +0.000 N 
ATOM     11  H   UNL     1      49.686   6.772  14.495  0.00  0.00    +0.000 HD
BRANCH   8  19
ATOM     12  C   UNL     1      48.738   5.173  16.913  0.00  0.00    +0.000 A 
ATOM     13  N   UNL     1      48.716   4.019  17.611  0.00  0.00    +0.000 NA
ATOM     14  C   UNL     1      49.323   3.987  18.801  0.00  0.00    +0.000 A 
ATOM     15  N   UNL     1      49.967   4.986  19.394  0.00  0.00    +0.000 NA
ATOM     16  C   UNL     1      49.961   6.118  18.671  0.00  0.00    +0.000 A 
ATOM     17  S   UNL     1      50.732   7.499  19.284  0.00  0.00    +0.000 S 
ATOM     18  C   UNL     1      50.314   8.400  17.907  0.00  0.00    +0.000 A 
ATOM     19  C   UNL     1      49.593   7.684  16.956  0.00  0.00    +0.000 A 
ATOM     20  C   UNL     1      49.375   6.317  17.422  0.00  0.00    +0.000 A 
BRANCH  12  22
ATOM     21  C   UNL     1      47.242   4.078  15.491  0.00  0.00    +0.000 C 
ATOM     22  O   UNL     1      48.088   5.210  15.696  0.00  0.00    +0.000 OA
ENDBRANCH  12  22
ENDBRANCH   8  19
ENDBRANCH   7  10
ENDBRANCH   1   7
BRANCH   4  23
ATOM     23  C   UNL     1      43.853   6.337  11.396  0.00  0.00    +0.000 C 
BRANCH  23  24
ATOM     24  N   UNL     1      43.988   5.426  10.262  0.00  0.00    +0.000 NA
ATOM     25  H   UNL     1      44.630   5.846   9.587  0.00  0.00    +0.000 HD
BRANCH  24  26
ATOM     26  C   UNL     1      44.510   4.099  10.618  0.00  0.00    +0.000 C 
ATOM     27  C   UNL     1      43.415   3.128  11.093  0.00  0.00    +0.000 C 
BRANCH  26  28
ATOM     28  C   UNL     1      45.234   3.489   9.424  0.00  0.00    +0.000 A 
ATOM     29  C   UNL     1      45.364   2.097   9.298  0.00  0.00    +0.000 A 
ATOM     30  C   UNL     1      46.012   1.540   8.190  0.00  0.00    +0.000 A 
ATOM     31  C   UNL     1      46.539   2.365   7.198  0.00  0.00    +0.000 A 
ATOM     32  C   UNL     1      46.418   3.748   7.308  0.00  0.00    +0.000 A 
ATOM     33  C   UNL     1      45.775   4.306   8.415  0.00  0.00    +0.000 A 
ENDBRANCH  26  28
ENDBRANCH  24  26
ENDBRANCH  23  24
ENDBRANCH   4  23
TORSDOF 8
ENDMDL
MODEL 6
REMARK VINA RESULT:    -7.070      3.639      9.182
REMARK INTER + INTRA:         -11.561
REMARK INTER:                 -10.050
REMARK INTRA:                  -1.511
REMARK UNBOUND:                -1.184
REMARK  Name = 
REMARK  10 active torsions:
REMARK  status: ('A' for Active; 'I' for Inactive)
REMARK    1  A    between atoms: C_1  and  O_2
REMARK    2  A    between atoms: O_2  and  C_3
REMARK    3  A    between atoms: C_10  and  C_11
REMARK    4  A    between atoms: N_13  and  C_14
REMARK    5  A    between atoms: C_14  and  C_15
REMARK    6  A    between atoms: C_18  and  C_19
REMARK    7  A    between atoms: C_19  and  N_20
REMARK    8  A    between atoms: N_20  and  C_21
REMARK    9  A    between atoms: C_21  and  C_22
REMARK   10  A    between atoms: C_21  and  C_23
REMARK                            x       y       z     vdW  Elec       q    Type
REMARK                         _______ _______ _______ _____ _____    ______ ____
ROOT
ATOM      1  C   UNL     1      48.676   3.305  17.134  0.00  0.00    +0.000 A 
ATOM      2  C   UNL     1      49.361   2.117  16.853  0.00  0.00    +0.000 A 
ATOM      3  C   UNL     1      50.723   1.993  17.141  0.00  0.00    +0.000 A 
ATOM      4  C   UNL     1      51.436   3.054  17.719  0.00  0.00    +0.000 A 
ATOM      5  C   UNL     1      50.755   4.249  17.985  0.00  0.00    +0.000 A 
ATOM      6  C   UNL     1      49.389   4.373  17.700  0.00  0.00    +0.000 A 
ENDROOT
BRANCH   1   7
ATOM      7  C   UNL     1      47.200   3.413  16.862  0.00  0.00    +0.000 C 
BRANCH   7  10
ATOM      8  C   UNL     1      46.924   4.236  14.573  0.00  0.00    +0.000 C 
ATOM      9  O   UNL     1      47.203   3.121  14.135  0.00  0.00    +0.000 OA
ATOM     10  N   UNL     1      46.899   4.472  15.922  0.00  0.00    +0.000 N 
ATOM     11  H   UNL     1      46.633   5.379  16.285  0.00  0.00    +0.000 HD
BRANCH   8  19
ATOM     12  C   UNL     1      44.151   5.129  12.711  0.00  0.00    +0.000 A 
ATOM     13  N   UNL     1      43.236   5.712  11.908  0.00  0.00    +0.000 NA
ATOM     14  C   UNL     1      43.570   6.849  11.291  0.00  0.00    +0.000 A 
ATOM     15  N   UNL     1      44.728   7.493  11.378  0.00  0.00    +0.000 NA
ATOM     16  C   UNL     1      45.613   6.877  12.180  0.00  0.00    +0.000 A 
ATOM     17  S   UNL     1      47.150   7.561  12.399  0.00  0.00    +0.000 S 
ATOM     18  C   UNL     1      47.609   6.305  13.446  0.00  0.00    +0.000 A 
ATOM     19  C   UNL     1      46.618   5.351  13.658  0.00  0.00    +0.000 A 
ATOM     20  C   UNL     1      45.425   5.693  12.890  0.00  0.00    +0.000 A 
BRANCH  12  22
ATOM     21  C   UNL     1      43.718   2.853  12.406  0.00  0.00    +0.000 C 
ATOM     22  O   UNL     1      43.813   3.941  13.327  0.00  0.00    +0.000 OA
ENDBRANCH  12  22
ENDBRANCH   8  19
ENDBRANCH   7  10
ENDBRANCH   1   7
BRANCH   4  23
ATOM     23  C   UNL     1      52.890   2.877  18.106  0.00  0.00    +0.000 C 
BRANCH  23  24
ATOM     24  N   UNL     1      53.531   4.156  18.409  0.00  0.00    +0.000 NA
ATOM     25  H   UNL     1      53.750   4.176  19.407  0.00  0.00    +0.000 HD
BRANCH  24  26
ATOM     26  C   UNL     1      54.778   4.392  17.667  0.00  0.00    +0.000 C 
ATOM     27  C   UNL     1      55.341   3.117  17.015  0.00  0.00    +0.000 C 
BRANCH  26  28
ATOM     28  C   UNL     1      54.548   5.445  16.589  0.00  0.00    +0.000 A 
ATOM     29  C   UNL     1      55.444   5.583  15.518  0.00  0.00    +0.000 A 
ATOM     30  C   UNL     1      55.219   6.537  14.521  0.00  0.00    +0.000 A 
ATOM     31  C   UNL     1      54.100   7.365  14.581  0.00  0.00    +0.000 A 
ATOM     32  C   UNL     1      53.201   7.239  15.636  0.00  0.00    +0.000 A 
ATOM     33  C   UNL     1      53.425   6.290  16.635  0.00  0.00    +0.000 A 
ENDBRANCH  26  28
ENDBRANCH  24  26
ENDBRANCH  23  24
ENDBRANCH   4  23
TORSDOF 8
ENDMDL
MODEL 7
REMARK VINA RESULT:    -7.027      2.185      3.006
REMARK INTER + INTRA:         -11.497
REMARK INTER:                 -10.436
REMARK INTRA:                  -1.061
REMARK UNBOUND:                -1.184
REMARK  Name = 
REMARK  10 active torsions:
REMARK  status: ('A' for Active; 'I' for Inactive)
REMARK    1  A    between atoms: C_1  and  O_2
REMARK    2  A    between atoms: O_2  and  C_3
REMARK    3  A    between atoms: C_10  and  C_11
REMARK    4  A    between atoms: N_13  and  C_14
REMARK    5  A    between atoms: C_14  and  C_15
REMARK    6  A    between atoms: C_18  and  C_19
REMARK    7  A    between atoms: C_19  and  N_20
REMARK    8  A    between atoms: N_20  and  C_21
REMARK    9  A    between atoms: C_21  and  C_22
REMARK   10  A    between atoms: C_21  and  C_23
REMARK                            x       y       z     vdW  Elec       q    Type
REMARK                         _______ _______ _______ _____ _____    ______ ____
ROOT
ATOM      1  C   UNL     1      46.624   6.966  13.194  0.00  0.00    +0.000 A 
ATOM      2  C   UNL     1      45.445   7.194  12.474  0.00  0.00    +0.000 A 
ATOM      3  C   UNL     1      44.690   6.125  11.984  0.00  0.00    +0.000 A 
ATOM      4  C   UNL     1      45.093   4.799  12.203  0.00  0.00    +0.000 A 
ATOM      5  C   UNL     1      46.283   4.571  12.909  0.00  0.00    +0.000 A 
ATOM      6  C   UNL     1      47.038   5.643  13.402  0.00  0.00    +0.000 A 
ENDROOT
BRANCH   1   7
ATOM      7  C   UNL     1      47.406   8.124  13.755  0.00  0.00    +0.000 C 
BRANCH   7  10
ATOM      8  C   UNL     1      49.805   8.515  14.046  0.00  0.00    +0.000 C 
ATOM      9  O   UNL     1      49.703   9.595  13.466  0.00  0.00    +0.000 OA
ATOM     10  N   UNL     1      48.709   7.715  14.234  0.00  0.00    +0.000 N 
ATOM     11  H   UNL     1      48.785   6.844  14.745  0.00  0.00    +0.000 HD
BRANCH   8  19
ATOM     12  C   UNL     1      50.795   6.529  16.697  0.00  0.00    +0.000 A 
ATOM     13  N   UNL     1      51.455   5.799  17.621  0.00  0.00    +0.000 NA
ATOM     14  C   UNL     1      52.786   5.725  17.535  0.00  0.00    +0.000 A 
ATOM     15  N   UNL     1      53.560   6.300  16.621  0.00  0.00    +0.000 NA
ATOM     16  C   UNL     1      52.866   7.022  15.726  0.00  0.00    +0.000 A 
ATOM     17  S   UNL     1      53.700   7.833  14.490  0.00  0.00    +0.000 S 
ATOM     18  C   UNL     1      52.250   8.443  13.851  0.00  0.00    +0.000 A 
ATOM     19  C   UNL     1      51.111   8.048  14.546  0.00  0.00    +0.000 A 
ATOM     20  C   UNL     1      51.486   7.202  15.676  0.00  0.00    +0.000 A 
BRANCH  12  22
ATOM     21  C   UNL     1      48.783   5.348  16.817  0.00  0.00    +0.000 C 
ATOM     22  O   UNL     1      49.422   6.625  16.803  0.00  0.00    +0.000 OA
ENDBRANCH  12  22
ENDBRANCH   8  19
ENDBRANCH   7  10
ENDBRANCH   1   7
BRANCH   4  23
ATOM     23  C   UNL     1      44.222   3.648  11.743  0.00  0.00    +0.000 C 
BRANCH  23  24
ATOM     24  N   UNL     1      44.914   2.793  10.781  0.00  0.00    +0.000 NA
ATOM     25  H   UNL     1      44.755   1.819  11.044  0.00  0.00    +0.000 HD
BRANCH  24  26
ATOM     26  C   UNL     1      44.463   2.966   9.392  0.00  0.00    +0.000 C 
ATOM     27  C   UNL     1      44.036   4.409   9.073  0.00  0.00    +0.000 C 
BRANCH  26  28
ATOM     28  C   UNL     1      45.570   2.548   8.432  0.00  0.00    +0.000 A 
ATOM     29  C   UNL     1      45.997   1.213   8.366  0.00  0.00    +0.000 A 
ATOM     30  C   UNL     1      46.999   0.830   7.469  0.00  0.00    +0.000 A 
ATOM     31  C   UNL     1      47.587   1.774   6.629  0.00  0.00    +0.000 A 
ATOM     32  C   UNL     1      47.173   3.102   6.681  0.00  0.00    +0.000 A 
ATOM     33  C   UNL     1      46.176   3.488   7.578  0.00  0.00    +0.000 A 
ENDBRANCH  26  28
ENDBRANCH  24  26
ENDBRANCH  23  24
ENDBRANCH   4  23
TORSDOF 8
ENDMDL
MODEL 8
REMARK VINA RESULT:    -7.027      3.599      9.726
REMARK INTER + INTRA:         -11.497
REMARK INTER:                 -10.370
REMARK INTRA:                  -1.127
REMARK UNBOUND:                -1.184
REMARK  Name = 
REMARK  10 active torsions:
REMARK  status: ('A' for Active; 'I' for Inactive)
REMARK    1  A    between atoms: C_1  and  O_2
REMARK    2  A    between atoms: O_2  and  C_3
REMARK    3  A    between atoms: C_10  and  C_11
REMARK    4  A    between atoms: N_13  and  C_14
REMARK    5  A    between atoms: C_14  and  C_15
REMARK    6  A    between atoms: C_18  and  C_19
REMARK    7  A    between atoms: C_19  and  N_20
REMARK    8  A    between atoms: N_20  and  C_21
REMARK    9  A    between atoms: C_21  and  C_22
REMARK   10  A    between atoms: C_21  and  C_23
REMARK                            x       y       z     vdW  Elec       q    Type
REMARK                         _______ _______ _______ _____ _____    ______ ____
ROOT
ATOM      1  C   UNL     1      48.634   3.388  17.075  0.00  0.00    +0.000 A 
ATOM      2  C   UNL     1      49.387   2.210  17.014  0.00  0.00    +0.000 A 
ATOM      3  C   UNL     1      50.745   2.213  17.348  0.00  0.00    +0.000 A 
ATOM      4  C   UNL     1      51.384   3.396  17.752  0.00  0.00    +0.000 A 
ATOM      5  C   UNL     1      50.633   4.578  17.797  0.00  0.00    +0.000 A 
ATOM      6  C   UNL     1      49.272   4.574  17.466  0.00  0.00    +0.000 A 
ENDROOT
BRANCH   1   7
ATOM      7  C   UNL     1      47.162   3.364  16.757  0.00  0.00    +0.000 C 
BRANCH   7  10
ATOM      8  C   UNL     1      46.813   4.225  14.492  0.00  0.00    +0.000 C 
ATOM      9  O   UNL     1      47.154   3.139  14.024  0.00  0.00    +0.000 OA
ATOM     10  N   UNL     1      46.788   4.426  15.847  0.00  0.00    +0.000 N 
ATOM     11  H   UNL     1      46.472   5.306  16.234  0.00  0.00    +0.000 HD
BRANCH   8  19
ATOM     12  C   UNL     1      43.961   5.008  12.702  0.00  0.00    +0.000 A 
ATOM     13  N   UNL     1      43.001   5.560  11.930  0.00  0.00    +0.000 NA
ATOM     14  C   UNL     1      43.263   6.726  11.332  0.00  0.00    +0.000 A 
ATOM     15  N   UNL     1      44.387   7.428  11.412  0.00  0.00    +0.000 NA
ATOM     16  C   UNL     1      45.318   6.843  12.183  0.00  0.00    +0.000 A 
ATOM     17  S   UNL     1      46.822   7.602  12.388  0.00  0.00    +0.000 S 
ATOM     18  C   UNL     1      47.366   6.351  13.399  0.00  0.00    +0.000 A 
ATOM     19  C   UNL     1      46.432   5.341  13.608  0.00  0.00    +0.000 A 
ATOM     20  C   UNL     1      45.207   5.636  12.870  0.00  0.00    +0.000 A 
BRANCH  12  22
ATOM     21  C   UNL     1      43.671   2.716  12.359  0.00  0.00    +0.000 C 
ATOM     22  O   UNL     1      43.698   3.791  13.298  0.00  0.00    +0.000 OA
ENDBRANCH  12  22
ENDBRANCH   8  19
ENDBRANCH   7  10
ENDBRANCH   1   7
BRANCH   4  23
ATOM     23  C   UNL     1      52.832   3.369  18.194  0.00  0.00    +0.000 C 
BRANCH  23  24
ATOM     24  N   UNL     1      53.169   2.122  18.878  0.00  0.00    +0.000 NA
ATOM     25  H   UNL     1      52.631   1.366  18.451  0.00  0.00    +0.000 HD
BRANCH  24  26
ATOM     26  C   UNL     1      54.593   1.763  18.803  0.00  0.00    +0.000 C 
ATOM     27  C   UNL     1      55.282   1.743  20.178  0.00  0.00    +0.000 C 
BRANCH  26  28
ATOM     28  C   UNL     1      54.749   0.398  18.145  0.00  0.00    +0.000 A 
ATOM     29  C   UNL     1      54.673   0.260  16.751  0.00  0.00    +0.000 A 
ATOM     30  C   UNL     1      54.837  -0.992  16.149  0.00  0.00    +0.000 A 
ATOM     31  C   UNL     1      55.077  -2.120  16.931  0.00  0.00    +0.000 A 
ATOM     32  C   UNL     1      55.157  -2.000  18.316  0.00  0.00    +0.000 A 
ATOM     33  C   UNL     1      54.990  -0.752  18.919  0.00  0.00    +0.000 A 
ENDBRANCH  26  28
ENDBRANCH  24  26
ENDBRANCH  23  24
ENDBRANCH   4  23
TORSDOF 8
ENDMDL
MODEL 9
REMARK VINA RESULT:    -6.814      3.870      8.876
REMARK INTER + INTRA:         -11.184
REMARK INTER:                  -8.683
REMARK INTRA:                  -2.501
REMARK UNBOUND:                -1.184
REMARK  Name = 
REMARK  10 active torsions:
REMARK  status: ('A' for Active; 'I' for Inactive)
REMARK    1  A    between atoms: C_1  and  O_2
REMARK    2  A    between atoms: O_2  and  C_3
REMARK    3  A    between atoms: C_10  and  C_11
REMARK    4  A    between atoms: N_13  and  C_14
REMARK    5  A    between atoms: C_14  and  C_15
REMARK    6  A    between atoms: C_18  and  C_19
REMARK    7  A    between atoms: C_19  and  N_20
REMARK    8  A    between atoms: N_20  and  C_21
REMARK    9  A    between atoms: C_21  and  C_22
REMARK   10  A    between atoms: C_21  and  C_23
REMARK                            x       y       z     vdW  Elec       q    Type
REMARK                         _______ _______ _______ _____ _____    ______ ____
ROOT
ATOM      1  C   UNL     1      48.965   8.133  16.043  0.00  0.00    +0.000 A 
ATOM      2  C   UNL     1      50.070   7.303  16.268  0.00  0.00    +0.000 A 
ATOM      3  C   UNL     1      50.463   6.975  17.570  0.00  0.00    +0.000 A 
ATOM      4  C   UNL     1      49.759   7.468  18.679  0.00  0.00    +0.000 A 
ATOM      5  C   UNL     1      48.663   8.312  18.454  0.00  0.00    +0.000 A 
ATOM      6  C   UNL     1      48.268   8.638  17.150  0.00  0.00    +0.000 A 
ENDROOT
BRANCH   1   7
ATOM      7  C   UNL     1      48.525   8.443  14.637  0.00  0.00    +0.000 C 
BRANCH   7  10
ATOM      8  C   UNL     1      47.729   6.475  13.418  0.00  0.00    +0.000 C 
ATOM      9  O   UNL     1      48.882   6.217  13.076  0.00  0.00    +0.000 OA
ATOM     10  N   UNL     1      47.458   7.568  14.199  0.00  0.00    +0.000 N 
ATOM     11  H   UNL     1      46.516   7.760  14.513  0.00  0.00    +0.000 HD
BRANCH   8  19
ATOM     12  C   UNL     1      44.688   7.084  11.890  0.00  0.00    +0.000 A 
ATOM     13  N   UNL     1      43.472   7.024  11.306  0.00  0.00    +0.000 NA
ATOM     14  C   UNL     1      42.899   5.826  11.162  0.00  0.00    +0.000 A 
ATOM     15  N   UNL     1      43.397   4.653  11.533  0.00  0.00    +0.000 NA
ATOM     16  C   UNL     1      44.603   4.756  12.116  0.00  0.00    +0.000 A 
ATOM     17  S   UNL     1      45.384   3.351  12.660  0.00  0.00    +0.000 S 
ATOM     18  C   UNL     1      46.716   4.250  13.210  0.00  0.00    +0.000 A 
ATOM     19  C   UNL     1      46.606   5.620  12.992  0.00  0.00    +0.000 A 
ATOM     20  C   UNL     1      45.333   5.921  12.343  0.00  0.00    +0.000 A 
BRANCH  12  22
ATOM     21  C   UNL     1      44.564   9.358  11.372  0.00  0.00    +0.000 C 
ATOM     22  O   UNL     1      45.268   8.324  12.061  0.00  0.00    +0.000 OA
ENDBRANCH  12  22
ENDBRANCH   8  19
ENDBRANCH   7  10
ENDBRANCH   1   7
BRANCH   4  23
ATOM     23  C   UNL     1      50.140   7.036  20.080  0.00  0.00    +0.000 C 
BRANCH  23  24
ATOM     24  N   UNL     1      50.342   5.591  20.166  0.00  0.00    +0.000 NA
ATOM     25  H   UNL     1      50.927   5.396  20.981  0.00  0.00    +0.000 HD
BRANCH  24  26
ATOM     26  C   UNL     1      49.098   4.820  20.308  0.00  0.00    +0.000 C 
ATOM     27  C   UNL     1      47.945   5.641  20.909  0.00  0.00    +0.000 C 
BRANCH  26  28
ATOM     28  C   UNL     1      48.669   4.274  18.951  0.00  0.00    +0.000 A 
ATOM     29  C   UNL     1      47.514   4.756  18.317  0.00  0.00    +0.000 A 
ATOM     30  C   UNL     1      47.134   4.268  17.063  0.00  0.00    +0.000 A 
ATOM     31  C   UNL     1      47.901   3.292  16.429  0.00  0.00    +0.000 A 
ATOM     32  C   UNL     1      49.050   2.805  17.044  0.00  0.00    +0.000 A 
ATOM     33  C   UNL     1      49.429   3.288  18.297  0.00  0.00    +0.000 A 
ENDBRANCH  26  28
ENDBRANCH  24  26
ENDBRANCH  23  24
ENDBRANCH   4  23
TORSDOF 8
ENDMDL
