MODEL 1
REMARK VINA RESULT:    -8.406      0.000      0.000
REMARK INTER + INTRA:         -13.085
REMARK INTER:                 -11.846
REMARK INTRA:                  -1.238
REMARK UNBOUND:                -1.238
REMARK  Name = 
REMARK  8 active torsions:
REMARK  status: ('A' for Active; 'I' for Inactive)
REMARK    1  A    between atoms: C_1  and  O_2
REMARK    2  A    between atoms: O_2  and  C_3
REMARK    3  A    between atoms: C_10  and  C_11
REMARK    4  A    between atoms: N_13  and  C_14
REMARK    5  A    between atoms: C_14  and  C_15
REMARK    6  A    between atoms: C_18  and  N_19
REMARK    7  A    between atoms: N_19  and  C_20
REMARK    8  A    between atoms: C_20  and  C_21
REMARK                            x       y       z     vdW  Elec       q    Type
REMARK                         _______ _______ _______ _____ _____    ______ ____
ROOT
ATOM      1  C   UNL     1      46.132   7.857  12.866  0.00  0.00    +0.000 C 
ENDROOT
BRANCH   1   2
ATOM      2  C   UNL     1      45.558   6.800  11.956  0.00  0.00    +0.000 A 
ATOM      3  C   UNL     1      46.215   6.435  10.775  0.00  0.00    +0.000 A 
ATOM      4  C   UNL     1      45.682   5.451   9.929  0.00  0.00    +0.000 A 
ATOM      5  C   UNL     1      44.468   4.821  10.217  0.00  0.00    +0.000 A 
ATOM      6  C   UNL     1      43.816   5.194  11.402  0.00  0.00    +0.000 A 
ATOM      7  C   UNL     1      44.343   6.177  12.254  0.00  0.00    +0.000 A 
BRANCH   5   8
ATOM      8  N   UNL     1      43.918   3.786   9.451  0.00  0.00    +0.000 N 
ATOM      9  H   UNL     1      43.546   4.142   8.575  0.00  0.00    +0.000 HD
BRANCH   8  10
ATOM     10  C   UNL     1      44.592   2.493   9.347  0.00  0.00    +0.000 C 
BRANCH  10  11
ATOM     11  C   UNL     1      45.824   2.522   8.412  0.00  0.00    +0.000 C 
ATOM     12  C   UNL     1      45.633   3.401   7.159  0.00  0.00    +0.000 C 
ATOM     13  C   UNL     1      46.856   3.370   6.238  0.00  0.00    +0.000 C 
ATOM     14  C   UNL     1      47.232   1.942   5.859  0.00  0.00    +0.000 C 
ATOM     15  C   UNL     1      47.485   1.099   7.103  0.00  0.00    +0.000 C 
ATOM     16  C   UNL     1      46.277   1.101   8.038  0.00  0.00    +0.000 C 
ENDBRANCH  10  11
ENDBRANCH   8  10
ENDBRANCH   5   8
ENDBRANCH   1   2
BRANCH   1  19
ATOM     17  C   UNL     1      48.131   7.058  14.060  0.00  0.00    +0.000 C 
ATOM     18  O   UNL     1      48.859   7.363  13.112  0.00  0.00    +0.000 OA
ATOM     19  N   UNL     1      46.782   7.268  14.013  0.00  0.00    +0.000 N 
ATOM     20  H   UNL     1      46.189   6.939  14.762  0.00  0.00    +0.000 HD
BRANCH  17  28
ATOM     21  C   UNL     1      47.260   4.309  15.931  0.00  0.00    +0.000 A 
ATOM     22  N   UNL     1      47.139   3.307  16.824  0.00  0.00    +0.000 NA
ATOM     23  C   UNL     1      48.004   3.260  17.834  0.00  0.00    +0.000 A 
ATOM     24  N   UNL     1      49.002   4.109  18.074  0.00  0.00    +0.000 NA
ATOM     25  C   UNL     1      49.091   5.087  17.156  0.00  0.00    +0.000 A 
ATOM     26  S   UNL     1      50.305   6.265  17.304  0.00  0.00    +0.000 S 
ATOM     27  C   UNL     1      49.777   7.057  15.896  0.00  0.00    +0.000 A 
ATOM     28  C   UNL     1      48.685   6.452  15.284  0.00  0.00    +0.000 A 
ATOM     29  C   UNL     1      48.275   5.273  16.045  0.00  0.00    +0.000 A 
BRANCH  21  31
ATOM     30  C   UNL     1      46.892   3.638  13.736  0.00  0.00    +0.000 C 
ATOM     31  O   UNL     1      46.375   4.329  14.872  0.00  0.00    +0.000 OA
ENDBRANCH  21  31
ENDBRANCH  17  28
ENDBRANCH   1  19
TORSDOF 7
ENDMDL
MODEL 2
REMARK VINA RESULT:    -7.913      1.516      1.956
REMARK INTER + INTRA:         -12.390
REMARK INTER:                 -11.305
REMARK INTRA:                  -1.085
REMARK UNBOUND:                -1.238
REMARK  Name = 
REMARK  8 active torsions:
REMARK  status: ('A' for Active; 'I' for Inactive)
REMARK    1  A    between atoms: C_1  and  O_2
REMARK    2  A    between atoms: O_2  and  C_3
REMARK    3  A    between atoms: C_10  and  C_11
REMARK    4  A    between atoms: N_13  and  C_14
REMARK    5  A    between atoms: C_14  and  C_15
REMARK    6  A    between atoms: C_18  and  N_19
REMARK    7  A    between atoms: N_19  and  C_20
REMARK    8  A    between atoms: C_20  and  C_21
REMARK                            x       y       z     vdW  Elec       q    Type
REMARK                         _______ _______ _______ _____ _____    ______ ____
ROOT
ATOM      1  C   UNL     1      45.624   7.899  12.908  0.00  0.00    +0.000 C 
ENDROOT
BRANCH   1   2
ATOM      2  C   UNL     1      45.385   6.522  12.341  0.00  0.00    +0.000 A 
ATOM      3  C   UNL     1      45.434   6.295  10.962  0.00  0.00    +0.000 A 
ATOM      4  C   UNL     1      45.214   5.013  10.434  0.00  0.00    +0.000 A 
ATOM      5  C   UNL     1      44.911   3.926  11.260  0.00  0.00    +0.000 A 
ATOM      6  C   UNL     1      44.864   4.164  12.642  0.00  0.00    +0.000 A 
ATOM      7  C   UNL     1      45.084   5.442  13.177  0.00  0.00    +0.000 A 
BRANCH   5   8
ATOM      8  N   UNL     1      44.748   2.613  10.803  0.00  0.00    +0.000 N 
ATOM      9  H   UNL     1      44.182   2.071  11.451  0.00  0.00    +0.000 HD
BRANCH   8  10
ATOM     10  C   UNL     1      44.489   2.339   9.391  0.00  0.00    +0.000 C 
BRANCH  10  11
ATOM     11  C   UNL     1      45.748   2.480   8.503  0.00  0.00    +0.000 C 
ATOM     12  C   UNL     1      45.566   3.447   7.316  0.00  0.00    +0.000 C 
ATOM     13  C   UNL     1      46.816   3.527   6.436  0.00  0.00    +0.000 C 
ATOM     14  C   UNL     1      47.253   2.146   5.962  0.00  0.00    +0.000 C 
ATOM     15  C   UNL     1      47.497   1.217   7.145  0.00  0.00    +0.000 C 
ATOM     16  C   UNL     1      46.262   1.108   8.037  0.00  0.00    +0.000 C 
ENDBRANCH  10  11
ENDBRANCH   8  10
ENDBRANCH   5   8
ENDBRANCH   1   2
BRANCH   1  19
ATOM     17  C   UNL     1      48.044   8.126  13.293  0.00  0.00    +0.000 C 
ATOM     18  O   UNL     1      48.252   8.302  12.090  0.00  0.00    +0.000 OA
ATOM     19  N   UNL     1      46.782   7.920  13.771  0.00  0.00    +0.000 N 
ATOM     20  H   UNL     1      46.635   7.697  14.746  0.00  0.00    +0.000 HD
BRANCH  17  28
ATOM     21  C   UNL     1      49.037   5.925  15.740  0.00  0.00    +0.000 A 
ATOM     22  N   UNL     1      49.632   5.251  16.745  0.00  0.00    +0.000 NA
ATOM     23  C   UNL     1      50.701   5.797  17.318  0.00  0.00    +0.000 A 
ATOM     24  N   UNL     1      51.269   6.961  17.009  0.00  0.00    +0.000 NA
ATOM     25  C   UNL     1      50.650   7.596  15.999  0.00  0.00    +0.000 A 
ATOM     26  S   UNL     1      51.235   9.100  15.473  0.00  0.00    +0.000 S 
ATOM     27  C   UNL     1      50.016   9.218  14.294  0.00  0.00    +0.000 A 
ATOM     28  C   UNL     1      49.150   8.130  14.267  0.00  0.00    +0.000 A 
ATOM     29  C   UNL     1      49.532   7.162  15.294  0.00  0.00    +0.000 A 
BRANCH  21  31
ATOM     30  C   UNL     1      47.356   4.336  15.964  0.00  0.00    +0.000 C 
ATOM     31  O   UNL     1      47.947   5.335  15.134  0.00  0.00    +0.000 OA
ENDBRANCH  21  31
ENDBRANCH  17  28
ENDBRANCH   1  19
TORSDOF 7
ENDMDL
MODEL 3
REMARK VINA RESULT:    -7.704      2.045      3.590
REMARK INTER + INTRA:         -12.095
REMARK INTER:                 -10.820
REMARK INTRA:                  -1.275
REMARK UNBOUND:                -1.238
REMARK  Name = 
REMARK  8 active torsions:
REMARK  status: ('A' for Active; 'I' for Inactive)
REMARK    1  A    between atoms: C_1  and  O_2
REMARK    2  A    between atoms: O_2  and  C_3
REMARK    3  A    between atoms: C_10  and  C_11
REMARK    4  A    between atoms: N_13  and  C_14
REMARK    5  A    between atoms: C_14  and  C_15
REMARK    6  A    between atoms: C_18  and  N_19
REMARK    7  A    between atoms: N_19  and  C_20
REMARK    8  A    between atoms: C_20  and  C_21
REMARK                            x       y       z     vdW  Elec       q    Type
REMARK                         _______ _______ _______ _____ _____    ______ ____
ROOT
ATOM      1  C   UNL     1      46.741   4.451  14.769  0.00  0.00    +0.000 C 
ENDROOT
BRANCH   1   2
ATOM      2  C   UNL     1      46.298   4.632  13.339  0.00  0.00    +0.000 A 
ATOM      3  C   UNL     1      46.595   5.806  12.638  0.00  0.00    +0.000 A 
ATOM      4  C   UNL     1      46.185   5.974  11.307  0.00  0.00    +0.000 A 
ATOM      5  C   UNL     1      45.444   4.992  10.642  0.00  0.00    +0.000 A 
ATOM      6  C   UNL     1      45.150   3.819  11.353  0.00  0.00    +0.000 A 
ATOM      7  C   UNL     1      45.558   3.643  12.684  0.00  0.00    +0.000 A 
BRANCH   5   8
ATOM      8  N   UNL     1      45.064   5.070   9.296  0.00  0.00    +0.000 N 
ATOM      9  H   UNL     1      45.819   5.441   8.728  0.00  0.00    +0.000 HD
BRANCH   8  10
ATOM     10  C   UNL     1      44.303   3.989   8.671  0.00  0.00    +0.000 C 
BRANCH  10  11
ATOM     11  C   UNL     1      45.180   3.043   7.816  0.00  0.00    +0.000 C 
ATOM     12  C   UNL     1      45.731   1.833   8.596  0.00  0.00    +0.000 C 
ATOM     13  C   UNL     1      46.627   0.945   7.729  0.00  0.00    +0.000 C 
ATOM     14  C   UNL     1      47.753   1.747   7.087  0.00  0.00    +0.000 C 
ATOM     15  C   UNL     1      47.195   2.901   6.263  0.00  0.00    +0.000 C 
ATOM     16  C   UNL     1      46.304   3.813   7.104  0.00  0.00    +0.000 C 
ENDBRANCH  10  11
ENDBRANCH   8  10
ENDBRANCH   5   8
ENDBRANCH   1   2
BRANCH   1  19
ATOM     17  C   UNL     1      48.467   5.498  16.178  0.00  0.00    +0.000 C 
ATOM     18  O   UNL     1      48.775   4.407  16.667  0.00  0.00    +0.000 OA
ATOM     19  N   UNL     1      47.477   5.600  15.242  0.00  0.00    +0.000 N 
ATOM     20  H   UNL     1      47.180   6.507  14.912  0.00  0.00    +0.000 HD
BRANCH  17  28
ATOM     21  C   UNL     1      50.057   7.992  14.428  0.00  0.00    +0.000 A 
ATOM     22  N   UNL     1      50.723   9.083  13.998  0.00  0.00    +0.000 NA
ATOM     23  C   UNL     1      51.163   9.947  14.909  0.00  0.00    +0.000 A 
ATOM     24  N   UNL     1      51.021   9.861  16.230  0.00  0.00    +0.000 NA
ATOM     25  C   UNL     1      50.346   8.764  16.615  0.00  0.00    +0.000 A 
ATOM     26  S   UNL     1      50.072   8.487  18.267  0.00  0.00    +0.000 S 
ATOM     27  C   UNL     1      49.245   7.039  17.938  0.00  0.00    +0.000 A 
ATOM     28  C   UNL     1      49.152   6.737  16.584  0.00  0.00    +0.000 A 
ATOM     29  C   UNL     1      49.817   7.773  15.795  0.00  0.00    +0.000 A 
BRANCH  21  31
ATOM     30  C   UNL     1      49.891   7.558  12.151  0.00  0.00    +0.000 C 
ATOM     31  O   UNL     1      49.580   7.119  13.473  0.00  0.00    +0.000 OA
ENDBRANCH  21  31
ENDBRANCH  17  28
ENDBRANCH   1  19
TORSDOF 7
ENDMDL
MODEL 4
REMARK VINA RESULT:    -7.610      1.785      2.177
REMARK INTER + INTRA:         -11.962
REMARK INTER:                 -10.869
REMARK INTRA:                  -1.093
REMARK UNBOUND:                -1.238
REMARK  Name = 
REMARK  8 active torsions:
REMARK  status: ('A' for Active; 'I' for Inactive)
REMARK    1  A    between atoms: C_1  and  O_2
REMARK    2  A    between atoms: O_2  and  C_3
REMARK    3  A    between atoms: C_10  and  C_11
REMARK    4  A    between atoms: N_13  and  C_14
REMARK    5  A    between atoms: C_14  and  C_15
REMARK    6  A    between atoms: C_18  and  N_19
REMARK    7  A    between atoms: N_19  and  C_20
REMARK    8  A    between atoms: C_20  and  C_21
REMARK                            x       y       z     vdW  Elec       q    Type
REMARK                         _______ _______ _______ _____ _____    ______ ____
ROOT
ATOM      1  C   UNL     1      48.311   6.622  13.443  0.00  0.00    +0.000 C 
ENDROOT
BRANCH   1   2
ATOM      2  C   UNL     1      47.147   5.959  12.750  0.00  0.00    +0.000 A 
ATOM      3  C   UNL     1      46.569   6.530  11.611  0.00  0.00    +0.000 A 
ATOM      4  C   UNL     1      45.487   5.913  10.964  0.00  0.00    +0.000 A 
ATOM      5  C   UNL     1      44.930   4.725  11.447  0.00  0.00    +0.000 A 
ATOM      6  C   UNL     1      45.516   4.159  12.590  0.00  0.00    +0.000 A 
ATOM      7  C   UNL     1      46.599   4.770  13.241  0.00  0.00    +0.000 A 
BRANCH   5   8
ATOM      8  N   UNL     1      43.897   4.025  10.811  0.00  0.00    +0.000 N 
ATOM      9  H   UNL     1      43.293   4.659  10.297  0.00  0.00    +0.000 HD
BRANCH   8  10
ATOM     10  C   UNL     1      44.159   2.753  10.141  0.00  0.00    +0.000 C 
BRANCH  10  11
ATOM     11  C   UNL     1      45.367   2.810   9.175  0.00  0.00    +0.000 C 
ATOM     12  C   UNL     1      45.236   3.887   8.080  0.00  0.00    +0.000 C 
ATOM     13  C   UNL     1      46.429   3.884   7.120  0.00  0.00    +0.000 C 
ATOM     14  C   UNL     1      46.653   2.504   6.514  0.00  0.00    +0.000 C 
ATOM     15  C   UNL     1      46.849   1.458   7.604  0.00  0.00    +0.000 C 
ATOM     16  C   UNL     1      45.669   1.429   8.573  0.00  0.00    +0.000 C 
ENDBRANCH  10  11
ENDBRANCH   8  10
ENDBRANCH   5   8
ENDBRANCH   1   2
BRANCH   1  19
ATOM     17  C   UNL     1      49.004   7.258  15.717  0.00  0.00    +0.000 C 
ATOM     18  O   UNL     1      49.960   7.905  15.279  0.00  0.00    +0.000 OA
ATOM     19  N   UNL     1      48.152   6.599  14.878  0.00  0.00    +0.000 N 
ATOM     20  H   UNL     1      47.424   6.007  15.253  0.00  0.00    +0.000 HD
BRANCH  17  28
ATOM     21  C   UNL     1      48.813   4.622  17.915  0.00  0.00    +0.000 A 
ATOM     22  N   UNL     1      48.687   3.791  18.969  0.00  0.00    +0.000 NA
ATOM     23  C   UNL     1      48.411   4.322  20.156  0.00  0.00    +0.000 A 
ATOM     24  N   UNL     1      48.240   5.613  20.436  0.00  0.00    +0.000 NA
ATOM     25  C   UNL     1      48.381   6.407  19.361  0.00  0.00    +0.000 A 
ATOM     26  S   UNL     1      48.192   8.085  19.529  0.00  0.00    +0.000 S 
ATOM     27  C   UNL     1      48.491   8.335  17.875  0.00  0.00    +0.000 A 
ATOM     28  C   UNL     1      48.743   7.167  17.164  0.00  0.00    +0.000 A 
ATOM     29  C   UNL     1      48.673   6.013  18.059  0.00  0.00    +0.000 A 
BRANCH  21  31
ATOM     30  C   UNL     1      48.714   2.699  16.614  0.00  0.00    +0.000 C 
ATOM     31  O   UNL     1      49.129   4.061  16.695  0.00  0.00    +0.000 OA
ENDBRANCH  21  31
ENDBRANCH  17  28
ENDBRANCH   1  19
TORSDOF 7
ENDMDL
MODEL 5
REMARK VINA RESULT:    -7.461      2.013      2.659
REMARK INTER + INTRA:         -11.752
REMARK INTER:                 -10.474
REMARK INTRA:                  -1.278
REMARK UNBOUND:                -1.238
REMARK  Name = 
REMARK  8 active torsions:
REMARK  status: ('A' for Active; 'I' for Inactive)
REMARK    1  A    between atoms: C_1  and  O_2
REMARK    2  A    between atoms: O_2  and  C_3
REMARK    3  A    between atoms: C_10  and  C_11
REMARK    4  A    between atoms: N_13  and  C_14
REMARK    5  A    between atoms: C_14  and  C_15
REMARK    6  A    between atoms: C_18  and  N_19
REMARK    7  A    between atoms: N_19  and  C_20
REMARK    8  A    between atoms: C_20  and  C_21
REMARK                            x       y       z     vdW  Elec       q    Type
REMARK                         _______ _______ _______ _____ _____    ______ ____
ROOT
ATOM      1  C   UNL     1      47.601   6.764  14.618  0.00  0.00    +0.000 C 
ENDROOT
BRANCH   1   2
ATOM      2  C   UNL     1      46.873   5.927  13.597  0.00  0.00    +0.000 A 
ATOM      3  C   UNL     1      46.472   6.475  12.373  0.00  0.00    +0.000 A 
ATOM      4  C   UNL     1      45.796   5.696  11.422  0.00  0.00    +0.000 A 
ATOM      5  C   UNL     1      45.475   4.358  11.669  0.00  0.00    +0.000 A 
ATOM      6  C   UNL     1      45.881   3.817  12.898  0.00  0.00    +0.000 A 
ATOM      7  C   UNL     1      46.558   4.590  13.855  0.00  0.00    +0.000 A 
BRANCH   5   8
ATOM      8  N   UNL     1      44.864   3.510  10.737  0.00  0.00    +0.000 N 
ATOM      9  H   UNL     1      44.120   2.971  11.171  0.00  0.00    +0.000 HD
BRANCH   8  10
ATOM     10  C   UNL     1      44.571   3.975   9.383  0.00  0.00    +0.000 C 
BRANCH  10  11
ATOM     11  C   UNL     1      45.242   3.116   8.285  0.00  0.00    +0.000 C 
ATOM     12  C   UNL     1      45.790   1.770   8.797  0.00  0.00    +0.000 C 
ATOM     13  C   UNL     1      46.484   0.968   7.692  0.00  0.00    +0.000 C 
ATOM     14  C   UNL     1      47.576   1.786   7.013  0.00  0.00    +0.000 C 
ATOM     15  C   UNL     1      47.010   3.084   6.450  0.00  0.00    +0.000 C 
ATOM     16  C   UNL     1      46.321   3.912   7.532  0.00  0.00    +0.000 C 
ENDBRANCH  10  11
ENDBRANCH   8  10
ENDBRANCH   5   8
ENDBRANCH   1   2
BRANCH   1  19
ATOM     17  C   UNL     1      49.117   6.263  16.492  0.00  0.00    +0.000 C 
ATOM     18  O   UNL     1      48.572   7.112  17.202  0.00  0.00    +0.000 OA
ATOM     19  N   UNL     1      48.697   6.036  15.212  0.00  0.00    +0.000 N 
ATOM     20  H   UNL     1      49.204   5.397  14.615  0.00  0.00    +0.000 HD
BRANCH  17  28
ATOM     21  C   UNL     1      49.627   2.882  16.838  0.00  0.00    +0.000 A 
ATOM     22  N   UNL     1      50.079   1.634  17.075  0.00  0.00    +0.000 NA
ATOM     23  C   UNL     1      51.294   1.497  17.599  0.00  0.00    +0.000 A 
ATOM     24  N   UNL     1      52.140   2.473  17.927  0.00  0.00    +0.000 NA
ATOM     25  C   UNL     1      51.653   3.698  17.668  0.00  0.00    +0.000 A 
ATOM     26  S   UNL     1      52.593   5.065  18.027  0.00  0.00    +0.000 S 
ATOM     27  C   UNL     1      51.377   6.111  17.466  0.00  0.00    +0.000 A 
ATOM     28  C   UNL     1      50.244   5.458  16.993  0.00  0.00    +0.000 A 
ATOM     29  C   UNL     1      50.413   4.011  17.120  0.00  0.00    +0.000 A 
BRANCH  21  31
ATOM     30  C   UNL     1      47.354   3.140  17.252  0.00  0.00    +0.000 C 
ATOM     31  O   UNL     1      48.377   3.009  16.267  0.00  0.00    +0.000 OA
ENDBRANCH  21  31
ENDBRANCH  17  28
ENDBRANCH   1  19
TORSDOF 7
ENDMDL
MODEL 6
REMARK VINA RESULT:    -7.440      2.776      3.741
REMARK INTER + INTRA:         -11.723
REMARK INTER:                 -10.433
REMARK INTRA:                  -1.290
REMARK UNBOUND:                -1.238
REMARK  Name = 
REMARK  8 active torsions:
REMARK  status: ('A' for Active; 'I' for Inactive)
REMARK    1  A    between atoms: C_1  and  O_2
REMARK    2  A    between atoms: O_2  and  C_3
REMARK    3  A    between atoms: C_10  and  C_11
REMARK    4  A    between atoms: N_13  and  C_14
REMARK    5  A    between atoms: C_14  and  C_15
REMARK    6  A    between atoms: C_18  and  N_19
REMARK    7  A    between atoms: N_19  and  C_20
REMARK    8  A    between atoms: C_20  and  C_21
REMARK                            x       y       z     vdW  Elec       q    Type
REMARK                         _______ _______ _______ _____ _____    ______ ____
ROOT
ATOM      1  C   UNL     1      48.417   7.073  14.014  0.00  0.00    +0.000 C 
ENDROOT
BRANCH   1   2
ATOM      2  C   UNL     1      47.379   6.288  13.252  0.00  0.00    +0.000 A 
ATOM      3  C   UNL     1      46.962   6.695  11.980  0.00  0.00    +0.000 A 
ATOM      4  C   UNL     1      45.998   5.964  11.269  0.00  0.00    +0.000 A 
ATOM      5  C   UNL     1      45.399   4.824  11.814  0.00  0.00    +0.000 A 
ATOM      6  C   UNL     1      45.823   4.424  13.090  0.00  0.00    +0.000 A 
ATOM      7  C   UNL     1      46.788   5.148  13.806  0.00  0.00    +0.000 A 
BRANCH   5   8
ATOM      8  N   UNL     1      44.483   4.014  11.131  0.00  0.00    +0.000 N 
ATOM      9  H   UNL     1      43.732   3.718  11.748  0.00  0.00    +0.000 HD
BRANCH   8  10
ATOM     10  C   UNL     1      44.061   4.346   9.771  0.00  0.00    +0.000 C 
BRANCH  10  11
ATOM     11  C   UNL     1      44.734   3.464   8.693  0.00  0.00    +0.000 C 
ATOM     12  C   UNL     1      45.311   2.144   9.241  0.00  0.00    +0.000 C 
ATOM     13  C   UNL     1      46.006   1.319   8.153  0.00  0.00    +0.000 C 
ATOM     14  C   UNL     1      47.076   2.134   7.435  0.00  0.00    +0.000 C 
ATOM     15  C   UNL     1      46.481   3.404   6.838  0.00  0.00    +0.000 C 
ATOM     16  C   UNL     1      45.789   4.253   7.902  0.00  0.00    +0.000 C 
ENDBRANCH  10  11
ENDBRANCH   8  10
ENDBRANCH   5   8
ENDBRANCH   1   2
BRANCH   1  19
ATOM     17  C   UNL     1      48.901   6.439  16.343  0.00  0.00    +0.000 C 
ATOM     18  O   UNL     1      49.890   5.789  15.995  0.00  0.00    +0.000 OA
ATOM     19  N   UNL     1      48.127   7.095  15.428  0.00  0.00    +0.000 N 
ATOM     20  H   UNL     1      47.275   7.555  15.718  0.00  0.00    +0.000 HD
BRANCH  17  28
ATOM     21  C   UNL     1      47.812   9.034  18.317  0.00  0.00    +0.000 A 
ATOM     22  N   UNL     1      47.376   9.854  19.294  0.00  0.00    +0.000 NA
ATOM     23  C   UNL     1      47.186   9.339  20.505  0.00  0.00    +0.000 A 
ATOM     24  N   UNL     1      47.383   8.076  20.879  0.00  0.00    +0.000 NA
ATOM     25  C   UNL     1      47.811   7.292  19.875  0.00  0.00    +0.000 A 
ATOM     26  S   UNL     1      48.118   5.649  20.169  0.00  0.00    +0.000 S 
ATOM     27  C   UNL     1      48.582   5.395  18.554  0.00  0.00    +0.000 A 
ATOM     28  C   UNL     1      48.511   6.535  17.760  0.00  0.00    +0.000 A 
ATOM     29  C   UNL     1      48.051   7.671  18.558  0.00  0.00    +0.000 A 
BRANCH  21  31
ATOM     30  C   UNL     1      48.936  10.628  17.054  0.00  0.00    +0.000 C 
ATOM     31  O   UNL     1      47.976   9.573  17.058  0.00  0.00    +0.000 OA
ENDBRANCH  21  31
ENDBRANCH  17  28
ENDBRANCH   1  19
TORSDOF 7
ENDMDL
MODEL 7
REMARK VINA RESULT:    -7.387      2.842      4.693
REMARK INTER + INTRA:         -11.649
REMARK INTER:                 -10.377
REMARK INTRA:                  -1.272
REMARK UNBOUND:                -1.238
REMARK  Name = 
REMARK  8 active torsions:
REMARK  status: ('A' for Active; 'I' for Inactive)
REMARK    1  A    between atoms: C_1  and  O_2
REMARK    2  A    between atoms: O_2  and  C_3
REMARK    3  A    between atoms: C_10  and  C_11
REMARK    4  A    between atoms: N_13  and  C_14
REMARK    5  A    between atoms: C_14  and  C_15
REMARK    6  A    between atoms: C_18  and  N_19
REMARK    7  A    between atoms: N_19  and  C_20
REMARK    8  A    between atoms: C_20  and  C_21
REMARK                            x       y       z     vdW  Elec       q    Type
REMARK                         _______ _______ _______ _____ _____    ______ ____
ROOT
ATOM      1  C   UNL     1      47.486   5.857  14.026  0.00  0.00    +0.000 C 
ENDROOT
BRANCH   1   2
ATOM      2  C   UNL     1      46.567   5.220  13.013  0.00  0.00    +0.000 A 
ATOM      3  C   UNL     1      46.080   5.951  11.925  0.00  0.00    +0.000 A 
ATOM      4  C   UNL     1      45.227   5.358  10.982  0.00  0.00    +0.000 A 
ATOM      5  C   UNL     1      44.811   4.029  11.109  0.00  0.00    +0.000 A 
ATOM      6  C   UNL     1      45.304   3.304  12.203  0.00  0.00    +0.000 A 
ATOM      7  C   UNL     1      46.159   3.890  13.150  0.00  0.00    +0.000 A 
BRANCH   5   8
ATOM      8  N   UNL     1      44.017   3.361  10.168  0.00  0.00    +0.000 N 
ATOM      9  H   UNL     1      43.547   4.021   9.556  0.00  0.00    +0.000 HD
BRANCH   8  10
ATOM     10  C   UNL     1      44.503   2.153   9.504  0.00  0.00    +0.000 C 
BRANCH  10  11
ATOM     11  C   UNL     1      45.735   2.407   8.602  0.00  0.00    +0.000 C 
ATOM     12  C   UNL     1      45.496   3.465   7.507  0.00  0.00    +0.000 C 
ATOM     13  C   UNL     1      46.721   3.657   6.610  0.00  0.00    +0.000 C 
ATOM     14  C   UNL     1      47.184   2.335   6.008  0.00  0.00    +0.000 C 
ATOM     15  C   UNL     1      47.483   1.317   7.102  0.00  0.00    +0.000 C 
ATOM     16  C   UNL     1      46.275   1.095   8.009  0.00  0.00    +0.000 C 
ENDBRANCH  10  11
ENDBRANCH   8  10
ENDBRANCH   5   8
ENDBRANCH   1   2
BRANCH   1  19
ATOM     17  C   UNL     1      49.389   7.418  14.062  0.00  0.00    +0.000 C 
ATOM     18  O   UNL     1      49.702   7.060  15.201  0.00  0.00    +0.000 OA
ATOM     19  N   UNL     1      48.312   6.875  13.420  0.00  0.00    +0.000 N 
ATOM     20  H   UNL     1      48.019   7.235  12.523  0.00  0.00    +0.000 HD
BRANCH  17  28
ATOM     21  C   UNL     1      48.529   9.865  11.807  0.00  0.00    +0.000 A 
ATOM     22  N   UNL     1      48.469  10.886  10.929  0.00  0.00    +0.000 NA
ATOM     23  C   UNL     1      49.601  11.511  10.615  0.00  0.00    +0.000 A 
ATOM     24  N   UNL     1      50.820  11.240  11.077  0.00  0.00    +0.000 NA
ATOM     25  C   UNL     1      50.834  10.222  11.954  0.00  0.00    +0.000 A 
ATOM     26  S   UNL     1      52.306   9.733  12.645  0.00  0.00    +0.000 S 
ATOM     27  C   UNL     1      51.537   8.511  13.541  0.00  0.00    +0.000 A 
ATOM     28  C   UNL     1      50.162   8.448  13.346  0.00  0.00    +0.000 A 
ATOM     29  C   UNL     1      49.746   9.473  12.390  0.00  0.00    +0.000 A 
BRANCH  21  31
ATOM     30  C   UNL     1      46.224  10.109  11.965  0.00  0.00    +0.000 C 
ATOM     31  O   UNL     1      47.345   9.246  12.146  0.00  0.00    +0.000 OA
ENDBRANCH  21  31
ENDBRANCH  17  28
ENDBRANCH   1  19
TORSDOF 7
ENDMDL
MODEL 8
REMARK VINA RESULT:    -7.215      2.503      3.353
REMARK INTER + INTRA:         -11.405
REMARK INTER:                 -10.524
REMARK INTRA:                  -0.881
REMARK UNBOUND:                -1.238
REMARK  Name = 
REMARK  8 active torsions:
REMARK  status: ('A' for Active; 'I' for Inactive)
REMARK    1  A    between atoms: C_1  and  O_2
REMARK    2  A    between atoms: O_2  and  C_3
REMARK    3  A    between atoms: C_10  and  C_11
REMARK    4  A    between atoms: N_13  and  C_14
REMARK    5  A    between atoms: C_14  and  C_15
REMARK    6  A    between atoms: C_18  and  N_19
REMARK    7  A    between atoms: N_19  and  C_20
REMARK    8  A    between atoms: C_20  and  C_21
REMARK                            x       y       z     vdW  Elec       q    Type
REMARK                         _______ _______ _______ _____ _____    ______ ____
ROOT
ATOM      1  C   UNL     1      46.841   4.415  14.803  0.00  0.00    +0.000 C 
ENDROOT
BRANCH   1   2
ATOM      2  C   UNL     1      46.324   4.631  13.402  0.00  0.00    +0.000 A 
ATOM      3  C   UNL     1      46.630   5.798  12.695  0.00  0.00    +0.000 A 
ATOM      4  C   UNL     1      46.151   5.998  11.392  0.00  0.00    +0.000 A 
ATOM      5  C   UNL     1      45.330   5.057  10.764  0.00  0.00    +0.000 A 
ATOM      6  C   UNL     1      45.028   3.889  11.480  0.00  0.00    +0.000 A 
ATOM      7  C   UNL     1      45.505   3.681  12.784  0.00  0.00    +0.000 A 
BRANCH   5   8
ATOM      8  N   UNL     1      44.876   5.165   9.443  0.00  0.00    +0.000 N 
ATOM      9  H   UNL     1      45.391   5.883   8.941  0.00  0.00    +0.000 HD
BRANCH   8  10
ATOM     10  C   UNL     1      44.569   3.972   8.658  0.00  0.00    +0.000 C 
BRANCH  10  11
ATOM     11  C   UNL     1      45.828   3.174   8.244  0.00  0.00    +0.000 C 
ATOM     12  C   UNL     1      46.444   3.634   6.908  0.00  0.00    +0.000 C 
ATOM     13  C   UNL     1      47.661   2.794   6.511  0.00  0.00    +0.000 C 
ATOM     14  C   UNL     1      47.327   1.308   6.482  0.00  0.00    +0.000 C 
ATOM     15  C   UNL     1      46.783   0.848   7.829  0.00  0.00    +0.000 C 
ATOM     16  C   UNL     1      45.560   1.660   8.248  0.00  0.00    +0.000 C 
ENDBRANCH  10  11
ENDBRANCH   8  10
ENDBRANCH   5   8
ENDBRANCH   1   2
BRANCH   1  19
ATOM     17  C   UNL     1      48.544   5.506  16.206  0.00  0.00    +0.000 C 
ATOM     18  O   UNL     1      48.921   4.418  16.650  0.00  0.00    +0.000 OA
ATOM     19  N   UNL     1      47.528   5.585  15.297  0.00  0.00    +0.000 N 
ATOM     20  H   UNL     1      47.175   6.486  15.004  0.00  0.00    +0.000 HD
BRANCH  17  28
ATOM     21  C   UNL     1      48.055   7.580  18.902  0.00  0.00    +0.000 A 
ATOM     22  N   UNL     1      48.071   8.546  19.842  0.00  0.00    +0.000 NA
ATOM     23  C   UNL     1      48.932   9.549  19.695  0.00  0.00    +0.000 A 
ATOM     24  N   UNL     1      49.804   9.718  18.702  0.00  0.00    +0.000 NA
ATOM     25  C   UNL     1      49.760   8.731  17.792  0.00  0.00    +0.000 A 
ATOM     26  S   UNL     1      50.800   8.782  16.451  0.00  0.00    +0.000 S 
ATOM     27  C   UNL     1      50.171   7.323  15.845  0.00  0.00    +0.000 A 
ATOM     28  C   UNL     1      49.173   6.766  16.637  0.00  0.00    +0.000 A 
ATOM     29  C   UNL     1      48.928   7.615  17.802  0.00  0.00    +0.000 A 
BRANCH  21  31
ATOM     30  C   UNL     1      47.320   5.937  20.372  0.00  0.00    +0.000 C 
ATOM     31  O   UNL     1      47.179   6.530  19.082  0.00  0.00    +0.000 OA
ENDBRANCH  21  31
ENDBRANCH  17  28
ENDBRANCH   1  19
TORSDOF 7
ENDMDL
MODEL 9
REMARK VINA RESULT:    -6.973      3.018      4.289
REMARK INTER + INTRA:         -11.065
REMARK INTER:                  -9.941
REMARK INTRA:                  -1.124
REMARK UNBOUND:                -1.238
REMARK  Name = 
REMARK  8 active torsions:
REMARK  status: ('A' for Active; 'I' for Inactive)
REMARK    1  A    between atoms: C_1  and  O_2
REMARK    2  A    between atoms: O_2  and  C_3
REMARK    3  A    between atoms: C_10  and  C_11
REMARK    4  A    between atoms: N_13  and  C_14
REMARK    5  A    between atoms: C_14  and  C_15
REMARK    6  A    between atoms: C_18  and  N_19
REMARK    7  A    between atoms: N_19  and  C_20
REMARK    8  A    between atoms: C_20  and  C_21
REMARK                            x       y       z     vdW  Elec       q    Type
REMARK                         _______ _______ _______ _____ _____    ______ ____
ROOT
ATOM      1  C   UNL     1      47.155   5.915  13.983  0.00  0.00    +0.000 C 
ENDROOT
BRANCH   1   2
ATOM      2  C   UNL     1      46.322   5.246  12.919  0.00  0.00    +0.000 A 
ATOM      3  C   UNL     1      45.986   5.919  11.739  0.00  0.00    +0.000 A 
ATOM      4  C   UNL     1      45.213   5.295  10.749  0.00  0.00    +0.000 A 
ATOM      5  C   UNL     1      44.727   3.995  10.913  0.00  0.00    +0.000 A 
ATOM      6  C   UNL     1      45.068   3.327  12.099  0.00  0.00    +0.000 A 
ATOM      7  C   UNL     1      45.842   3.944  13.094  0.00  0.00    +0.000 A 
BRANCH   5   8
ATOM      8  N   UNL     1      44.009   3.293   9.936  0.00  0.00    +0.000 N 
ATOM      9  H   UNL     1      43.542   3.934   9.301  0.00  0.00    +0.000 HD
BRANCH   8  10
ATOM     10  C   UNL     1      44.577   2.107   9.299  0.00  0.00    +0.000 C 
BRANCH  10  11
ATOM     11  C   UNL     1      45.835   2.414   8.452  0.00  0.00    +0.000 C 
ATOM     12  C   UNL     1      45.597   3.458   7.342  0.00  0.00    +0.000 C 
ATOM     13  C   UNL     1      46.852   3.703   6.499  0.00  0.00    +0.000 C 
ATOM     14  C   UNL     1      47.400   2.402   5.925  0.00  0.00    +0.000 C 
ATOM     15  C   UNL     1      47.695   1.401   7.035  0.00  0.00    +0.000 C 
ATOM     16  C   UNL     1      46.459   1.127   7.888  0.00  0.00    +0.000 C 
ENDBRANCH  10  11
ENDBRANCH   8  10
ENDBRANCH   5   8
ENDBRANCH   1   2
BRANCH   1  19
ATOM     17  C   UNL     1      48.389   7.979  13.458  0.00  0.00    +0.000 C 
ATOM     18  O   UNL     1      47.524   8.673  14.000  0.00  0.00    +0.000 OA
ATOM     19  N   UNL     1      48.277   6.619  13.408  0.00  0.00    +0.000 N 
ATOM     20  H   UNL     1      48.950   6.071  12.891  0.00  0.00    +0.000 HD
BRANCH  17  28
ATOM     21  C   UNL     1      51.718   8.036  14.311  0.00  0.00    +0.000 A 
ATOM     22  N   UNL     1      53.051   8.213  14.410  0.00  0.00    +0.000 NA
ATOM     23  C   UNL     1      53.658   8.935  13.472  0.00  0.00    +0.000 A 
ATOM     24  N   UNL     1      53.091   9.521  12.420  0.00  0.00    +0.000 NA
ATOM     25  C   UNL     1      51.765   9.314  12.355  0.00  0.00    +0.000 A 
ATOM     26  S   UNL     1      50.873   9.991  11.079  0.00  0.00    +0.000 S 
ATOM     27  C   UNL     1      49.424   9.334  11.676  0.00  0.00    +0.000 A 
ATOM     28  C   UNL     1      49.580   8.589  12.840  0.00  0.00    +0.000 A 
ATOM     29  C   UNL     1      50.985   8.583  13.245  0.00  0.00    +0.000 A 
BRANCH  21  31
ATOM     30  C   UNL     1      52.053   6.663  16.156  0.00  0.00    +0.000 C 
ATOM     31  O   UNL     1      51.105   7.260  15.273  0.00  0.00    +0.000 OA
ENDBRANCH  21  31
ENDBRANCH  17  28
ENDBRANCH   1  19
TORSDOF 7
ENDMDL
