MODEL 1
REMARK VINA RESULT:    -8.701      0.000      0.000
REMARK INTER + INTRA:         -11.228
REMARK INTER:                 -10.736
REMARK INTRA:                  -0.492
REMARK UNBOUND:                -0.492
REMARK  Name = 
REMARK  4 active torsions:
REMARK  status: ('A' for Active; 'I' for Inactive)
REMARK    1  A    between atoms: C_2  and  C_4
REMARK    2  A    between atoms: C_7  and  C_8
REMARK    3  A    between atoms: C_8  and  N_9
REMARK    4  A    between atoms: C_14  and  C_15
REMARK                            x       y       z     vdW  Elec       q    Type
REMARK                         _______ _______ _______ _____ _____    ______ ____
ROOT
ATOM      1  N   UNL     1      44.275   2.914  11.802  0.00  0.00    +0.000 N 
ATOM      2  C   UNL     1      45.158   3.777  12.430  0.00  0.00    +0.000 A 
ATOM      3  N   UNL     1      46.137   3.201  13.142  0.00  0.00    +0.000 NA
ATOM      4  C   UNL     1      46.995   4.010  13.796  0.00  0.00    +0.000 A 
ATOM      5  C   UNL     1      46.919   5.375  13.760  0.00  0.00    +0.000 A 
ATOM      6  C   UNL     1      45.891   5.867  12.995  0.00  0.00    +0.000 A 
ATOM      7  N   UNL     1      45.002   5.098  12.318  0.00  0.00    +0.000 NA
ATOM      8  H   UNL     1      44.721   2.004  11.770  0.00  0.00    +0.000 HD
ENDROOT
BRANCH   6   9
ATOM      9  C   UNL     1      45.702   7.344  12.873  0.00  0.00    +0.000 C 
ATOM     10  N   UNL     1      44.617   7.739  12.138  0.00  0.00    +0.000 N 
ATOM     11  O   UNL     1      46.460   8.151  13.395  0.00  0.00    +0.000 OA
ATOM     12  H   UNL     1      43.985   7.040  11.763  0.00  0.00    +0.000 HD
ATOM     13  H   UNL     1      44.401   8.720  12.053  0.00  0.00    +0.000 HD
ENDBRANCH   6   9
BRANCH   1  14
ATOM     14  C   UNL     1      43.759   3.399  10.541  0.00  0.00    +0.000 C 
BRANCH  14  18
ATOM     15  C   UNL     1      46.593   2.607   7.368  0.00  0.00    +0.000 A 
ATOM     16  C   UNL     1      46.116   1.558   8.161  0.00  0.00    +0.000 A 
ATOM     17  C   UNL     1      45.208   1.819   9.192  0.00  0.00    +0.000 A 
ATOM     18  C   UNL     1      44.756   3.126   9.437  0.00  0.00    +0.000 A 
ATOM     19  C   UNL     1      45.261   4.174   8.655  0.00  0.00    +0.000 A 
ATOM     20  C   UNL     1      46.174   3.917   7.629  0.00  0.00    +0.000 A 
BRANCH  15  22
ATOM     21  N   UNL     1      47.498   3.231   5.190  0.00  0.00    +0.000 N 
ATOM     22  C   UNL     1      47.562   2.385   6.263  0.00  0.00    +0.000 C 
ATOM     23  O   UNL     1      48.416   1.510   6.322  0.00  0.00    +0.000 OA
ATOM     24  H   UNL     1      48.235   3.134   4.504  0.00  0.00    +0.000 HD
ATOM     25  H   UNL     1      46.996   4.106   5.219  0.00  0.00    +0.000 HD
ENDBRANCH  15  22
ENDBRANCH  14  18
ENDBRANCH   1  14
TORSDOF 4
ENDMDL
MODEL 2
REMARK VINA RESULT:    -7.840      1.593      1.974
REMARK INTER + INTRA:         -10.166
REMARK INTER:                  -9.727
REMARK INTRA:                  -0.439
REMARK UNBOUND:                -0.492
REMARK  Name = 
REMARK  4 active torsions:
REMARK  status: ('A' for Active; 'I' for Inactive)
REMARK    1  A    between atoms: C_2  and  C_4
REMARK    2  A    between atoms: C_7  and  C_8
REMARK    3  A    between atoms: C_8  and  N_9
REMARK    4  A    between atoms: C_14  and  C_15
REMARK                            x       y       z     vdW  Elec       q    Type
REMARK                         _______ _______ _______ _____ _____    ______ ____
ROOT
ATOM      1  N   UNL     1      44.439   4.577  11.707  0.00  0.00    +0.000 N 
ATOM      2  C   UNL     1      45.010   5.795  12.038  0.00  0.00    +0.000 A 
ATOM      3  N   UNL     1      46.093   5.743  12.824  0.00  0.00    +0.000 NA
ATOM      4  C   UNL     1      46.654   6.911  13.195  0.00  0.00    +0.000 A 
ATOM      5  C   UNL     1      46.181   8.133  12.803  0.00  0.00    +0.000 A 
ATOM      6  C   UNL     1      45.076   8.079  11.990  0.00  0.00    +0.000 A 
ATOM      7  N   UNL     1      44.474   6.932  11.588  0.00  0.00    +0.000 NA
ATOM      8  H   UNL     1      45.134   3.863  11.894  0.00  0.00    +0.000 HD
ENDROOT
BRANCH   6   9
ATOM      9  C   UNL     1      44.463   9.347  11.491  0.00  0.00    +0.000 C 
ATOM     10  N   UNL     1      44.358  10.351  12.415  0.00  0.00    +0.000 N 
ATOM     11  O   UNL     1      44.083   9.486  10.336  0.00  0.00    +0.000 OA
ATOM     12  H   UNL     1      44.730  10.214  13.348  0.00  0.00    +0.000 HD
ATOM     13  H   UNL     1      43.998  11.251  12.135  0.00  0.00    +0.000 HD
ENDBRANCH   6   9
BRANCH   1  14
ATOM     14  C   UNL     1      43.840   4.533  10.392  0.00  0.00    +0.000 C 
BRANCH  14  18
ATOM     15  C   UNL     1      46.559   2.695   7.571  0.00  0.00    +0.000 A 
ATOM     16  C   UNL     1      45.801   1.898   8.436  0.00  0.00    +0.000 A 
ATOM     17  C   UNL     1      44.931   2.496   9.354  0.00  0.00    +0.000 A 
ATOM     18  C   UNL     1      44.797   3.893   9.411  0.00  0.00    +0.000 A 
ATOM     19  C   UNL     1      45.581   4.683   8.558  0.00  0.00    +0.000 A 
ATOM     20  C   UNL     1      46.457   4.088   7.647  0.00  0.00    +0.000 A 
BRANCH  15  22
ATOM     21  N   UNL     1      47.820   2.871   5.490  0.00  0.00    +0.000 N 
ATOM     22  C   UNL     1      47.502   2.110   6.582  0.00  0.00    +0.000 C 
ATOM     23  O   UNL     1      48.012   1.011   6.750  0.00  0.00    +0.000 OA
ATOM     24  H   UNL     1      48.546   2.503   4.889  0.00  0.00    +0.000 HD
ATOM     25  H   UNL     1      47.632   3.861   5.447  0.00  0.00    +0.000 HD
ENDBRANCH  15  22
ENDBRANCH  14  18
ENDBRANCH   1  14
TORSDOF 4
ENDMDL
MODEL 3
REMARK VINA RESULT:    -6.554      3.405      4.776
REMARK INTER + INTRA:          -8.579
REMARK INTER:                  -8.151
REMARK INTRA:                  -0.429
REMARK UNBOUND:                -0.492
REMARK  Name = 
REMARK  4 active torsions:
REMARK  status: ('A' for Active; 'I' for Inactive)
REMARK    1  A    between atoms: C_2  and  C_4
REMARK    2  A    between atoms: C_7  and  C_8
REMARK    3  A    between atoms: C_8  and  N_9
REMARK    4  A    between atoms: C_14  and  C_15
REMARK                            x       y       z     vdW  Elec       q    Type
REMARK                         _______ _______ _______ _____ _____    ______ ____
ROOT
ATOM      1  N   UNL     1      47.765   6.373  13.540  0.00  0.00    +0.000 N 
ATOM      2  C   UNL     1      48.271   6.000  14.774  0.00  0.00    +0.000 A 
ATOM      3  N   UNL     1      49.402   6.610  15.155  0.00  0.00    +0.000 NA
ATOM      4  C   UNL     1      49.943   6.246  16.336  0.00  0.00    +0.000 A 
ATOM      5  C   UNL     1      49.392   5.302  17.158  0.00  0.00    +0.000 A 
ATOM      6  C   UNL     1      48.230   4.746  16.684  0.00  0.00    +0.000 A 
ATOM      7  N   UNL     1      47.645   5.075  15.506  0.00  0.00    +0.000 NA
ATOM      8  H   UNL     1      48.202   7.254  13.294  0.00  0.00    +0.000 HD
ENDROOT
BRANCH   6   9
ATOM      9  C   UNL     1      47.528   3.702  17.491  0.00  0.00    +0.000 C 
ATOM     10  N   UNL     1      48.145   3.352  18.662  0.00  0.00    +0.000 N 
ATOM     11  O   UNL     1      46.472   3.193  17.137  0.00  0.00    +0.000 OA
ATOM     12  H   UNL     1      48.993   3.831  18.944  0.00  0.00    +0.000 HD
ATOM     13  H   UNL     1      47.704   2.688  19.280  0.00  0.00    +0.000 HD
ENDBRANCH   6   9
BRANCH   1  14
ATOM     14  C   UNL     1      46.322   6.347  13.451  0.00  0.00    +0.000 C 
BRANCH  14  18
ATOM     15  C   UNL     1      45.067   3.713  10.254  0.00  0.00    +0.000 A 
ATOM     16  C   UNL     1      45.194   3.223  11.558  0.00  0.00    +0.000 A 
ATOM     17  C   UNL     1      45.611   4.075  12.587  0.00  0.00    +0.000 A 
ATOM     18  C   UNL     1      45.892   5.426  12.331  0.00  0.00    +0.000 A 
ATOM     19  C   UNL     1      45.788   5.901  11.016  0.00  0.00    +0.000 A 
ATOM     20  C   UNL     1      45.380   5.051   9.985  0.00  0.00    +0.000 A 
BRANCH  15  22
ATOM     21  N   UNL     1      44.304   3.469   7.950  0.00  0.00    +0.000 N 
ATOM     22  C   UNL     1      44.634   2.850   9.125  0.00  0.00    +0.000 C 
ATOM     23  O   UNL     1      44.611   1.630   9.219  0.00  0.00    +0.000 OA
ATOM     24  H   UNL     1      44.122   2.860   7.163  0.00  0.00    +0.000 HD
ATOM     25  H   UNL     1      44.555   4.426   7.754  0.00  0.00    +0.000 HD
ENDBRANCH  15  22
ENDBRANCH  14  18
ENDBRANCH   1  14
TORSDOF 4
ENDMDL
MODEL 4
REMARK VINA RESULT:    -6.535      4.708      8.242
REMARK INTER + INTRA:          -8.555
REMARK INTER:                  -8.173
REMARK INTRA:                  -0.383
REMARK UNBOUND:                -0.492
REMARK  Name = 
REMARK  4 active torsions:
REMARK  status: ('A' for Active; 'I' for Inactive)
REMARK    1  A    between atoms: C_2  and  C_4
REMARK    2  A    between atoms: C_7  and  C_8
REMARK    3  A    between atoms: C_8  and  N_9
REMARK    4  A    between atoms: C_14  and  C_15
REMARK                            x       y       z     vdW  Elec       q    Type
REMARK                         _______ _______ _______ _____ _____    ______ ____
ROOT
ATOM      1  N   UNL     1      47.211   5.051  15.828  0.00  0.00    +0.000 N 
ATOM      2  C   UNL     1      46.805   5.084  14.503  0.00  0.00    +0.000 A 
ATOM      3  N   UNL     1      47.317   6.071  13.755  0.00  0.00    +0.000 NA
ATOM      4  C   UNL     1      46.918   6.154  12.470  0.00  0.00    +0.000 A 
ATOM      5  C   UNL     1      46.033   5.282  11.898  0.00  0.00    +0.000 A 
ATOM      6  C   UNL     1      45.577   4.301  12.743  0.00  0.00    +0.000 A 
ATOM      7  N   UNL     1      45.946   4.173  14.041  0.00  0.00    +0.000 NA
ATOM      8  H   UNL     1      48.048   5.619  15.896  0.00  0.00    +0.000 HD
ENDROOT
BRANCH   6   9
ATOM      9  C   UNL     1      44.606   3.284  12.236  0.00  0.00    +0.000 C 
ATOM     10  N   UNL     1      44.878   2.780  10.994  0.00  0.00    +0.000 N 
ATOM     11  O   UNL     1      43.634   2.920  12.886  0.00  0.00    +0.000 OA
ATOM     12  H   UNL     1      45.720   3.070  10.509  0.00  0.00    +0.000 HD
ATOM     13  H   UNL     1      44.292   2.054  10.610  0.00  0.00    +0.000 HD
ENDBRANCH   6   9
BRANCH   1  14
ATOM     14  C   UNL     1      47.311   3.724  16.392  0.00  0.00    +0.000 C 
BRANCH  14  18
ATOM     15  C   UNL     1      51.366   2.974  17.703  0.00  0.00    +0.000 A 
ATOM     16  C   UNL     1      50.837   4.267  17.763  0.00  0.00    +0.000 A 
ATOM     17  C   UNL     1      49.529   4.508  17.328  0.00  0.00    +0.000 A 
ATOM     18  C   UNL     1      48.730   3.461  16.842  0.00  0.00    +0.000 A 
ATOM     19  C   UNL     1      49.278   2.173  16.761  0.00  0.00    +0.000 A 
ATOM     20  C   UNL     1      50.587   1.932  17.186  0.00  0.00    +0.000 A 
BRANCH  15  22
ATOM     21  N   UNL     1      53.009   1.387  18.560  0.00  0.00    +0.000 N 
ATOM     22  C   UNL     1      52.750   2.665  18.147  0.00  0.00    +0.000 C 
ATOM     23  O   UNL     1      53.641   3.503  18.107  0.00  0.00    +0.000 OA
ATOM     24  H   UNL     1      53.978   1.169  18.751  0.00  0.00    +0.000 HD
ATOM     25  H   UNL     1      52.385   0.618  18.366  0.00  0.00    +0.000 HD
ENDBRANCH  15  22
ENDBRANCH  14  18
ENDBRANCH   1  14
TORSDOF 4
ENDMDL
MODEL 5
REMARK VINA RESULT:    -6.374      4.813      6.767
REMARK INTER + INTRA:          -8.357
REMARK INTER:                  -7.967
REMARK INTRA:                  -0.390
REMARK UNBOUND:                -0.492
REMARK  Name = 
REMARK  4 active torsions:
REMARK  status: ('A' for Active; 'I' for Inactive)
REMARK    1  A    between atoms: C_2  and  C_4
REMARK    2  A    between atoms: C_7  and  C_8
REMARK    3  A    between atoms: C_8  and  N_9
REMARK    4  A    between atoms: C_14  and  C_15
REMARK                            x       y       z     vdW  Elec       q    Type
REMARK                         _______ _______ _______ _____ _____    ______ ____
ROOT
ATOM      1  N   UNL     1      48.213   6.663  15.627  0.00  0.00    +0.000 N 
ATOM      2  C   UNL     1      48.258   5.632  16.552  0.00  0.00    +0.000 A 
ATOM      3  N   UNL     1      47.510   5.796  17.652  0.00  0.00    +0.000 NA
ATOM      4  C   UNL     1      47.556   4.828  18.590  0.00  0.00    +0.000 A 
ATOM      5  C   UNL     1      48.314   3.696  18.468  0.00  0.00    +0.000 A 
ATOM      6  C   UNL     1      49.033   3.618  17.301  0.00  0.00    +0.000 A 
ATOM      7  N   UNL     1      49.022   4.561  16.327  0.00  0.00    +0.000 NA
ATOM      8  H   UNL     1      47.389   7.215  15.838  0.00  0.00    +0.000 HD
ENDROOT
BRANCH   6   9
ATOM      9  C   UNL     1      49.900   2.427  17.047  0.00  0.00    +0.000 C 
ATOM     10  N   UNL     1      50.924   2.245  17.937  0.00  0.00    +0.000 N 
ATOM     11  O   UNL     1      49.711   1.661  16.111  0.00  0.00    +0.000 OA
ATOM     12  H   UNL     1      51.017   2.873  18.728  0.00  0.00    +0.000 HD
ATOM     13  H   UNL     1      51.519   1.435  17.854  0.00  0.00    +0.000 HD
ENDBRANCH   6   9
BRANCH   1  14
ATOM     14  C   UNL     1      48.345   6.240  14.251  0.00  0.00    +0.000 C 
BRANCH  14  18
ATOM     15  C   UNL     1      44.437   5.642  12.489  0.00  0.00    +0.000 A 
ATOM     16  C   UNL     1      45.066   6.888  12.395  0.00  0.00    +0.000 A 
ATOM     17  C   UNL     1      46.325   7.081  12.975  0.00  0.00    +0.000 A 
ATOM     18  C   UNL     1      46.976   6.031  13.644  0.00  0.00    +0.000 A 
ATOM     19  C   UNL     1      46.325   4.794  13.756  0.00  0.00    +0.000 A 
ATOM     20  C   UNL     1      45.065   4.602  13.185  0.00  0.00    +0.000 A 
BRANCH  15  22
ATOM     21  N   UNL     1      42.251   6.452  11.771  0.00  0.00    +0.000 N 
ATOM     22  C   UNL     1      43.099   5.386  11.896  0.00  0.00    +0.000 C 
ATOM     23  O   UNL     1      42.774   4.276  11.495  0.00  0.00    +0.000 OA
ATOM     24  H   UNL     1      41.393   6.280  11.265  0.00  0.00    +0.000 HD
ATOM     25  H   UNL     1      42.568   7.407  11.845  0.00  0.00    +0.000 HD
ENDBRANCH  15  22
ENDBRANCH  14  18
ENDBRANCH   1  14
TORSDOF 4
ENDMDL
MODEL 6
REMARK VINA RESULT:    -6.337      3.757      7.944
REMARK INTER + INTRA:          -8.311
REMARK INTER:                  -8.016
REMARK INTRA:                  -0.296
REMARK UNBOUND:                -0.492
REMARK  Name = 
REMARK  4 active torsions:
REMARK  status: ('A' for Active; 'I' for Inactive)
REMARK    1  A    between atoms: C_2  and  C_4
REMARK    2  A    between atoms: C_7  and  C_8
REMARK    3  A    between atoms: C_8  and  N_9
REMARK    4  A    between atoms: C_14  and  C_15
REMARK                            x       y       z     vdW  Elec       q    Type
REMARK                         _______ _______ _______ _____ _____    ______ ____
ROOT
ATOM      1  N   UNL     1      45.436   4.425  14.095  0.00  0.00    +0.000 N 
ATOM      2  C   UNL     1      44.691   4.727  12.966  0.00  0.00    +0.000 A 
ATOM      3  N   UNL     1      43.431   5.130  13.184  0.00  0.00    +0.000 NA
ATOM      4  C   UNL     1      42.666   5.400  12.107  0.00  0.00    +0.000 A 
ATOM      5  C   UNL     1      43.112   5.292  10.819  0.00  0.00    +0.000 A 
ATOM      6  C   UNL     1      44.418   4.884  10.703  0.00  0.00    +0.000 A 
ATOM      7  N   UNL     1      45.230   4.601  11.752  0.00  0.00    +0.000 NA
ATOM      8  H   UNL     1      44.963   4.849  14.885  0.00  0.00    +0.000 HD
ENDROOT
BRANCH   6   9
ATOM      9  C   UNL     1      45.026   4.730   9.347  0.00  0.00    +0.000 C 
ATOM     10  N   UNL     1      44.380   3.861   8.509  0.00  0.00    +0.000 N 
ATOM     11  O   UNL     1      46.030   5.338   9.001  0.00  0.00    +0.000 OA
ATOM     12  H   UNL     1      43.522   3.414   8.816  0.00  0.00    +0.000 HD
ATOM     13  H   UNL     1      44.707   3.744   7.562  0.00  0.00    +0.000 HD
ENDBRANCH   6   9
BRANCH   1  14
ATOM     14  C   UNL     1      46.846   4.722  13.979  0.00  0.00    +0.000 C 
BRANCH  14  18
ATOM     15  C   UNL     1      48.699   4.542  17.886  0.00  0.00    +0.000 A 
ATOM     16  C   UNL     1      48.854   5.680  17.088  0.00  0.00    +0.000 A 
ATOM     17  C   UNL     1      48.263   5.730  15.821  0.00  0.00    +0.000 A 
ATOM     18  C   UNL     1      47.500   4.653  15.341  0.00  0.00    +0.000 A 
ATOM     19  C   UNL     1      47.372   3.506  16.138  0.00  0.00    +0.000 A 
ATOM     20  C   UNL     1      47.969   3.451  17.400  0.00  0.00    +0.000 A 
BRANCH  15  22
ATOM     21  N   UNL     1      48.578   3.816  20.212  0.00  0.00    +0.000 N 
ATOM     22  C   UNL     1      49.310   4.434  19.236  0.00  0.00    +0.000 C 
ATOM     23  O   UNL     1      50.441   4.842  19.465  0.00  0.00    +0.000 OA
ATOM     24  H   UNL     1      49.054   3.654  21.090  0.00  0.00    +0.000 HD
ATOM     25  H   UNL     1      47.770   3.248  20.005  0.00  0.00    +0.000 HD
ENDBRANCH  15  22
ENDBRANCH  14  18
ENDBRANCH   1  14
TORSDOF 4
ENDMDL
MODEL 7
REMARK VINA RESULT:    -6.289      4.117      8.492
REMARK INTER + INTRA:          -8.252
REMARK INTER:                  -7.941
REMARK INTRA:                  -0.311
REMARK UNBOUND:                -0.492
REMARK  Name = 
REMARK  4 active torsions:
REMARK  status: ('A' for Active; 'I' for Inactive)
REMARK    1  A    between atoms: C_2  and  C_4
REMARK    2  A    between atoms: C_7  and  C_8
REMARK    3  A    between atoms: C_8  and  N_9
REMARK    4  A    between atoms: C_14  and  C_15
REMARK                            x       y       z     vdW  Elec       q    Type
REMARK                         _______ _______ _______ _____ _____    ______ ____
ROOT
ATOM      1  N   UNL     1      46.585   5.295  14.022  0.00  0.00    +0.000 N 
ATOM      2  C   UNL     1      46.027   5.149  12.763  0.00  0.00    +0.000 A 
ATOM      3  N   UNL     1      46.242   6.155  11.904  0.00  0.00    +0.000 NA
ATOM      4  C   UNL     1      45.684   6.063  10.680  0.00  0.00    +0.000 A 
ATOM      5  C   UNL     1      44.926   4.999  10.275  0.00  0.00    +0.000 A 
ATOM      6  C   UNL     1      44.776   4.017  11.222  0.00  0.00    +0.000 A 
ATOM      7  N   UNL     1      45.315   4.059  12.465  0.00  0.00    +0.000 NA
ATOM      8  H   UNL     1      47.296   6.014  13.950  0.00  0.00    +0.000 HD
ENDROOT
BRANCH   6   9
ATOM      9  C   UNL     1      43.971   2.799  10.901  0.00  0.00    +0.000 C 
ATOM     10  N   UNL     1      44.424   2.057   9.843  0.00  0.00    +0.000 N 
ATOM     11  O   UNL     1      42.977   2.479  11.539  0.00  0.00    +0.000 OA
ATOM     12  H   UNL     1      45.280   2.328   9.372  0.00  0.00    +0.000 HD
ATOM     13  H   UNL     1      43.957   1.197   9.601  0.00  0.00    +0.000 HD
ENDBRANCH   6   9
BRANCH   1  14
ATOM     14  C   UNL     1      47.011   4.057  14.636  0.00  0.00    +0.000 C 
BRANCH  14  18
ATOM     15  C   UNL     1      48.547   4.854  18.603  0.00  0.00    +0.000 A 
ATOM     16  C   UNL     1      48.793   5.754  17.561  0.00  0.00    +0.000 A 
ATOM     17  C   UNL     1      48.304   5.488  16.278  0.00  0.00    +0.000 A 
ATOM     18  C   UNL     1      47.554   4.329  16.021  0.00  0.00    +0.000 A 
ATOM     19  C   UNL     1      47.335   3.420  17.066  0.00  0.00    +0.000 A 
ATOM     20  C   UNL     1      47.830   3.679  18.346  0.00  0.00    +0.000 A 
BRANCH  15  22
ATOM     21  N   UNL     1      48.694   4.177  20.942  0.00  0.00    +0.000 N 
ATOM     22  C   UNL     1      49.048   5.086  19.983  0.00  0.00    +0.000 C 
ATOM     23  O   UNL     1      49.784   6.026  20.251  0.00  0.00    +0.000 OA
ATOM     24  H   UNL     1      49.135   4.290  21.845  0.00  0.00    +0.000 HD
ATOM     25  H   UNL     1      48.317   3.269  20.715  0.00  0.00    +0.000 HD
ENDBRANCH  15  22
ENDBRANCH  14  18
ENDBRANCH   1  14
TORSDOF 4
ENDMDL
MODEL 8
REMARK VINA RESULT:    -6.192      4.927      8.153
REMARK INTER + INTRA:          -8.132
REMARK INTER:                  -7.712
REMARK INTRA:                  -0.420
REMARK UNBOUND:                -0.492
REMARK  Name = 
REMARK  4 active torsions:
REMARK  status: ('A' for Active; 'I' for Inactive)
REMARK    1  A    between atoms: C_2  and  C_4
REMARK    2  A    between atoms: C_7  and  C_8
REMARK    3  A    between atoms: C_8  and  N_9
REMARK    4  A    between atoms: C_14  and  C_15
REMARK                            x       y       z     vdW  Elec       q    Type
REMARK                         _______ _______ _______ _____ _____    ______ ____
ROOT
ATOM      1  N   UNL     1      47.071   3.762  15.671  0.00  0.00    +0.000 N 
ATOM      2  C   UNL     1      46.856   4.504  14.520  0.00  0.00    +0.000 A 
ATOM      3  N   UNL     1      45.750   4.205  13.825  0.00  0.00    +0.000 NA
ATOM      4  C   UNL     1      45.528   4.883  12.681  0.00  0.00    +0.000 A 
ATOM      5  C   UNL     1      46.362   5.858  12.208  0.00  0.00    +0.000 A 
ATOM      6  C   UNL     1      47.459   6.098  12.998  0.00  0.00    +0.000 A 
ATOM      7  N   UNL     1      47.730   5.445  14.155  0.00  0.00    +0.000 NA
ATOM      8  H   UNL     1      46.186   3.329  15.914  0.00  0.00    +0.000 HD
ENDROOT
BRANCH   6   9
ATOM      9  C   UNL     1      48.448   7.142  12.590  0.00  0.00    +0.000 C 
ATOM     10  N   UNL     1      49.671   7.061  13.199  0.00  0.00    +0.000 N 
ATOM     11  O   UNL     1      48.189   8.010  11.767  0.00  0.00    +0.000 OA
ATOM     12  H   UNL     1      49.863   6.298  13.839  0.00  0.00    +0.000 HD
ATOM     13  H   UNL     1      50.403   7.704  12.937  0.00  0.00    +0.000 HD
ENDBRANCH   6   9
BRANCH   1  14
ATOM     14  C   UNL     1      47.724   4.486  16.738  0.00  0.00    +0.000 C 
BRANCH  14  18
ATOM     15  C   UNL     1      51.504   2.618  17.710  0.00  0.00    +0.000 A 
ATOM     16  C   UNL     1      51.332   3.993  17.900  0.00  0.00    +0.000 A 
ATOM     17  C   UNL     1      50.112   4.595  17.575  0.00  0.00    +0.000 A 
ATOM     18  C   UNL     1      49.047   3.833  17.069  0.00  0.00    +0.000 A 
ATOM     19  C   UNL     1      49.239   2.460  16.856  0.00  0.00    +0.000 A 
ATOM     20  C   UNL     1      50.459   1.858  17.172  0.00  0.00    +0.000 A 
BRANCH  15  22
ATOM     21  N   UNL     1      53.400   2.269  19.205  0.00  0.00    +0.000 N 
ATOM     22  C   UNL     1      52.781   1.929  18.034  0.00  0.00    +0.000 C 
ATOM     23  O   UNL     1      53.246   1.060  17.308  0.00  0.00    +0.000 OA
ATOM     24  H   UNL     1      54.205   1.712  19.460  0.00  0.00    +0.000 HD
ATOM     25  H   UNL     1      52.929   2.777  19.939  0.00  0.00    +0.000 HD
ENDBRANCH  15  22
ENDBRANCH  14  18
ENDBRANCH   1  14
TORSDOF 4
ENDMDL
MODEL 9
REMARK VINA RESULT:    -5.871      3.653      5.433
REMARK INTER + INTRA:          -7.737
REMARK INTER:                  -7.344
REMARK INTRA:                  -0.392
REMARK UNBOUND:                -0.492
REMARK  Name = 
REMARK  4 active torsions:
REMARK  status: ('A' for Active; 'I' for Inactive)
REMARK    1  A    between atoms: C_2  and  C_4
REMARK    2  A    between atoms: C_7  and  C_8
REMARK    3  A    between atoms: C_8  and  N_9
REMARK    4  A    between atoms: C_14  and  C_15
REMARK                            x       y       z     vdW  Elec       q    Type
REMARK                         _______ _______ _______ _____ _____    ______ ____
ROOT
ATOM      1  N   UNL     1      47.595   7.923  12.460  0.00  0.00    +0.000 N 
ATOM      2  C   UNL     1      48.535   7.766  13.466  0.00  0.00    +0.000 A 
ATOM      3  N   UNL     1      49.663   8.477  13.332  0.00  0.00    +0.000 NA
ATOM      4  C   UNL     1      50.616   8.323  14.274  0.00  0.00    +0.000 A 
ATOM      5  C   UNL     1      50.482   7.492  15.352  0.00  0.00    +0.000 A 
ATOM      6  C   UNL     1      49.286   6.819  15.404  0.00  0.00    +0.000 A 
ATOM      7  N   UNL     1      48.297   6.938  14.485  0.00  0.00    +0.000 NA
ATOM      8  H   UNL     1      47.831   8.775  11.963  0.00  0.00    +0.000 HD
ENDROOT
BRANCH   6   9
ATOM      9  C   UNL     1      49.016   5.881  16.536  0.00  0.00    +0.000 C 
ATOM     10  N   UNL     1      47.955   6.214  17.334  0.00  0.00    +0.000 N 
ATOM     11  O   UNL     1      49.691   4.881  16.739  0.00  0.00    +0.000 OA
ATOM     12  H   UNL     1      47.390   7.024  17.104  0.00  0.00    +0.000 HD
ATOM     13  H   UNL     1      47.686   5.601  18.088  0.00  0.00    +0.000 HD
ENDBRANCH   6   9
BRANCH   1  14
ATOM     14  C   UNL     1      46.222   7.820  12.902  0.00  0.00    +0.000 C 
BRANCH  14  18
ATOM     15  C   UNL     1      44.496   4.136  11.429  0.00  0.00    +0.000 A 
ATOM     16  C   UNL     1      45.111   5.026  10.543  0.00  0.00    +0.000 A 
ATOM     17  C   UNL     1      45.658   6.221  11.021  0.00  0.00    +0.000 A 
ATOM     18  C   UNL     1      45.611   6.536  12.388  0.00  0.00    +0.000 A 
ATOM     19  C   UNL     1      44.968   5.650  13.265  0.00  0.00    +0.000 A 
ATOM     20  C   UNL     1      44.413   4.460  12.788  0.00  0.00    +0.000 A 
BRANCH  15  22
ATOM     21  N   UNL     1      44.478   2.230   9.907  0.00  0.00    +0.000 N 
ATOM     22  C   UNL     1      43.893   2.856  10.973  0.00  0.00    +0.000 C 
ATOM     23  O   UNL     1      42.938   2.353  11.548  0.00  0.00    +0.000 OA
ATOM     24  H   UNL     1      44.124   1.309   9.683  0.00  0.00    +0.000 HD
ATOM     25  H   UNL     1      45.401   2.470   9.577  0.00  0.00    +0.000 HD
ENDBRANCH  15  22
ENDBRANCH  14  18
ENDBRANCH   1  14
TORSDOF 4
ENDMDL
