MODEL 1
REMARK VINA RESULT:    -8.143      0.000      0.000
REMARK INTER + INTRA:         -10.050
REMARK INTER:                  -9.571
REMARK INTRA:                  -0.479
REMARK UNBOUND:                -0.479
REMARK  Name = 
REMARK  3 active torsions:
REMARK  status: ('A' for Active; 'I' for Inactive)
REMARK    1  A    between atoms: C_2  and  C_4
REMARK    2  A    between atoms: N_8  and  C_9
REMARK    3  A    between atoms: C_9  and  C_10
REMARK                            x       y       z     vdW  Elec       q    Type
REMARK                         _______ _______ _______ _____ _____    ______ ____
ROOT
ATOM      1  C   UNL     1      46.389   2.298   7.735  0.00  0.00    +0.000 A 
ATOM      2  C   UNL     1      45.581   1.795   8.750  0.00  0.00    +0.000 A 
ATOM      3  C   UNL     1      44.710   2.661   9.412  0.00  0.00    +0.000 A 
ATOM      4  C   UNL     1      44.678   4.009   9.068  0.00  0.00    +0.000 A 
ATOM      5  N   UNL     1      43.798   4.909   9.621  0.00  0.00    +0.000 N 
ATOM      6  N   UNL     1      45.466   4.506   8.095  0.00  0.00    +0.000 NA
ATOM      7  C   UNL     1      46.305   3.651   7.454  0.00  0.00    +0.000 A 
ATOM      8  H   UNL     1      44.000   5.841   9.275  0.00  0.00    +0.000 HD
ENDROOT
BRANCH   1  10
ATOM      9  N   UNL     1      48.468   2.044   6.506  0.00  0.00    +0.000 N 
ATOM     10  C   UNL     1      47.320   1.454   6.959  0.00  0.00    +0.000 C 
ATOM     11  O   UNL     1      47.092   0.269   6.757  0.00  0.00    +0.000 OA
ATOM     12  H   UNL     1      49.143   1.432   6.064  0.00  0.00    +0.000 HD
ATOM     13  H   UNL     1      48.805   2.928   6.860  0.00  0.00    +0.000 HD
ENDBRANCH   1  10
BRANCH   5  14
ATOM     14  C   UNL     1      43.367   4.828  11.001  0.00  0.00    +0.000 C 
BRANCH  14  15
ATOM     15  C   UNL     1      44.499   5.187  11.936  0.00  0.00    +0.000 A 
ATOM     16  C   UNL     1      45.060   4.254  12.818  0.00  0.00    +0.000 A 
ATOM     17  C   UNL     1      46.107   4.645  13.636  0.00  0.00    +0.000 A 
ATOM     18  N   UNL     1      46.646   5.882  13.622  0.00  0.00    +0.000 NA
ATOM     19  C   UNL     1      46.109   6.764  12.754  0.00  0.00    +0.000 A 
ATOM     20  C   UNL     1      45.057   6.468  11.898  0.00  0.00    +0.000 A 
ENDBRANCH  14  15
ENDBRANCH   5  14
TORSDOF 3
ENDMDL
MODEL 2
REMARK VINA RESULT:    -7.318      2.639      6.122
REMARK INTER + INTRA:          -9.080
REMARK INTER:                  -8.659
REMARK INTRA:                  -0.421
REMARK UNBOUND:                -0.479
REMARK  Name = 
REMARK  3 active torsions:
REMARK  status: ('A' for Active; 'I' for Inactive)
REMARK    1  A    between atoms: C_2  and  C_4
REMARK    2  A    between atoms: N_8  and  C_9
REMARK    3  A    between atoms: C_9  and  C_10
REMARK                            x       y       z     vdW  Elec       q    Type
REMARK                         _______ _______ _______ _____ _____    ______ ____
ROOT
ATOM      1  C   UNL     1      46.226   4.784  13.045  0.00  0.00    +0.000 A 
ATOM      2  C   UNL     1      46.289   5.633  11.944  0.00  0.00    +0.000 A 
ATOM      3  C   UNL     1      45.660   5.251  10.759  0.00  0.00    +0.000 A 
ATOM      4  C   UNL     1      45.005   4.025  10.685  0.00  0.00    +0.000 A 
ATOM      5  N   UNL     1      44.302   3.610   9.580  0.00  0.00    +0.000 N 
ATOM      6  N   UNL     1      44.951   3.192  11.742  0.00  0.00    +0.000 NA
ATOM      7  C   UNL     1      45.562   3.578  12.893  0.00  0.00    +0.000 A 
ATOM      8  H   UNL     1      43.968   2.662   9.723  0.00  0.00    +0.000 HD
ENDROOT
BRANCH   1  10
ATOM      9  N   UNL     1      47.483   6.315  14.449  0.00  0.00    +0.000 N 
ATOM     10  C   UNL     1      46.835   5.114  14.348  0.00  0.00    +0.000 C 
ATOM     11  O   UNL     1      46.739   4.362  15.309  0.00  0.00    +0.000 OA
ATOM     12  H   UNL     1      47.808   6.574  15.372  0.00  0.00    +0.000 HD
ATOM     13  H   UNL     1      47.369   7.056  13.773  0.00  0.00    +0.000 HD
ENDBRANCH   1  10
BRANCH   5  14
ATOM     14  C   UNL     1      44.709   3.939   8.230  0.00  0.00    +0.000 C 
BRANCH  14  15
ATOM     15  C   UNL     1      45.824   3.026   7.772  0.00  0.00    +0.000 A 
ATOM     16  C   UNL     1      45.881   1.677   8.145  0.00  0.00    +0.000 A 
ATOM     17  C   UNL     1      46.923   0.893   7.677  0.00  0.00    +0.000 A 
ATOM     18  N   UNL     1      47.890   1.346   6.853  0.00  0.00    +0.000 NA
ATOM     19  C   UNL     1      47.811   2.643   6.486  0.00  0.00    +0.000 A 
ATOM     20  C   UNL     1      46.810   3.508   6.905  0.00  0.00    +0.000 A 
ENDBRANCH  14  15
ENDBRANCH   5  14
TORSDOF 3
ENDMDL
MODEL 3
REMARK VINA RESULT:    -6.653      2.949      6.327
REMARK INTER + INTRA:          -8.298
REMARK INTER:                  -7.919
REMARK INTRA:                  -0.379
REMARK UNBOUND:                -0.479
REMARK  Name = 
REMARK  3 active torsions:
REMARK  status: ('A' for Active; 'I' for Inactive)
REMARK    1  A    between atoms: C_2  and  C_4
REMARK    2  A    between atoms: N_8  and  C_9
REMARK    3  A    between atoms: C_9  and  C_10
REMARK                            x       y       z     vdW  Elec       q    Type
REMARK                         _______ _______ _______ _____ _____    ______ ____
ROOT
ATOM      1  C   UNL     1      45.636   6.616  12.441  0.00  0.00    +0.000 A 
ATOM      2  C   UNL     1      44.624   6.527  11.490  0.00  0.00    +0.000 A 
ATOM      3  C   UNL     1      44.307   5.279  10.954  0.00  0.00    +0.000 A 
ATOM      4  C   UNL     1      45.017   4.151  11.357  0.00  0.00    +0.000 A 
ATOM      5  N   UNL     1      44.718   2.879  10.933  0.00  0.00    +0.000 N 
ATOM      6  N   UNL     1      46.006   4.231  12.269  0.00  0.00    +0.000 NA
ATOM      7  C   UNL     1      46.301   5.452  12.786  0.00  0.00    +0.000 A 
ATOM      8  H   UNL     1      45.404   2.226  11.297  0.00  0.00    +0.000 HD
ENDROOT
BRANCH   1  10
ATOM      9  N   UNL     1      47.046   7.844  13.990  0.00  0.00    +0.000 N 
ATOM     10  C   UNL     1      46.022   7.888  13.084  0.00  0.00    +0.000 C 
ATOM     11  O   UNL     1      45.473   8.943  12.797  0.00  0.00    +0.000 OA
ATOM     12  H   UNL     1      47.368   8.736  14.348  0.00  0.00    +0.000 HD
ATOM     13  H   UNL     1      47.678   7.060  14.064  0.00  0.00    +0.000 HD
ENDBRANCH   1  10
BRANCH   5  14
ATOM     14  C   UNL     1      44.225   2.598   9.600  0.00  0.00    +0.000 C 
BRANCH  14  15
ATOM     15  C   UNL     1      45.362   2.591   8.603  0.00  0.00    +0.000 A 
ATOM     16  C   UNL     1      45.798   3.758   7.963  0.00  0.00    +0.000 A 
ATOM     17  C   UNL     1      46.856   3.683   7.072  0.00  0.00    +0.000 A 
ATOM     18  N   UNL     1      47.520   2.542   6.793  0.00  0.00    +0.000 NA
ATOM     19  C   UNL     1      47.102   1.429   7.431  0.00  0.00    +0.000 A 
ATOM     20  C   UNL     1      46.050   1.403   8.336  0.00  0.00    +0.000 A 
ENDBRANCH  14  15
ENDBRANCH   5  14
TORSDOF 3
ENDMDL
MODEL 4
REMARK VINA RESULT:    -6.424      2.767      6.261
REMARK INTER + INTRA:          -8.029
REMARK INTER:                  -7.738
REMARK INTRA:                  -0.291
REMARK UNBOUND:                -0.479
REMARK  Name = 
REMARK  3 active torsions:
REMARK  status: ('A' for Active; 'I' for Inactive)
REMARK    1  A    between atoms: C_2  and  C_4
REMARK    2  A    between atoms: N_8  and  C_9
REMARK    3  A    between atoms: C_9  and  C_10
REMARK                            x       y       z     vdW  Elec       q    Type
REMARK                         _______ _______ _______ _____ _____    ______ ____
ROOT
ATOM      1  C   UNL     1      46.511   4.661  14.020  0.00  0.00    +0.000 A 
ATOM      2  C   UNL     1      46.431   3.532  13.210  0.00  0.00    +0.000 A 
ATOM      3  C   UNL     1      45.908   3.660  11.923  0.00  0.00    +0.000 A 
ATOM      4  C   UNL     1      45.455   4.898  11.479  0.00  0.00    +0.000 A 
ATOM      5  N   UNL     1      44.995   5.121  10.202  0.00  0.00    +0.000 N 
ATOM      6  N   UNL     1      45.517   5.993  12.261  0.00  0.00    +0.000 NA
ATOM      7  C   UNL     1      46.033   5.856  13.511  0.00  0.00    +0.000 A 
ATOM      8  H   UNL     1      44.654   6.074  10.122  0.00  0.00    +0.000 HD
ENDROOT
BRANCH   1  10
ATOM      9  N   UNL     1      47.857   5.686  15.761  0.00  0.00    +0.000 N 
ATOM     10  C   UNL     1      47.075   4.630  15.385  0.00  0.00    +0.000 C 
ATOM     11  O   UNL     1      46.828   3.714  16.158  0.00  0.00    +0.000 OA
ATOM     12  H   UNL     1      48.154   5.702  16.730  0.00  0.00    +0.000 HD
ATOM     13  H   UNL     1      47.877   6.560  15.256  0.00  0.00    +0.000 HD
ENDBRANCH   1  10
BRANCH   5  14
ATOM     14  C   UNL     1      44.259   4.122   9.455  0.00  0.00    +0.000 C 
BRANCH  14  15
ATOM     15  C   UNL     1      45.198   3.278   8.625  0.00  0.00    +0.000 A 
ATOM     16  C   UNL     1      46.027   3.835   7.642  0.00  0.00    +0.000 A 
ATOM     17  C   UNL     1      46.877   3.005   6.928  0.00  0.00    +0.000 A 
ATOM     18  N   UNL     1      46.975   1.676   7.137  0.00  0.00    +0.000 NA
ATOM     19  C   UNL     1      46.186   1.156   8.101  0.00  0.00    +0.000 A 
ATOM     20  C   UNL     1      45.300   1.904   8.865  0.00  0.00    +0.000 A 
ENDBRANCH  14  15
ENDBRANCH   5  14
TORSDOF 3
ENDMDL
MODEL 5
REMARK VINA RESULT:    -5.794      3.185      6.557
REMARK INTER + INTRA:          -7.288
REMARK INTER:                  -6.900
REMARK INTRA:                  -0.388
REMARK UNBOUND:                -0.479
REMARK  Name = 
REMARK  3 active torsions:
REMARK  status: ('A' for Active; 'I' for Inactive)
REMARK    1  A    between atoms: C_2  and  C_4
REMARK    2  A    between atoms: N_8  and  C_9
REMARK    3  A    between atoms: C_9  and  C_10
REMARK                            x       y       z     vdW  Elec       q    Type
REMARK                         _______ _______ _______ _____ _____    ______ ____
ROOT
ATOM      1  C   UNL     1      47.691   6.841  13.884  0.00  0.00    +0.000 A 
ATOM      2  C   UNL     1      47.446   5.527  13.500  0.00  0.00    +0.000 A 
ATOM      3  C   UNL     1      46.589   5.283  12.427  0.00  0.00    +0.000 A 
ATOM      4  C   UNL     1      45.975   6.349  11.775  0.00  0.00    +0.000 A 
ATOM      5  N   UNL     1      45.177   6.197  10.666  0.00  0.00    +0.000 N 
ATOM      6  N   UNL     1      46.196   7.624  12.148  0.00  0.00    +0.000 NA
ATOM      7  C   UNL     1      47.038   7.848  13.192  0.00  0.00    +0.000 A 
ATOM      8  H   UNL     1      44.784   7.095  10.402  0.00  0.00    +0.000 HD
ENDROOT
BRANCH   1  10
ATOM      9  N   UNL     1      48.184   8.168  15.857  0.00  0.00    +0.000 N 
ATOM     10  C   UNL     1      48.604   7.198  14.988  0.00  0.00    +0.000 C 
ATOM     11  O   UNL     1      49.676   6.630  15.140  0.00  0.00    +0.000 OA
ATOM     12  H   UNL     1      48.773   8.332  16.665  0.00  0.00    +0.000 HD
ATOM     13  H   UNL     1      47.224   8.473  15.914  0.00  0.00    +0.000 HD
ENDBRANCH   1  10
BRANCH   5  14
ATOM     14  C   UNL     1      44.313   5.050  10.480  0.00  0.00    +0.000 C 
BRANCH  14  15
ATOM     15  C   UNL     1      44.940   4.060   9.526  0.00  0.00    +0.000 A 
ATOM     16  C   UNL     1      45.734   4.468   8.445  0.00  0.00    +0.000 A 
ATOM     17  C   UNL     1      46.292   3.506   7.619  0.00  0.00    +0.000 A 
ATOM     18  N   UNL     1      46.136   2.179   7.802  0.00  0.00    +0.000 NA
ATOM     19  C   UNL     1      45.385   1.800   8.858  0.00  0.00    +0.000 A 
ATOM     20  C   UNL     1      44.782   2.687   9.738  0.00  0.00    +0.000 A 
ENDBRANCH  14  15
ENDBRANCH   5  14
TORSDOF 3
ENDMDL
MODEL 6
REMARK VINA RESULT:    -5.629      3.356      6.704
REMARK INTER + INTRA:          -7.095
REMARK INTER:                  -6.722
REMARK INTRA:                  -0.374
REMARK UNBOUND:                -0.479
REMARK  Name = 
REMARK  3 active torsions:
REMARK  status: ('A' for Active; 'I' for Inactive)
REMARK    1  A    between atoms: C_2  and  C_4
REMARK    2  A    between atoms: N_8  and  C_9
REMARK    3  A    between atoms: C_9  and  C_10
REMARK                            x       y       z     vdW  Elec       q    Type
REMARK                         _______ _______ _______ _____ _____    ______ ____
ROOT
ATOM      1  C   UNL     1      47.698   5.201  15.320  0.00  0.00    +0.000 A 
ATOM      2  C   UNL     1      46.737   4.390  14.722  0.00  0.00    +0.000 A 
ATOM      3  C   UNL     1      46.294   4.703  13.437  0.00  0.00    +0.000 A 
ATOM      4  C   UNL     1      46.795   5.825  12.785  0.00  0.00    +0.000 A 
ATOM      5  N   UNL     1      46.465   6.158  11.493  0.00  0.00    +0.000 N 
ATOM      6  N   UNL     1      47.716   6.622  13.362  0.00  0.00    +0.000 NA
ATOM      7  C   UNL     1      48.143   6.304  14.611  0.00  0.00    +0.000 A 
ATOM      8  H   UNL     1      46.891   7.047  11.249  0.00  0.00    +0.000 HD
ENDROOT
BRANCH   1  10
ATOM      9  N   UNL     1      47.385   5.025  17.722  0.00  0.00    +0.000 N 
ATOM     10  C   UNL     1      48.248   4.934  16.664  0.00  0.00    +0.000 C 
ATOM     11  O   UNL     1      49.417   4.613  16.825  0.00  0.00    +0.000 OA
ATOM     12  H   UNL     1      47.749   4.743  18.624  0.00  0.00    +0.000 HD
ATOM     13  H   UNL     1      46.382   5.037  17.610  0.00  0.00    +0.000 HD
ENDBRANCH   1  10
BRANCH   5  14
ATOM     14  C   UNL     1      45.148   5.917  10.939  0.00  0.00    +0.000 C 
BRANCH  14  15
ATOM     15  C   UNL     1      45.171   4.721  10.014  0.00  0.00    +0.000 A 
ATOM     16  C   UNL     1      44.563   3.505  10.355  0.00  0.00    +0.000 A 
ATOM     17  C   UNL     1      44.607   2.455   9.453  0.00  0.00    +0.000 A 
ATOM     18  N   UNL     1      45.188   2.535   8.238  0.00  0.00    +0.000 NA
ATOM     19  C   UNL     1      45.752   3.718   7.916  0.00  0.00    +0.000 A 
ATOM     20  C   UNL     1      45.763   4.825   8.752  0.00  0.00    +0.000 A 
ENDBRANCH  14  15
ENDBRANCH   5  14
TORSDOF 3
ENDMDL
MODEL 7
REMARK VINA RESULT:    -5.619      3.857      5.982
REMARK INTER + INTRA:          -7.083
REMARK INTER:                  -6.759
REMARK INTRA:                  -0.324
REMARK UNBOUND:                -0.479
REMARK  Name = 
REMARK  3 active torsions:
REMARK  status: ('A' for Active; 'I' for Inactive)
REMARK    1  A    between atoms: C_2  and  C_4
REMARK    2  A    between atoms: N_8  and  C_9
REMARK    3  A    between atoms: C_9  and  C_10
REMARK                            x       y       z     vdW  Elec       q    Type
REMARK                         _______ _______ _______ _____ _____    ______ ____
ROOT
ATOM      1  C   UNL     1      45.635   4.860  11.511  0.00  0.00    +0.000 A 
ATOM      2  C   UNL     1      46.323   5.770  12.308  0.00  0.00    +0.000 A 
ATOM      3  C   UNL     1      46.815   5.351  13.544  0.00  0.00    +0.000 A 
ATOM      4  C   UNL     1      46.593   4.045  13.972  0.00  0.00    +0.000 A 
ATOM      5  N   UNL     1      47.106   3.536  15.141  0.00  0.00    +0.000 N 
ATOM      6  N   UNL     1      45.917   3.161  13.212  0.00  0.00    +0.000 NA
ATOM      7  C   UNL     1      45.448   3.581  12.008  0.00  0.00    +0.000 A 
ATOM      8  H   UNL     1      46.761   2.592  15.283  0.00  0.00    +0.000 HD
ENDROOT
BRANCH   1  10
ATOM      9  N   UNL     1      43.744   5.182  10.023  0.00  0.00    +0.000 N 
ATOM     10  C   UNL     1      45.103   5.203  10.178  0.00  0.00    +0.000 C 
ATOM     11  O   UNL     1      45.842   5.523   9.257  0.00  0.00    +0.000 OA
ATOM     12  H   UNL     1      43.388   5.516   9.135  0.00  0.00    +0.000 HD
ATOM     13  H   UNL     1      43.105   5.172  10.804  0.00  0.00    +0.000 HD
ENDBRANCH   1  10
BRANCH   5  14
ATOM     14  C   UNL     1      47.264   4.338  16.336  0.00  0.00    +0.000 C 
BRANCH  14  15
ATOM     15  C   UNL     1      48.675   4.231  16.867  0.00  0.00    +0.000 A 
ATOM     16  C   UNL     1      49.267   2.996  17.165  0.00  0.00    +0.000 A 
ATOM     17  C   UNL     1      50.570   2.969  17.633  0.00  0.00    +0.000 A 
ATOM     18  N   UNL     1      51.328   4.072  17.803  0.00  0.00    +0.000 NA
ATOM     19  C   UNL     1      50.752   5.253  17.494  0.00  0.00    +0.000 A 
ATOM     20  C   UNL     1      49.453   5.383  17.023  0.00  0.00    +0.000 A 
ENDBRANCH  14  15
ENDBRANCH   5  14
TORSDOF 3
ENDMDL
MODEL 8
REMARK VINA RESULT:    -5.504      3.280      5.289
REMARK INTER + INTRA:          -6.948
REMARK INTER:                  -6.633
REMARK INTRA:                  -0.314
REMARK UNBOUND:                -0.479
REMARK  Name = 
REMARK  3 active torsions:
REMARK  status: ('A' for Active; 'I' for Inactive)
REMARK    1  A    between atoms: C_2  and  C_4
REMARK    2  A    between atoms: N_8  and  C_9
REMARK    3  A    between atoms: C_9  and  C_10
REMARK                            x       y       z     vdW  Elec       q    Type
REMARK                         _______ _______ _______ _____ _____    ______ ____
ROOT
ATOM      1  C   UNL     1      44.560   4.046  11.478  0.00  0.00    +0.000 A 
ATOM      2  C   UNL     1      45.085   5.024  10.637  0.00  0.00    +0.000 A 
ATOM      3  C   UNL     1      45.684   6.150  11.201  0.00  0.00    +0.000 A 
ATOM      4  C   UNL     1      45.727   6.293  12.585  0.00  0.00    +0.000 A 
ATOM      5  N   UNL     1      46.363   7.334  13.217  0.00  0.00    +0.000 N 
ATOM      6  N   UNL     1      45.211   5.357  13.405  0.00  0.00    +0.000 NA
ATOM      7  C   UNL     1      44.635   4.263  12.844  0.00  0.00    +0.000 A 
ATOM      8  H   UNL     1      46.209   7.273  14.219  0.00  0.00    +0.000 HD
ENDROOT
BRANCH   1  10
ATOM      9  N   UNL     1      44.509   2.214   9.885  0.00  0.00    +0.000 N 
ATOM     10  C   UNL     1      43.933   2.808  10.974  0.00  0.00    +0.000 C 
ATOM     11  O   UNL     1      42.959   2.315  11.526  0.00  0.00    +0.000 OA
ATOM     12  H   UNL     1      44.132   1.315   9.612  0.00  0.00    +0.000 HD
ATOM     13  H   UNL     1      45.439   2.443   9.565  0.00  0.00    +0.000 HD
ENDBRANCH   1  10
BRANCH   5  14
ATOM     14  C   UNL     1      46.400   8.673  12.666  0.00  0.00    +0.000 C 
BRANCH  14  15
ATOM     15  C   UNL     1      47.782   8.997  12.145  0.00  0.00    +0.000 A 
ATOM     16  C   UNL     1      48.138  10.288  11.733  0.00  0.00    +0.000 A 
ATOM     17  C   UNL     1      49.428  10.518  11.281  0.00  0.00    +0.000 A 
ATOM     18  N   UNL     1      50.385   9.569  11.231  0.00  0.00    +0.000 NA
ATOM     19  C   UNL     1      50.033   8.335  11.650  0.00  0.00    +0.000 A 
ATOM     20  C   UNL     1      48.768   8.005  12.115  0.00  0.00    +0.000 A 
ENDBRANCH  14  15
ENDBRANCH   5  14
TORSDOF 3
ENDMDL
MODEL 9
REMARK VINA RESULT:    -5.484      4.806      8.206
REMARK INTER + INTRA:          -6.924
REMARK INTER:                  -6.684
REMARK INTRA:                  -0.240
REMARK UNBOUND:                -0.479
REMARK  Name = 
REMARK  3 active torsions:
REMARK  status: ('A' for Active; 'I' for Inactive)
REMARK    1  A    between atoms: C_2  and  C_4
REMARK    2  A    between atoms: N_8  and  C_9
REMARK    3  A    between atoms: C_9  and  C_10
REMARK                            x       y       z     vdW  Elec       q    Type
REMARK                         _______ _______ _______ _____ _____    ______ ____
ROOT
ATOM      1  C   UNL     1      48.560   4.428  18.018  0.00  0.00    +0.000 A 
ATOM      2  C   UNL     1      48.820   5.377  17.034  0.00  0.00    +0.000 A 
ATOM      3  C   UNL     1      48.046   5.378  15.873  0.00  0.00    +0.000 A 
ATOM      4  C   UNL     1      47.049   4.423  15.705  0.00  0.00    +0.000 A 
ATOM      5  N   UNL     1      46.197   4.402  14.626  0.00  0.00    +0.000 N 
ATOM      6  N   UNL     1      46.799   3.493  16.646  0.00  0.00    +0.000 NA
ATOM      7  C   UNL     1      47.556   3.506  17.774  0.00  0.00    +0.000 A 
ATOM      8  H   UNL     1      45.600   3.583  14.676  0.00  0.00    +0.000 HD
ENDROOT
BRANCH   1  10
ATOM      9  N   UNL     1      48.664   3.815  20.365  0.00  0.00    +0.000 N 
ATOM     10  C   UNL     1      49.306   4.366  19.290  0.00  0.00    +0.000 C 
ATOM     11  O   UNL     1      50.460   4.762  19.375  0.00  0.00    +0.000 OA
ATOM     12  H   UNL     1      49.219   3.687  21.202  0.00  0.00    +0.000 HD
ATOM     13  H   UNL     1      47.825   3.260  20.275  0.00  0.00    +0.000 HD
ENDBRANCH   1  10
BRANCH   5  14
ATOM     14  C   UNL     1      46.616   4.797  13.296  0.00  0.00    +0.000 C 
BRANCH  14  15
ATOM     15  C   UNL     1      45.425   4.893  12.370  0.00  0.00    +0.000 A 
ATOM     16  C   UNL     1      44.973   3.797  11.623  0.00  0.00    +0.000 A 
ATOM     17  C   UNL     1      43.866   3.949  10.805  0.00  0.00    +0.000 A 
ATOM     18  N   UNL     1      43.169   5.099  10.695  0.00  0.00    +0.000 NA
ATOM     19  C   UNL     1      43.604   6.141  11.435  0.00  0.00    +0.000 A 
ATOM     20  C   UNL     1      44.704   6.087  12.279  0.00  0.00    +0.000 A 
ENDBRANCH  14  15
ENDBRANCH   5  14
TORSDOF 3
ENDMDL
