MODEL 1
REMARK VINA RESULT:    -6.927      0.000      0.000
REMARK INTER + INTRA:         -12.186
REMARK INTER:                 -10.774
REMARK INTRA:                  -1.412
REMARK UNBOUND:                -1.412
REMARK  Name = 
REMARK  10 active torsions:
REMARK  status: ('A' for Active; 'I' for Inactive)
REMARK    1  A    between atoms: N_1  and  C_2
REMARK    2  A    between atoms: C_2  and  C_3
REMARK    3  A    between atoms: C_3  and  N_4
REMARK    4  A    between atoms: N_4  and  C_5
REMARK    5  A    between atoms: C_5  and  C_6
REMARK    6  A    between atoms: C_9  and  C_10
REMARK    7  A    between atoms: C_10  and  C_11
REMARK    8  A    between atoms: C_14  and  C_15
REMARK    9  A    between atoms: C_15  and  N_16
REMARK   10  A    between atoms: C_17  and  C_19
REMARK                            x       y       z     vdW  Elec       q    Type
REMARK                         _______ _______ _______ _____ _____    ______ ____
ROOT
ATOM      1  C   UNL     1      45.692   6.504  12.921  0.00  0.00    +0.000 A 
ATOM      2  C   UNL     1      46.678   5.665  13.459  0.00  0.00    +0.000 A 
ATOM      3  C   UNL     1      47.852   6.199  14.001  0.00  0.00    +0.000 A 
ATOM      4  C   UNL     1      48.060   7.583  14.025  0.00  0.00    +0.000 A 
ATOM      5  C   UNL     1      47.100   8.419  13.440  0.00  0.00    +0.000 A 
ATOM      6  C   UNL     1      45.924   7.886  12.902  0.00  0.00    +0.000 A 
ENDROOT
BRANCH   1   7
ATOM      7  C   UNL     1      44.398   5.931  12.395  0.00  0.00    +0.000 C 
BRANCH   7  11
ATOM      8  C   UNL     1      44.818   3.061   9.263  0.00  0.00    +0.000 A 
ATOM      9  C   UNL     1      45.363   4.330   9.079  0.00  0.00    +0.000 A 
ATOM     10  C   UNL     1      45.240   5.272  10.099  0.00  0.00    +0.000 A 
ATOM     11  C   UNL     1      44.572   4.936  11.275  0.00  0.00    +0.000 A 
ATOM     12  C   UNL     1      44.076   3.641  11.377  0.00  0.00    +0.000 A 
ATOM     13  N   UNL     1      44.179   2.703  10.408  0.00  0.00    +0.000 NA
BRANCH   8  14
ATOM     14  C   UNL     1      45.000   2.001   8.192  0.00  0.00    +0.000 C 
BRANCH  14  15
ATOM     15  N   UNL     1      46.106   1.055   8.455  0.00  0.00    +0.000 NA
ATOM     16  H   UNL     1      46.706   1.501   9.156  0.00  0.00    +0.000 HD
BRANCH  15  17
ATOM     17  C   UNL     1      46.959   0.859   7.268  0.00  0.00    +0.000 C 
BRANCH  17  18
ATOM     18  C   UNL     1      47.596   2.158   6.741  0.00  0.00    +0.000 C 
BRANCH  18  19
ATOM     19  N   UNL     1      48.576   1.876   5.684  0.00  0.00    +0.000 NA
ATOM     20  H   UNL     1      48.379   2.480   4.886  0.00  0.00    +0.000 HD
ATOM     21  H   UNL     1      48.434   0.921   5.356  0.00  0.00    +0.000 HD
ENDBRANCH  18  19
ENDBRANCH  17  18
ENDBRANCH  15  17
ENDBRANCH  14  15
ENDBRANCH   8  14
ENDBRANCH   7  11
ENDBRANCH   1   7
BRANCH   4  22
ATOM     22  C   UNL     1      49.296   8.168  14.659  0.00  0.00    +0.000 C 
BRANCH  22  23
ATOM     23  N   UNL     1      49.444   7.738  16.024  0.00  0.00    +0.000 N 
ATOM     24  C   UNL     1      48.817   8.400  17.049  0.00  0.00    +0.000 C 
ATOM     25  O   UNL     1      48.056   9.341  16.847  0.00  0.00    +0.000 OA
ATOM     26  H   UNL     1      50.229   7.128  16.228  0.00  0.00    +0.000 HD
BRANCH  24  27
ATOM     27  C   UNL     1      49.058   7.888  18.404  0.00  0.00    +0.000 A 
ATOM     28  C   UNL     1      49.624   8.715  19.364  0.00  0.00    +0.000 A 
ATOM     29  S   UNL     1      49.798   7.975  20.889  0.00  0.00    +0.000 S 
ATOM     30  C   UNL     1      49.168   6.506  20.310  0.00  0.00    +0.000 A 
ATOM     31  N   UNL     1      49.063   5.420  21.122  0.00  0.00    +0.000 NA
ATOM     32  C   UNL     1      48.592   4.366  20.545  0.00  0.00    +0.000 A 
ATOM     33  N   UNL     1      48.211   4.298  19.233  0.00  0.00    +0.000 N 
ATOM     34  C   UNL     1      48.281   5.373  18.378  0.00  0.00    +0.000 A 
ATOM     35  O   UNL     1      47.900   5.286  17.214  0.00  0.00    +0.000 OA
ATOM     36  C   UNL     1      48.811   6.584  18.975  0.00  0.00    +0.000 A 
ATOM     37  H   UNL     1      47.841   3.443  18.844  0.00  0.00    +0.000 HD
ENDBRANCH  24  27
ENDBRANCH  22  23
ENDBRANCH   4  22
TORSDOF 10
ENDMDL
MODEL 2
REMARK VINA RESULT:    -6.827      1.859      2.181
REMARK INTER + INTRA:         -12.030
REMARK INTER:                 -10.588
REMARK INTRA:                  -1.442
REMARK UNBOUND:                -1.412
REMARK  Name = 
REMARK  10 active torsions:
REMARK  status: ('A' for Active; 'I' for Inactive)
REMARK    1  A    between atoms: N_1  and  C_2
REMARK    2  A    between atoms: C_2  and  C_3
REMARK    3  A    between atoms: C_3  and  N_4
REMARK    4  A    between atoms: N_4  and  C_5
REMARK    5  A    between atoms: C_5  and  C_6
REMARK    6  A    between atoms: C_9  and  C_10
REMARK    7  A    between atoms: C_10  and  C_11
REMARK    8  A    between atoms: C_14  and  C_15
REMARK    9  A    between atoms: C_15  and  N_16
REMARK   10  A    between atoms: C_17  and  C_19
REMARK                            x       y       z     vdW  Elec       q    Type
REMARK                         _______ _______ _______ _____ _____    ______ ____
ROOT
ATOM      1  C   UNL     1      44.860   6.722  11.600  0.00  0.00    +0.000 A 
ATOM      2  C   UNL     1      46.064   6.055  11.863  0.00  0.00    +0.000 A 
ATOM      3  C   UNL     1      47.049   6.646  12.661  0.00  0.00    +0.000 A 
ATOM      4  C   UNL     1      46.845   7.912  13.222  0.00  0.00    +0.000 A 
ATOM      5  C   UNL     1      45.664   8.602  12.917  0.00  0.00    +0.000 A 
ATOM      6  C   UNL     1      44.678   8.009  12.122  0.00  0.00    +0.000 A 
ENDROOT
BRANCH   1   7
ATOM      7  C   UNL     1      43.772   6.056  10.791  0.00  0.00    +0.000 C 
BRANCH   7  11
ATOM      8  C   UNL     1      44.985   2.371   9.010  0.00  0.00    +0.000 A 
ATOM      9  C   UNL     1      44.238   2.327  10.184  0.00  0.00    +0.000 A 
ATOM     10  C   UNL     1      43.828   3.524  10.769  0.00  0.00    +0.000 A 
ATOM     11  C   UNL     1      44.177   4.738  10.179  0.00  0.00    +0.000 A 
ATOM     12  C   UNL     1      44.909   4.685   8.999  0.00  0.00    +0.000 A 
ATOM     13  N   UNL     1      45.321   3.541   8.405  0.00  0.00    +0.000 NA
BRANCH   8  14
ATOM     14  C   UNL     1      45.382   1.078   8.321  0.00  0.00    +0.000 C 
BRANCH  14  15
ATOM     15  N   UNL     1      46.835   0.939   8.080  0.00  0.00    +0.000 NA
ATOM     16  H   UNL     1      47.288   1.689   8.610  0.00  0.00    +0.000 HD
BRANCH  15  17
ATOM     17  C   UNL     1      47.186   1.179   6.668  0.00  0.00    +0.000 C 
BRANCH  17  18
ATOM     18  C   UNL     1      48.018   2.456   6.446  0.00  0.00    +0.000 C 
BRANCH  18  19
ATOM     19  N   UNL     1      47.193   3.532   5.881  0.00  0.00    +0.000 NA
ATOM     20  H   UNL     1      47.731   4.397   5.894  0.00  0.00    +0.000 HD
ATOM     21  H   UNL     1      46.395   3.688   6.497  0.00  0.00    +0.000 HD
ENDBRANCH  18  19
ENDBRANCH  17  18
ENDBRANCH  15  17
ENDBRANCH  14  15
ENDBRANCH   8  14
ENDBRANCH   7  11
ENDBRANCH   1   7
BRANCH   4  22
ATOM     22  C   UNL     1      47.876   8.531  14.130  0.00  0.00    +0.000 C 
BRANCH  22  23
ATOM     23  N   UNL     1      48.138   7.700  15.276  0.00  0.00    +0.000 N 
ATOM     24  C   UNL     1      49.315   7.003  15.393  0.00  0.00    +0.000 C 
ATOM     25  O   UNL     1      50.217   7.105  14.569  0.00  0.00    +0.000 OA
ATOM     26  H   UNL     1      47.337   7.426  15.835  0.00  0.00    +0.000 HD
BRANCH  24  27
ATOM     27  C   UNL     1      49.465   6.169  16.592  0.00  0.00    +0.000 A 
ATOM     28  C   UNL     1      50.464   6.456  17.512  0.00  0.00    +0.000 A 
ATOM     29  S   UNL     1      50.472   5.415  18.862  0.00  0.00    +0.000 S 
ATOM     30  C   UNL     1      49.171   4.512  18.242  0.00  0.00    +0.000 A 
ATOM     31  N   UNL     1      48.684   3.434  18.914  0.00  0.00    +0.000 NA
ATOM     32  C   UNL     1      47.713   2.828  18.317  0.00  0.00    +0.000 A 
ATOM     33  N   UNL     1      47.180   3.203  17.114  0.00  0.00    +0.000 N 
ATOM     34  C   UNL     1      47.625   4.295  16.407  0.00  0.00    +0.000 A 
ATOM     35  O   UNL     1      47.102   4.622  15.346  0.00  0.00    +0.000 OA
ATOM     36  C   UNL     1      48.723   5.009  17.031  0.00  0.00    +0.000 A 
ATOM     37  H   UNL     1      46.413   2.690  16.705  0.00  0.00    +0.000 HD
ENDBRANCH  24  27
ENDBRANCH  22  23
ENDBRANCH   4  22
TORSDOF 10
ENDMDL
MODEL 3
REMARK VINA RESULT:    -6.795      5.153      7.330
REMARK INTER + INTRA:         -11.980
REMARK INTER:                 -10.895
REMARK INTRA:                  -1.086
REMARK UNBOUND:                -1.412
REMARK  Name = 
REMARK  10 active torsions:
REMARK  status: ('A' for Active; 'I' for Inactive)
REMARK    1  A    between atoms: N_1  and  C_2
REMARK    2  A    between atoms: C_2  and  C_3
REMARK    3  A    between atoms: C_3  and  N_4
REMARK    4  A    between atoms: N_4  and  C_5
REMARK    5  A    between atoms: C_5  and  C_6
REMARK    6  A    between atoms: C_9  and  C_10
REMARK    7  A    between atoms: C_10  and  C_11
REMARK    8  A    between atoms: C_14  and  C_15
REMARK    9  A    between atoms: C_15  and  N_16
REMARK   10  A    between atoms: C_17  and  C_19
REMARK                            x       y       z     vdW  Elec       q    Type
REMARK                         _______ _______ _______ _____ _____    ______ ____
ROOT
ATOM      1  C   UNL     1      47.086   7.138  12.612  0.00  0.00    +0.000 A 
ATOM      2  C   UNL     1      47.157   8.459  12.147  0.00  0.00    +0.000 A 
ATOM      3  C   UNL     1      48.393   9.055  11.877  0.00  0.00    +0.000 A 
ATOM      4  C   UNL     1      49.583   8.339  12.054  0.00  0.00    +0.000 A 
ATOM      5  C   UNL     1      49.515   7.037  12.568  0.00  0.00    +0.000 A 
ATOM      6  C   UNL     1      48.279   6.440  12.835  0.00  0.00    +0.000 A 
ENDROOT
BRANCH   1   7
ATOM      7  C   UNL     1      45.748   6.475  12.842  0.00  0.00    +0.000 C 
BRANCH   7  11
ATOM      8  C   UNL     1      44.826   3.281  10.164  0.00  0.00    +0.000 A 
ATOM      9  C   UNL     1      44.950   4.567   9.645  0.00  0.00    +0.000 A 
ATOM     10  C   UNL     1      45.260   5.616  10.509  0.00  0.00    +0.000 A 
ATOM     11  C   UNL     1      45.433   5.366  11.870  0.00  0.00    +0.000 A 
ATOM     12  C   UNL     1      45.307   4.048  12.294  0.00  0.00    +0.000 A 
ATOM     13  N   UNL     1      45.008   3.007  11.483  0.00  0.00    +0.000 NA
BRANCH   8  14
ATOM     14  C   UNL     1      44.556   2.115   9.230  0.00  0.00    +0.000 C 
BRANCH  14  15
ATOM     15  N   UNL     1      45.773   1.444   8.726  0.00  0.00    +0.000 NA
ATOM     16  H   UNL     1      46.430   1.411   9.512  0.00  0.00    +0.000 HD
BRANCH  15  17
ATOM     17  C   UNL     1      46.446   2.234   7.678  0.00  0.00    +0.000 C 
BRANCH  17  18
ATOM     18  C   UNL     1      47.609   1.491   6.994  0.00  0.00    +0.000 C 
BRANCH  18  19
ATOM     19  N   UNL     1      48.560   2.437   6.393  0.00  0.00    +0.000 NA
ATOM     20  H   UNL     1      48.512   3.317   6.906  0.00  0.00    +0.000 HD
ATOM     21  H   UNL     1      48.253   2.646   5.443  0.00  0.00    +0.000 HD
ENDBRANCH  18  19
ENDBRANCH  17  18
ENDBRANCH  15  17
ENDBRANCH  14  15
ENDBRANCH   8  14
ENDBRANCH   7  11
ENDBRANCH   1   7
BRANCH   4  22
ATOM     22  C   UNL     1      50.914   8.955  11.710  0.00  0.00    +0.000 C 
BRANCH  22  23
ATOM     23  N   UNL     1      51.892   7.951  11.385  0.00  0.00    +0.000 N 
ATOM     24  C   UNL     1      52.691   8.070  10.275  0.00  0.00    +0.000 C 
ATOM     25  O   UNL     1      52.654   9.059   9.550  0.00  0.00    +0.000 OA
ATOM     26  H   UNL     1      51.780   7.043  11.824  0.00  0.00    +0.000 HD
BRANCH  24  27
ATOM     27  C   UNL     1      53.637   6.975  10.028  0.00  0.00    +0.000 A 
ATOM     28  C   UNL     1      54.622   6.690  10.964  0.00  0.00    +0.000 A 
ATOM     29  S   UNL     1      55.608   5.367  10.540  0.00  0.00    +0.000 S 
ATOM     30  C   UNL     1      54.786   5.156   9.066  0.00  0.00    +0.000 A 
ATOM     31  N   UNL     1      55.156   4.182   8.192  0.00  0.00    +0.000 NA
ATOM     32  C   UNL     1      54.461   4.152   7.104  0.00  0.00    +0.000 A 
ATOM     33  N   UNL     1      53.429   5.001   6.811  0.00  0.00    +0.000 N 
ATOM     34  C   UNL     1      53.007   5.988   7.671  0.00  0.00    +0.000 A 
ATOM     35  O   UNL     1      52.057   6.711   7.390  0.00  0.00    +0.000 OA
ATOM     36  C   UNL     1      53.759   6.071   8.908  0.00  0.00    +0.000 A 
ATOM     37  H   UNL     1      52.920   4.918   5.944  0.00  0.00    +0.000 HD
ENDBRANCH  24  27
ENDBRANCH  22  23
ENDBRANCH   4  22
TORSDOF 10
ENDMDL
MODEL 4
REMARK VINA RESULT:    -6.654      5.644      8.021
REMARK INTER + INTRA:         -11.761
REMARK INTER:                 -10.107
REMARK INTRA:                  -1.654
REMARK UNBOUND:                -1.412
REMARK  Name = 
REMARK  10 active torsions:
REMARK  status: ('A' for Active; 'I' for Inactive)
REMARK    1  A    between atoms: N_1  and  C_2
REMARK    2  A    between atoms: C_2  and  C_3
REMARK    3  A    between atoms: C_3  and  N_4
REMARK    4  A    between atoms: N_4  and  C_5
REMARK    5  A    between atoms: C_5  and  C_6
REMARK    6  A    between atoms: C_9  and  C_10
REMARK    7  A    between atoms: C_10  and  C_11
REMARK    8  A    between atoms: C_14  and  C_15
REMARK    9  A    between atoms: C_15  and  N_16
REMARK   10  A    between atoms: C_17  and  C_19
REMARK                            x       y       z     vdW  Elec       q    Type
REMARK                         _______ _______ _______ _____ _____    ______ ____
ROOT
ATOM      1  C   UNL     1      47.455   7.768  12.600  0.00  0.00    +0.000 A 
ATOM      2  C   UNL     1      47.670   9.034  12.038  0.00  0.00    +0.000 A 
ATOM      3  C   UNL     1      48.960   9.454  11.697  0.00  0.00    +0.000 A 
ATOM      4  C   UNL     1      50.060   8.612  11.901  0.00  0.00    +0.000 A 
ATOM      5  C   UNL     1      49.852   7.367  12.511  0.00  0.00    +0.000 A 
ATOM      6  C   UNL     1      48.562   6.946  12.848  0.00  0.00    +0.000 A 
ENDROOT
BRANCH   1   7
ATOM      7  C   UNL     1      46.055   7.291  12.907  0.00  0.00    +0.000 C 
BRANCH   7  11
ATOM      8  C   UNL     1      44.915   3.856  10.644  0.00  0.00    +0.000 A 
ATOM      9  C   UNL     1      44.895   3.772  12.034  0.00  0.00    +0.000 A 
ATOM     10  C   UNL     1      45.256   4.891  12.783  0.00  0.00    +0.000 A 
ATOM     11  C   UNL     1      45.636   6.065  12.136  0.00  0.00    +0.000 A 
ATOM     12  C   UNL     1      45.610   6.062  10.746  0.00  0.00    +0.000 A 
ATOM     13  N   UNL     1      45.264   4.995   9.989  0.00  0.00    +0.000 NA
BRANCH   8  14
ATOM     14  C   UNL     1      44.460   2.671   9.812  0.00  0.00    +0.000 C 
BRANCH  14  15
ATOM     15  N   UNL     1      44.837   2.750   8.384  0.00  0.00    +0.000 NA
ATOM     16  H   UNL     1      44.101   2.261   7.865  0.00  0.00    +0.000 HD
BRANCH  15  17
ATOM     17  C   UNL     1      46.083   2.015   8.099  0.00  0.00    +0.000 C 
BRANCH  17  18
ATOM     18  C   UNL     1      47.105   2.823   7.277  0.00  0.00    +0.000 C 
BRANCH  18  19
ATOM     19  N   UNL     1      46.742   4.246   7.236  0.00  0.00    +0.000 NA
ATOM     20  H   UNL     1      45.930   4.359   6.630  0.00  0.00    +0.000 HD
ATOM     21  H   UNL     1      47.501   4.762   6.790  0.00  0.00    +0.000 HD
ENDBRANCH  18  19
ENDBRANCH  17  18
ENDBRANCH  15  17
ENDBRANCH  14  15
ENDBRANCH   8  14
ENDBRANCH   7  11
ENDBRANCH   1   7
BRANCH   4  22
ATOM     22  C   UNL     1      51.445   9.034  11.484  0.00  0.00    +0.000 C 
BRANCH  22  23
ATOM     23  N   UNL     1      51.807   8.472  10.209  0.00  0.00    +0.000 N 
ATOM     24  C   UNL     1      52.930   8.893   9.541  0.00  0.00    +0.000 C 
ATOM     25  O   UNL     1      53.705   9.712  10.022  0.00  0.00    +0.000 OA
ATOM     26  H   UNL     1      51.079   7.980   9.703  0.00  0.00    +0.000 HD
BRANCH  24  27
ATOM     27  C   UNL     1      53.189   8.267   8.238  0.00  0.00    +0.000 A 
ATOM     28  C   UNL     1      53.177   9.041   7.086  0.00  0.00    +0.000 A 
ATOM     29  S   UNL     1      53.535   8.165   5.668  0.00  0.00    +0.000 S 
ATOM     30  C   UNL     1      53.671   6.710   6.537  0.00  0.00    +0.000 A 
ATOM     31  N   UNL     1      53.946   5.539   5.900  0.00  0.00    +0.000 NA
ATOM     32  C   UNL     1      53.997   4.510   6.678  0.00  0.00    +0.000 A 
ATOM     33  N   UNL     1      53.802   4.542   8.032  0.00  0.00    +0.000 N 
ATOM     34  C   UNL     1      53.540   5.703   8.721  0.00  0.00    +0.000 A 
ATOM     35  O   UNL     1      53.403   5.701   9.941  0.00  0.00    +0.000 OA
ATOM     36  C   UNL     1      53.465   6.892   7.893  0.00  0.00    +0.000 A 
ATOM     37  H   UNL     1      53.864   3.700   8.585  0.00  0.00    +0.000 HD
ENDBRANCH  24  27
ENDBRANCH  22  23
ENDBRANCH   4  22
TORSDOF 10
ENDMDL
MODEL 5
REMARK VINA RESULT:    -6.605      3.170      9.134
REMARK INTER + INTRA:         -11.686
REMARK INTER:                 -10.388
REMARK INTRA:                  -1.298
REMARK UNBOUND:                -1.412
REMARK  Name = 
REMARK  10 active torsions:
REMARK  status: ('A' for Active; 'I' for Inactive)
REMARK    1  A    between atoms: N_1  and  C_2
REMARK    2  A    between atoms: C_2  and  C_3
REMARK    3  A    between atoms: C_3  and  N_4
REMARK    4  A    between atoms: N_4  and  C_5
REMARK    5  A    between atoms: C_5  and  C_6
REMARK    6  A    between atoms: C_9  and  C_10
REMARK    7  A    between atoms: C_10  and  C_11
REMARK    8  A    between atoms: C_14  and  C_15
REMARK    9  A    between atoms: C_15  and  N_16
REMARK   10  A    between atoms: C_17  and  C_19
REMARK                            x       y       z     vdW  Elec       q    Type
REMARK                         _______ _______ _______ _____ _____    ______ ____
ROOT
ATOM      1  C   UNL     1      49.627   8.663  15.459  0.00  0.00    +0.000 A 
ATOM      2  C   UNL     1      48.720   9.587  14.921  0.00  0.00    +0.000 A 
ATOM      3  C   UNL     1      48.202   9.413  13.634  0.00  0.00    +0.000 A 
ATOM      4  C   UNL     1      48.570   8.305  12.862  0.00  0.00    +0.000 A 
ATOM      5  C   UNL     1      49.516   7.409  13.378  0.00  0.00    +0.000 A 
ATOM      6  C   UNL     1      50.031   7.581  14.666  0.00  0.00    +0.000 A 
ENDROOT
BRANCH   1   7
ATOM      7  C   UNL     1      50.136   8.818  16.872  0.00  0.00    +0.000 C 
BRANCH   7  11
ATOM      8  C   UNL     1      49.057   5.668  19.544  0.00  0.00    +0.000 A 
ATOM      9  C   UNL     1      48.041   6.426  18.967  0.00  0.00    +0.000 A 
ATOM     10  C   UNL     1      48.381   7.451  18.085  0.00  0.00    +0.000 A 
ATOM     11  C   UNL     1      49.723   7.705  17.803  0.00  0.00    +0.000 A 
ATOM     12  C   UNL     1      50.667   6.886  18.412  0.00  0.00    +0.000 A 
ATOM     13  N   UNL     1      50.371   5.883  19.271  0.00  0.00    +0.000 NA
BRANCH   8  14
ATOM     14  C   UNL     1      48.704   4.505  20.453  0.00  0.00    +0.000 C 
BRANCH  14  15
ATOM     15  N   UNL     1      48.424   3.239  19.741  0.00  0.00    +0.000 NA
ATOM     16  H   UNL     1      48.956   2.511  20.229  0.00  0.00    +0.000 HD
BRANCH  15  17
ATOM     17  C   UNL     1      48.943   3.255  18.361  0.00  0.00    +0.000 C 
BRANCH  17  18
ATOM     18  C   UNL     1      47.919   2.790  17.309  0.00  0.00    +0.000 C 
BRANCH  18  19
ATOM     19  N   UNL     1      46.568   3.260  17.643  0.00  0.00    +0.000 NA
ATOM     20  H   UNL     1      46.547   4.276  17.563  0.00  0.00    +0.000 HD
ATOM     21  H   UNL     1      46.384   3.050  18.624  0.00  0.00    +0.000 HD
ENDBRANCH  18  19
ENDBRANCH  17  18
ENDBRANCH  15  17
ENDBRANCH  14  15
ENDBRANCH   8  14
ENDBRANCH   7  11
ENDBRANCH   1   7
BRANCH   4  22
ATOM     22  C   UNL     1      47.971   8.080  11.497  0.00  0.00    +0.000 C 
BRANCH  22  23
ATOM     23  N   UNL     1      47.178   6.881  11.460  0.00  0.00    +0.000 N 
ATOM     24  C   UNL     1      45.827   6.915  11.704  0.00  0.00    +0.000 C 
ATOM     25  O   UNL     1      45.227   7.967  11.899  0.00  0.00    +0.000 OA
ATOM     26  H   UNL     1      47.676   6.000  11.530  0.00  0.00    +0.000 HD
BRANCH  24  27
ATOM     27  C   UNL     1      45.122   5.628  11.662  0.00  0.00    +0.000 A 
ATOM     28  C   UNL     1      44.440   5.178  12.784  0.00  0.00    +0.000 A 
ATOM     29  S   UNL     1      43.646   3.687  12.551  0.00  0.00    +0.000 S 
ATOM     30  C   UNL     1      44.225   3.565  10.957  0.00  0.00    +0.000 A 
ATOM     31  N   UNL     1      43.926   2.486  10.185  0.00  0.00    +0.000 NA
ATOM     32  C   UNL     1      44.452   2.513   9.006  0.00  0.00    +0.000 A 
ATOM     33  N   UNL     1      45.244   3.519   8.526  0.00  0.00    +0.000 N 
ATOM     34  C   UNL     1      45.559   4.638   9.262  0.00  0.00    +0.000 A 
ATOM     35  O   UNL     1      46.246   5.538   8.788  0.00  0.00    +0.000 OA
ATOM     36  C   UNL     1      44.998   4.656  10.600  0.00  0.00    +0.000 A 
ATOM     37  H   UNL     1      45.618   3.483   7.589  0.00  0.00    +0.000 HD
ENDBRANCH  24  27
ENDBRANCH  22  23
ENDBRANCH   4  22
TORSDOF 10
ENDMDL
MODEL 6
REMARK VINA RESULT:    -6.574      4.870      5.997
REMARK INTER + INTRA:         -11.637
REMARK INTER:                 -10.282
REMARK INTRA:                  -1.355
REMARK UNBOUND:                -1.412
REMARK  Name = 
REMARK  10 active torsions:
REMARK  status: ('A' for Active; 'I' for Inactive)
REMARK    1  A    between atoms: N_1  and  C_2
REMARK    2  A    between atoms: C_2  and  C_3
REMARK    3  A    between atoms: C_3  and  N_4
REMARK    4  A    between atoms: N_4  and  C_5
REMARK    5  A    between atoms: C_5  and  C_6
REMARK    6  A    between atoms: C_9  and  C_10
REMARK    7  A    between atoms: C_10  and  C_11
REMARK    8  A    between atoms: C_14  and  C_15
REMARK    9  A    between atoms: C_15  and  N_16
REMARK   10  A    between atoms: C_17  and  C_19
REMARK                            x       y       z     vdW  Elec       q    Type
REMARK                         _______ _______ _______ _____ _____    ______ ____
ROOT
ATOM      1  C   UNL     1      45.326   7.370  12.507  0.00  0.00    +0.000 A 
ATOM      2  C   UNL     1      44.879   8.510  11.825  0.00  0.00    +0.000 A 
ATOM      3  C   UNL     1      45.679   9.654  11.746  0.00  0.00    +0.000 A 
ATOM      4  C   UNL     1      46.948   9.678  12.336  0.00  0.00    +0.000 A 
ATOM      5  C   UNL     1      47.374   8.557  13.062  0.00  0.00    +0.000 A 
ATOM      6  C   UNL     1      46.576   7.412  13.138  0.00  0.00    +0.000 A 
ENDROOT
BRANCH   1   7
ATOM      7  C   UNL     1      44.488   6.114  12.537  0.00  0.00    +0.000 C 
BRANCH   7  11
ATOM      8  C   UNL     1      45.014   3.476   9.221  0.00  0.00    +0.000 A 
ATOM      9  C   UNL     1      45.632   4.724   9.182  0.00  0.00    +0.000 A 
ATOM     10  C   UNL     1      45.475   5.589  10.263  0.00  0.00    +0.000 A 
ATOM     11  C   UNL     1      44.702   5.200  11.356  0.00  0.00    +0.000 A 
ATOM     12  C   UNL     1      44.137   3.930  11.315  0.00  0.00    +0.000 A 
ATOM     13  N   UNL     1      44.270   3.066  10.282  0.00  0.00    +0.000 NA
BRANCH   8  14
ATOM     14  C   UNL     1      45.229   2.494   8.084  0.00  0.00    +0.000 C 
BRANCH  14  15
ATOM     15  N   UNL     1      45.990   1.283   8.462  0.00  0.00    +0.000 NA
ATOM     16  H   UNL     1      46.477   1.510   9.334  0.00  0.00    +0.000 HD
BRANCH  15  17
ATOM     17  C   UNL     1      47.048   0.969   7.484  0.00  0.00    +0.000 C 
BRANCH  17  18
ATOM     18  C   UNL     1      47.590   2.204   6.740  0.00  0.00    +0.000 C 
BRANCH  18  19
ATOM     19  N   UNL     1      48.576   1.816   5.722  0.00  0.00    +0.000 NA
ATOM     20  H   UNL     1      49.060   0.978   6.039  0.00  0.00    +0.000 HD
ATOM     21  H   UNL     1      49.285   2.547   5.662  0.00  0.00    +0.000 HD
ENDBRANCH  18  19
ENDBRANCH  17  18
ENDBRANCH  15  17
ENDBRANCH  14  15
ENDBRANCH   8  14
ENDBRANCH   7  11
ENDBRANCH   1   7
BRANCH   4  22
ATOM     22  C   UNL     1      47.840  10.886  12.205  0.00  0.00    +0.000 C 
BRANCH  22  23
ATOM     23  N   UNL     1      49.088  10.555  11.571  0.00  0.00    +0.000 N 
ATOM     24  C   UNL     1      50.287  10.790  12.197  0.00  0.00    +0.000 C 
ATOM     25  O   UNL     1      50.349  11.227  13.341  0.00  0.00    +0.000 OA
ATOM     26  H   UNL     1      49.067  10.416  10.566  0.00  0.00    +0.000 HD
BRANCH  24  27
ATOM     27  C   UNL     1      51.498  10.435  11.445  0.00  0.00    +0.000 A 
ATOM     28  C   UNL     1      52.421  11.419  11.120  0.00  0.00    +0.000 A 
ATOM     29  S   UNL     1      53.784  10.829  10.283  0.00  0.00    +0.000 S 
ATOM     30  C   UNL     1      53.167   9.244  10.283  0.00  0.00    +0.000 A 
ATOM     31  N   UNL     1      53.849   8.228   9.689  0.00  0.00    +0.000 NA
ATOM     32  C   UNL     1      53.253   7.084   9.743  0.00  0.00    +0.000 A 
ATOM     33  N   UNL     1      52.041   6.861  10.338  0.00  0.00    +0.000 N 
ATOM     34  C   UNL     1      51.323   7.852  10.966  0.00  0.00    +0.000 A 
ATOM     35  O   UNL     1      50.255   7.610  11.518  0.00  0.00    +0.000 OA
ATOM     36  C   UNL     1      51.946   9.162  10.929  0.00  0.00    +0.000 A 
ATOM     37  H   UNL     1      51.633   5.938  10.352  0.00  0.00    +0.000 HD
ENDBRANCH  24  27
ENDBRANCH  22  23
ENDBRANCH   4  22
TORSDOF 10
ENDMDL
MODEL 7
REMARK VINA RESULT:    -6.460      4.815      9.425
REMARK INTER + INTRA:         -11.459
REMARK INTER:                 -10.139
REMARK INTRA:                  -1.320
REMARK UNBOUND:                -1.412
REMARK  Name = 
REMARK  10 active torsions:
REMARK  status: ('A' for Active; 'I' for Inactive)
REMARK    1  A    between atoms: N_1  and  C_2
REMARK    2  A    between atoms: C_2  and  C_3
REMARK    3  A    between atoms: C_3  and  N_4
REMARK    4  A    between atoms: N_4  and  C_5
REMARK    5  A    between atoms: C_5  and  C_6
REMARK    6  A    between atoms: C_9  and  C_10
REMARK    7  A    between atoms: C_10  and  C_11
REMARK    8  A    between atoms: C_14  and  C_15
REMARK    9  A    between atoms: C_15  and  N_16
REMARK   10  A    between atoms: C_17  and  C_19
REMARK                            x       y       z     vdW  Elec       q    Type
REMARK                         _______ _______ _______ _____ _____    ______ ____
ROOT
ATOM      1  C   UNL     1      49.461   5.461  17.074  0.00  0.00    +0.000 A 
ATOM      2  C   UNL     1      48.262   5.075  16.459  0.00  0.00    +0.000 A 
ATOM      3  C   UNL     1      47.857   5.660  15.255  0.00  0.00    +0.000 A 
ATOM      4  C   UNL     1      48.647   6.636  14.636  0.00  0.00    +0.000 A 
ATOM      5  C   UNL     1      49.819   7.059  15.277  0.00  0.00    +0.000 A 
ATOM      6  C   UNL     1      50.227   6.471  16.478  0.00  0.00    +0.000 A 
ENDROOT
BRANCH   1   7
ATOM      7  C   UNL     1      49.929   4.782  18.339  0.00  0.00    +0.000 C 
BRANCH   7  11
ATOM      8  C   UNL     1      53.056   1.926  17.800  0.00  0.00    +0.000 A 
ATOM      9  C   UNL     1      51.771   1.591  17.380  0.00  0.00    +0.000 A 
ATOM     10  C   UNL     1      50.744   2.520  17.542  0.00  0.00    +0.000 A 
ATOM     11  C   UNL     1      51.015   3.757  18.126  0.00  0.00    +0.000 A 
ATOM     12  C   UNL     1      52.330   4.010  18.499  0.00  0.00    +0.000 A 
ATOM     13  N   UNL     1      53.349   3.132  18.355  0.00  0.00    +0.000 NA
BRANCH   8  14
ATOM     14  C   UNL     1      54.200   0.955  17.571  0.00  0.00    +0.000 C 
BRANCH  14  15
ATOM     15  N   UNL     1      53.773  -0.406  17.179  0.00  0.00    +0.000 NA
ATOM     16  H   UNL     1      52.834  -0.536  17.567  0.00  0.00    +0.000 HD
BRANCH  15  17
ATOM     17  C   UNL     1      54.611  -1.448  17.801  0.00  0.00    +0.000 C 
BRANCH  17  18
ATOM     18  C   UNL     1      54.147  -1.853  19.213  0.00  0.00    +0.000 C 
BRANCH  18  19
ATOM     19  N   UNL     1      52.694  -2.061  19.253  0.00  0.00    +0.000 NA
ATOM     20  H   UNL     1      52.478  -2.945  18.792  0.00  0.00    +0.000 HD
ATOM     21  H   UNL     1      52.246  -1.335  18.693  0.00  0.00    +0.000 HD
ENDBRANCH  18  19
ENDBRANCH  17  18
ENDBRANCH  15  17
ENDBRANCH  14  15
ENDBRANCH   8  14
ENDBRANCH   7  11
ENDBRANCH   1   7
BRANCH   4  22
ATOM     22  C   UNL     1      48.245   7.229  13.310  0.00  0.00    +0.000 C 
BRANCH  22  23
ATOM     23  N   UNL     1      47.510   6.286  12.510  0.00  0.00    +0.000 N 
ATOM     24  C   UNL     1      46.434   6.682  11.755  0.00  0.00    +0.000 C 
ATOM     25  O   UNL     1      46.091   7.857  11.676  0.00  0.00    +0.000 OA
ATOM     26  H   UNL     1      47.627   5.304  12.737  0.00  0.00    +0.000 HD
BRANCH  24  27
ATOM     27  C   UNL     1      45.745   5.631  10.996  0.00  0.00    +0.000 A 
ATOM     28  C   UNL     1      45.815   5.621   9.610  0.00  0.00    +0.000 A 
ATOM     29  S   UNL     1      44.993   4.312   8.892  0.00  0.00    +0.000 S 
ATOM     30  C   UNL     1      44.472   3.737  10.405  0.00  0.00    +0.000 A 
ATOM     31  N   UNL     1      43.687   2.630  10.500  0.00  0.00    +0.000 NA
ATOM     32  C   UNL     1      43.347   2.322  11.706  0.00  0.00    +0.000 A 
ATOM     33  N   UNL     1      43.721   3.013  12.826  0.00  0.00    +0.000 N 
ATOM     34  C   UNL     1      44.528   4.126  12.781  0.00  0.00    +0.000 A 
ATOM     35  O   UNL     1      44.872   4.704  13.808  0.00  0.00    +0.000 OA
ATOM     36  C   UNL     1      44.935   4.522  11.447  0.00  0.00    +0.000 A 
ATOM     37  H   UNL     1      43.427   2.713  13.743  0.00  0.00    +0.000 HD
ENDBRANCH  24  27
ENDBRANCH  22  23
ENDBRANCH   4  22
TORSDOF 10
ENDMDL
MODEL 8
REMARK VINA RESULT:    -6.454      5.042      9.189
REMARK INTER + INTRA:         -11.450
REMARK INTER:                  -9.930
REMARK INTRA:                  -1.520
REMARK UNBOUND:                -1.412
REMARK  Name = 
REMARK  10 active torsions:
REMARK  status: ('A' for Active; 'I' for Inactive)
REMARK    1  A    between atoms: N_1  and  C_2
REMARK    2  A    between atoms: C_2  and  C_3
REMARK    3  A    between atoms: C_3  and  N_4
REMARK    4  A    between atoms: N_4  and  C_5
REMARK    5  A    between atoms: C_5  and  C_6
REMARK    6  A    between atoms: C_9  and  C_10
REMARK    7  A    between atoms: C_10  and  C_11
REMARK    8  A    between atoms: C_14  and  C_15
REMARK    9  A    between atoms: C_15  and  N_16
REMARK   10  A    between atoms: C_17  and  C_19
REMARK                            x       y       z     vdW  Elec       q    Type
REMARK                         _______ _______ _______ _____ _____    ______ ____
ROOT
ATOM      1  C   UNL     1      50.793   4.838  17.751  0.00  0.00    +0.000 A 
ATOM      2  C   UNL     1      51.648   5.745  17.110  0.00  0.00    +0.000 A 
ATOM      3  C   UNL     1      51.140   6.699  16.222  0.00  0.00    +0.000 A 
ATOM      4  C   UNL     1      49.766   6.773  15.966  0.00  0.00    +0.000 A 
ATOM      5  C   UNL     1      48.917   5.833  16.566  0.00  0.00    +0.000 A 
ATOM      6  C   UNL     1      49.424   4.882  17.456  0.00  0.00    +0.000 A 
ENDROOT
BRANCH   1   7
ATOM      7  C   UNL     1      51.335   3.851  18.758  0.00  0.00    +0.000 C 
BRANCH   7  11
ATOM      8  C   UNL     1      53.761   0.795  17.025  0.00  0.00    +0.000 A 
ATOM      9  C   UNL     1      54.387   1.925  17.547  0.00  0.00    +0.000 A 
ATOM     10  C   UNL     1      53.606   2.925  18.123  0.00  0.00    +0.000 A 
ATOM     11  C   UNL     1      52.219   2.784  18.162  0.00  0.00    +0.000 A 
ATOM     12  C   UNL     1      51.683   1.615  17.633  0.00  0.00    +0.000 A 
ATOM     13  N   UNL     1      52.413   0.626  17.068  0.00  0.00    +0.000 NA
BRANCH   8  14
ATOM     14  C   UNL     1      54.599  -0.334  16.455  0.00  0.00    +0.000 C 
BRANCH  14  15
ATOM     15  N   UNL     1      54.305  -1.663  17.034  0.00  0.00    +0.000 NA
ATOM     16  H   UNL     1      53.288  -1.705  17.156  0.00  0.00    +0.000 HD
BRANCH  15  17
ATOM     17  C   UNL     1      54.876  -1.815  18.385  0.00  0.00    +0.000 C 
BRANCH  17  18
ATOM     18  C   UNL     1      53.867  -2.330  19.429  0.00  0.00    +0.000 C 
BRANCH  18  19
ATOM     19  N   UNL     1      52.527  -1.780  19.184  0.00  0.00    +0.000 NA
ATOM     20  H   UNL     1      52.011  -2.430  18.593  0.00  0.00    +0.000 HD
ATOM     21  H   UNL     1      52.622  -0.921  18.643  0.00  0.00    +0.000 HD
ENDBRANCH  18  19
ENDBRANCH  17  18
ENDBRANCH  15  17
ENDBRANCH  14  15
ENDBRANCH   8  14
ENDBRANCH   7  11
ENDBRANCH   1   7
BRANCH   4  22
ATOM     22  C   UNL     1      49.205   7.835  15.056  0.00  0.00    +0.000 C 
BRANCH  22  23
ATOM     23  N   UNL     1      47.975   7.410  14.441  0.00  0.00    +0.000 N 
ATOM     24  C   UNL     1      47.975   6.750  13.237  0.00  0.00    +0.000 C 
ATOM     25  O   UNL     1      49.014   6.438  12.665  0.00  0.00    +0.000 OA
ATOM     26  H   UNL     1      47.123   7.850  14.770  0.00  0.00    +0.000 HD
BRANCH  24  27
ATOM     27  C   UNL     1      46.661   6.384  12.692  0.00  0.00    +0.000 A 
ATOM     28  C   UNL     1      45.847   7.362  12.139  0.00  0.00    +0.000 A 
ATOM     29  S   UNL     1      44.377   6.760  11.520  0.00  0.00    +0.000 S 
ATOM     30  C   UNL     1      44.755   5.177  12.012  0.00  0.00    +0.000 A 
ATOM     31  N   UNL     1      43.886   4.152  11.800  0.00  0.00    +0.000 NA
ATOM     32  C   UNL     1      44.290   3.010  12.246  0.00  0.00    +0.000 A 
ATOM     33  N   UNL     1      45.484   2.796  12.880  0.00  0.00    +0.000 N 
ATOM     34  C   UNL     1      46.402   3.796  13.100  0.00  0.00    +0.000 A 
ATOM     35  O   UNL     1      47.478   3.563  13.643  0.00  0.00    +0.000 OA
ATOM     36  C   UNL     1      45.994   5.104  12.624  0.00  0.00    +0.000 A 
ATOM     37  H   UNL     1      45.744   1.874  13.197  0.00  0.00    +0.000 HD
ENDBRANCH  24  27
ENDBRANCH  22  23
ENDBRANCH   4  22
TORSDOF 10
ENDMDL
MODEL 9
REMARK VINA RESULT:    -6.387      3.038      4.282
REMARK INTER + INTRA:         -11.346
REMARK INTER:                  -9.834
REMARK INTRA:                  -1.512
REMARK UNBOUND:                -1.412
REMARK  Name = 
REMARK  10 active torsions:
REMARK  status: ('A' for Active; 'I' for Inactive)
REMARK    1  A    between atoms: N_1  and  C_2
REMARK    2  A    between atoms: C_2  and  C_3
REMARK    3  A    between atoms: C_3  and  N_4
REMARK    4  A    between atoms: N_4  and  C_5
REMARK    5  A    between atoms: C_5  and  C_6
REMARK    6  A    between atoms: C_9  and  C_10
REMARK    7  A    between atoms: C_10  and  C_11
REMARK    8  A    between atoms: C_14  and  C_15
REMARK    9  A    between atoms: C_15  and  N_16
REMARK   10  A    between atoms: C_17  and  C_19
REMARK                            x       y       z     vdW  Elec       q    Type
REMARK                         _______ _______ _______ _____ _____    ______ ____
ROOT
ATOM      1  C   UNL     1      48.406   8.072  13.654  0.00  0.00    +0.000 A 
ATOM      2  C   UNL     1      48.015   8.621  14.883  0.00  0.00    +0.000 A 
ATOM      3  C   UNL     1      48.917   8.697  15.950  0.00  0.00    +0.000 A 
ATOM      4  C   UNL     1      50.231   8.237  15.806  0.00  0.00    +0.000 A 
ATOM      5  C   UNL     1      50.607   7.641  14.595  0.00  0.00    +0.000 A 
ATOM      6  C   UNL     1      49.707   7.568  13.527  0.00  0.00    +0.000 A 
ENDROOT
BRANCH   1   7
ATOM      7  C   UNL     1      47.451   8.049  12.484  0.00  0.00    +0.000 C 
BRANCH   7  11
ATOM      8  C   UNL     1      44.496   4.970  12.586  0.00  0.00    +0.000 A 
ATOM      9  C   UNL     1      45.663   4.795  13.326  0.00  0.00    +0.000 A 
ATOM     10  C   UNL     1      46.630   5.798  13.308  0.00  0.00    +0.000 A 
ATOM     11  C   UNL     1      46.421   6.949  12.549  0.00  0.00    +0.000 A 
ATOM     12  C   UNL     1      45.220   7.044  11.856  0.00  0.00    +0.000 A 
ATOM     13  N   UNL     1      44.260   6.090  11.853  0.00  0.00    +0.000 NA
BRANCH   8  14
ATOM     14  C   UNL     1      43.402   3.920  12.646  0.00  0.00    +0.000 C 
BRANCH  14  15
ATOM     15  N   UNL     1      42.920   3.466  11.324  0.00  0.00    +0.000 NA
ATOM     16  H   UNL     1      42.145   2.821  11.506  0.00  0.00    +0.000 HD
BRANCH  15  17
ATOM     17  C   UNL     1      43.938   2.675  10.607  0.00  0.00    +0.000 C 
BRANCH  17  18
ATOM     18  C   UNL     1      44.574   3.417   9.417  0.00  0.00    +0.000 C 
BRANCH  18  19
ATOM     19  N   UNL     1      43.796   4.611   9.062  0.00  0.00    +0.000 NA
ATOM     20  H   UNL     1      43.849   4.748   8.054  0.00  0.00    +0.000 HD
ATOM     21  H   UNL     1      44.242   5.426   9.481  0.00  0.00    +0.000 HD
ENDBRANCH  18  19
ENDBRANCH  17  18
ENDBRANCH  15  17
ENDBRANCH  14  15
ENDBRANCH   8  14
ENDBRANCH   7  11
ENDBRANCH   1   7
BRANCH   4  22
ATOM     22  C   UNL     1      51.224   8.369  16.931  0.00  0.00    +0.000 C 
BRANCH  22  23
ATOM     23  N   UNL     1      51.878   7.117  17.209  0.00  0.00    +0.000 N 
ATOM     24  C   UNL     1      51.366   6.239  18.131  0.00  0.00    +0.000 C 
ATOM     25  O   UNL     1      50.304   6.446  18.708  0.00  0.00    +0.000 OA
ATOM     26  H   UNL     1      52.848   7.035  16.926  0.00  0.00    +0.000 HD
BRANCH  24  27
ATOM     27  C   UNL     1      52.128   5.003  18.351  0.00  0.00    +0.000 A 
ATOM     28  C   UNL     1      53.369   5.059  18.971  0.00  0.00    +0.000 A 
ATOM     29  S   UNL     1      54.098   3.533  19.182  0.00  0.00    +0.000 S 
ATOM     30  C   UNL     1      52.804   2.746  18.409  0.00  0.00    +0.000 A 
ATOM     31  N   UNL     1      52.811   1.397  18.231  0.00  0.00    +0.000 NA
ATOM     32  C   UNL     1      51.778   0.937  17.607  0.00  0.00    +0.000 A 
ATOM     33  N   UNL     1      50.738   1.699  17.149  0.00  0.00    +0.000 N 
ATOM     34  C   UNL     1      50.678   3.062  17.321  0.00  0.00    +0.000 A 
ATOM     35  O   UNL     1      49.714   3.711  16.925  0.00  0.00    +0.000 OA
ATOM     36  C   UNL     1      51.819   3.633  18.011  0.00  0.00    +0.000 A 
ATOM     37  H   UNL     1      49.955   1.275  16.676  0.00  0.00    +0.000 HD
ENDBRANCH  24  27
ENDBRANCH  22  23
ENDBRANCH   4  22
TORSDOF 10
ENDMDL
