MODEL 1
REMARK VINA RESULT:    -8.215      0.000      0.000
REMARK INTER + INTRA:         -13.343
REMARK INTER:                 -12.057
REMARK INTRA:                  -1.286
REMARK UNBOUND:                -1.286
REMARK  Name = 
REMARK  8 active torsions:
REMARK  status: ('A' for Active; 'I' for Inactive)
REMARK    1  A    between atoms: C_2  and  C_3
REMARK    2  A    between atoms: C_3  and  N_4
REMARK    3  A    between atoms: C_3  and  C_26
REMARK    4  A    between atoms: N_4  and  C_5
REMARK    5  A    between atoms: C_5  and  C_6
REMARK    6  A    between atoms: C_9  and  C_10
REMARK    7  A    between atoms: C_10  and  N_11
REMARK    8  A    between atoms: C_12  and  C_14
REMARK                            x       y       z     vdW  Elec       q    Type
REMARK                         _______ _______ _______ _____ _____    ______ ____
ROOT
ATOM      1  C   UNL     1      45.425   6.789  11.256  0.00  0.00    +0.000 A 
ATOM      2  C   UNL     1      46.753   6.365  11.405  0.00  0.00    +0.000 A 
ATOM      3  C   UNL     1      47.574   6.947  12.367  0.00  0.00    +0.000 A 
ATOM      4  C   UNL     1      47.086   7.972  13.187  0.00  0.00    +0.000 A 
ATOM      5  C   UNL     1      45.784   8.446  12.985  0.00  0.00    +0.000 A 
ATOM      6  C   UNL     1      44.956   7.853  12.035  0.00  0.00    +0.000 A 
ENDROOT
BRANCH   1   7
ATOM      7  C   UNL     1      44.513   6.111  10.266  0.00  0.00    +0.000 C 
BRANCH   7   8
ATOM      8  N   UNL     1      45.285   5.314   9.304  0.00  0.00    +0.000 NA
ATOM      9  H   UNL     1      45.408   5.863   8.456  0.00  0.00    +0.000 HD
BRANCH   8  10
ATOM     10  C   UNL     1      44.640   4.041   8.943  0.00  0.00    +0.000 C 
BRANCH  10  11
ATOM     11  C   UNL     1      45.619   3.076   8.272  0.00  0.00    +0.000 A 
ATOM     12  C   UNL     1      46.544   3.488   7.292  0.00  0.00    +0.000 A 
ATOM     13  C   UNL     1      47.426   2.577   6.721  0.00  0.00    +0.000 A 
ATOM     14  C   UNL     1      47.358   1.261   7.140  0.00  0.00    +0.000 A 
ATOM     15  N   UNL     1      46.477   0.817   8.062  0.00  0.00    +0.000 NA
ATOM     16  C   UNL     1      45.625   1.725   8.598  0.00  0.00    +0.000 A 
ENDBRANCH  10  11
BRANCH  10  18
ATOM     17  N   UNL     1      43.481   2.745  11.112  0.00  0.00    +0.000 NA
ATOM     18  C   UNL     1      44.007   3.333  10.128  0.00  0.00    +0.000 C 
ENDBRANCH  10  18
ENDBRANCH   8  10
ENDBRANCH   7   8
ENDBRANCH   1   7
BRANCH   4  19
ATOM     19  C   UNL     1      47.954   8.575  14.254  0.00  0.00    +0.000 C 
BRANCH  19  20
ATOM     20  N   UNL     1      48.162   7.652  15.335  0.00  0.00    +0.000 N 
ATOM     21  C   UNL     1      49.374   7.042  15.512  0.00  0.00    +0.000 C 
ATOM     22  O   UNL     1      50.338   7.289  14.790  0.00  0.00    +0.000 OA
ATOM     23  H   UNL     1      47.335   7.274  15.789  0.00  0.00    +0.000 HD
BRANCH  21  24
ATOM     24  C   UNL     1      49.484   6.124  16.648  0.00  0.00    +0.000 A 
ATOM     25  C   UNL     1      50.467   6.334  17.604  0.00  0.00    +0.000 A 
ATOM     26  S   UNL     1      50.434   5.200  18.877  0.00  0.00    +0.000 S 
ATOM     27  C   UNL     1      49.134   4.361  18.169  0.00  0.00    +0.000 A 
ATOM     28  N   UNL     1      48.624   3.244  18.751  0.00  0.00    +0.000 NA
ATOM     29  C   UNL     1      47.658   2.693  18.093  0.00  0.00    +0.000 A 
ATOM     30  N   UNL     1      47.153   3.163  16.910  0.00  0.00    +0.000 N 
ATOM     31  C   UNL     1      47.614   4.305  16.300  0.00  0.00    +0.000 A 
ATOM     32  O   UNL     1      47.102   4.724  15.268  0.00  0.00    +0.000 OA
ATOM     33  C   UNL     1      48.715   4.953  16.991  0.00  0.00    +0.000 A 
ATOM     34  H   UNL     1      46.386   2.692  16.451  0.00  0.00    +0.000 HD
ENDBRANCH  21  24
ENDBRANCH  19  20
ENDBRANCH   4  19
TORSDOF 8
ENDMDL
MODEL 2
REMARK VINA RESULT:    -7.787      2.410      3.030
REMARK INTER + INTRA:         -12.715
REMARK INTER:                 -11.755
REMARK INTRA:                  -0.960
REMARK UNBOUND:                -1.286
REMARK  Name = 
REMARK  8 active torsions:
REMARK  status: ('A' for Active; 'I' for Inactive)
REMARK    1  A    between atoms: C_2  and  C_3
REMARK    2  A    between atoms: C_3  and  N_4
REMARK    3  A    between atoms: C_3  and  C_26
REMARK    4  A    between atoms: N_4  and  C_5
REMARK    5  A    between atoms: C_5  and  C_6
REMARK    6  A    between atoms: C_9  and  C_10
REMARK    7  A    between atoms: C_10  and  N_11
REMARK    8  A    between atoms: C_12  and  C_14
REMARK                            x       y       z     vdW  Elec       q    Type
REMARK                         _______ _______ _______ _____ _____    ______ ____
ROOT
ATOM      1  C   UNL     1      45.688   6.120  11.792  0.00  0.00    +0.000 A 
ATOM      2  C   UNL     1      46.424   7.310  11.704  0.00  0.00    +0.000 A 
ATOM      3  C   UNL     1      47.467   7.561  12.591  0.00  0.00    +0.000 A 
ATOM      4  C   UNL     1      47.783   6.632  13.590  0.00  0.00    +0.000 A 
ATOM      5  C   UNL     1      46.998   5.480  13.726  0.00  0.00    +0.000 A 
ATOM      6  C   UNL     1      45.966   5.221  12.828  0.00  0.00    +0.000 A 
ENDROOT
BRANCH   1   7
ATOM      7  C   UNL     1      44.607   5.813  10.788  0.00  0.00    +0.000 C 
BRANCH   7   8
ATOM      8  N   UNL     1      45.183   5.263   9.553  0.00  0.00    +0.000 NA
ATOM      9  H   UNL     1      45.073   5.951   8.812  0.00  0.00    +0.000 HD
BRANCH   8  10
ATOM     10  C   UNL     1      44.550   4.008   9.117  0.00  0.00    +0.000 C 
BRANCH  10  11
ATOM     11  C   UNL     1      45.537   3.093   8.391  0.00  0.00    +0.000 A 
ATOM     12  C   UNL     1      46.436   3.566   7.413  0.00  0.00    +0.000 A 
ATOM     13  C   UNL     1      47.327   2.699   6.791  0.00  0.00    +0.000 A 
ATOM     14  C   UNL     1      47.295   1.366   7.155  0.00  0.00    +0.000 A 
ATOM     15  N   UNL     1      46.439   0.864   8.071  0.00  0.00    +0.000 NA
ATOM     16  C   UNL     1      45.578   1.730   8.659  0.00  0.00    +0.000 A 
ENDBRANCH  10  11
BRANCH  10  18
ATOM     17  N   UNL     1      43.404   2.574  11.206  0.00  0.00    +0.000 NA
ATOM     18  C   UNL     1      43.924   3.224  10.259  0.00  0.00    +0.000 C 
ENDBRANCH  10  18
ENDBRANCH   8  10
ENDBRANCH   7   8
ENDBRANCH   1   7
BRANCH   4  19
ATOM     19  C   UNL     1      48.933   6.878  14.524  0.00  0.00    +0.000 C 
BRANCH  19  20
ATOM     20  N   UNL     1      48.478   7.019  15.880  0.00  0.00    +0.000 N 
ATOM     21  C   UNL     1      49.059   6.301  16.891  0.00  0.00    +0.000 C 
ATOM     22  O   UNL     1      50.012   5.551  16.691  0.00  0.00    +0.000 OA
ATOM     23  H   UNL     1      47.569   7.448  16.023  0.00  0.00    +0.000 HD
BRANCH  21  24
ATOM     24  C   UNL     1      48.526   6.521  18.238  0.00  0.00    +0.000 A 
ATOM     25  C   UNL     1      48.401   5.447  19.107  0.00  0.00    +0.000 A 
ATOM     26  S   UNL     1      47.803   5.880  20.644  0.00  0.00    +0.000 S 
ATOM     27  C   UNL     1      47.645   7.511  20.184  0.00  0.00    +0.000 A 
ATOM     28  N   UNL     1      47.150   8.434  21.048  0.00  0.00    +0.000 NA
ATOM     29  C   UNL     1      47.061   9.627  20.560  0.00  0.00    +0.000 A 
ATOM     30  N   UNL     1      47.429   9.980  19.289  0.00  0.00    +0.000 N 
ATOM     31  C   UNL     1      47.965   9.087  18.390  0.00  0.00    +0.000 A 
ATOM     32  O   UNL     1      48.330   9.450  17.278  0.00  0.00    +0.000 OA
ATOM     33  C   UNL     1      48.068   7.726  18.885  0.00  0.00    +0.000 A 
ATOM     34  H   UNL     1      47.345  10.935  18.971  0.00  0.00    +0.000 HD
ENDBRANCH  21  24
ENDBRANCH  19  20
ENDBRANCH   4  19
TORSDOF 8
ENDMDL
MODEL 3
REMARK VINA RESULT:    -7.712      1.815      2.130
REMARK INTER + INTRA:         -12.605
REMARK INTER:                 -11.574
REMARK INTRA:                  -1.031
REMARK UNBOUND:                -1.286
REMARK  Name = 
REMARK  8 active torsions:
REMARK  status: ('A' for Active; 'I' for Inactive)
REMARK    1  A    between atoms: C_2  and  C_3
REMARK    2  A    between atoms: C_3  and  N_4
REMARK    3  A    between atoms: C_3  and  C_26
REMARK    4  A    between atoms: N_4  and  C_5
REMARK    5  A    between atoms: C_5  and  C_6
REMARK    6  A    between atoms: C_9  and  C_10
REMARK    7  A    between atoms: C_10  and  N_11
REMARK    8  A    between atoms: C_12  and  C_14
REMARK                            x       y       z     vdW  Elec       q    Type
REMARK                         _______ _______ _______ _____ _____    ______ ____
ROOT
ATOM      1  C   UNL     1      45.550   6.120  11.852  0.00  0.00    +0.000 A 
ATOM      2  C   UNL     1      46.142   7.389  11.804  0.00  0.00    +0.000 A 
ATOM      3  C   UNL     1      47.232   7.690  12.616  0.00  0.00    +0.000 A 
ATOM      4  C   UNL     1      47.740   6.731  13.500  0.00  0.00    +0.000 A 
ATOM      5  C   UNL     1      47.100   5.489  13.602  0.00  0.00    +0.000 A 
ATOM      6  C   UNL     1      46.021   5.182  12.778  0.00  0.00    +0.000 A 
ENDROOT
BRANCH   1   7
ATOM      7  C   UNL     1      44.418   5.768  10.921  0.00  0.00    +0.000 C 
BRANCH   7   8
ATOM      8  N   UNL     1      44.932   5.269   9.639  0.00  0.00    +0.000 NA
ATOM      9  H   UNL     1      44.716   5.952   8.917  0.00  0.00    +0.000 HD
BRANCH   8  10
ATOM     10  C   UNL     1      44.357   3.974   9.238  0.00  0.00    +0.000 C 
BRANCH  10  11
ATOM     11  C   UNL     1      45.370   3.106   8.491  0.00  0.00    +0.000 A 
ATOM     12  C   UNL     1      46.235   3.623   7.505  0.00  0.00    +0.000 A 
ATOM     13  C   UNL     1      47.151   2.797   6.863  0.00  0.00    +0.000 A 
ATOM     14  C   UNL     1      47.179   1.461   7.217  0.00  0.00    +0.000 A 
ATOM     15  N   UNL     1      46.358   0.918   8.141  0.00  0.00    +0.000 NA
ATOM     16  C   UNL     1      45.470   1.743   8.748  0.00  0.00    +0.000 A 
ENDBRANCH  10  11
BRANCH  10  18
ATOM     17  N   UNL     1      43.361   2.507  11.380  0.00  0.00    +0.000 NA
ATOM     18  C   UNL     1      43.813   3.173  10.409  0.00  0.00    +0.000 C 
ENDBRANCH  10  18
ENDBRANCH   8  10
ENDBRANCH   7   8
ENDBRANCH   1   7
BRANCH   4  19
ATOM     19  C   UNL     1      48.941   7.035  14.350  0.00  0.00    +0.000 C 
BRANCH  19  20
ATOM     20  N   UNL     1      48.639   6.884  15.746  0.00  0.00    +0.000 N 
ATOM     21  C   UNL     1      49.108   7.784  16.665  0.00  0.00    +0.000 C 
ATOM     22  O   UNL     1      49.760   8.772  16.333  0.00  0.00    +0.000 OA
ATOM     23  H   UNL     1      48.305   5.975  16.055  0.00  0.00    +0.000 HD
BRANCH  21  24
ATOM     24  C   UNL     1      48.739   7.544  18.062  0.00  0.00    +0.000 A 
ATOM     25  C   UNL     1      48.253   8.592  18.831  0.00  0.00    +0.000 A 
ATOM     26  S   UNL     1      47.836   8.136  20.420  0.00  0.00    +0.000 S 
ATOM     27  C   UNL     1      48.335   6.532  20.149  0.00  0.00    +0.000 A 
ATOM     28  N   UNL     1      48.268   5.604  21.139  0.00  0.00    +0.000 NA
ATOM     29  C   UNL     1      48.703   4.435  20.805  0.00  0.00    +0.000 A 
ATOM     30  N   UNL     1      49.192   4.109  19.567  0.00  0.00    +0.000 N 
ATOM     31  C   UNL     1      49.250   5.005  18.526  0.00  0.00    +0.000 A 
ATOM     32  O   UNL     1      49.646   4.663  17.417  0.00  0.00    +0.000 OA
ATOM     33  C   UNL     1      48.789   6.341  18.857  0.00  0.00    +0.000 A 
ATOM     34  H   UNL     1      49.507   3.170  19.365  0.00  0.00    +0.000 HD
ENDBRANCH  21  24
ENDBRANCH  19  20
ENDBRANCH   4  19
TORSDOF 8
ENDMDL
MODEL 4
REMARK VINA RESULT:    -7.590      1.239      1.520
REMARK INTER + INTRA:         -12.426
REMARK INTER:                 -11.380
REMARK INTRA:                  -1.046
REMARK UNBOUND:                -1.286
REMARK  Name = 
REMARK  8 active torsions:
REMARK  status: ('A' for Active; 'I' for Inactive)
REMARK    1  A    between atoms: C_2  and  C_3
REMARK    2  A    between atoms: C_3  and  N_4
REMARK    3  A    between atoms: C_3  and  C_26
REMARK    4  A    between atoms: N_4  and  C_5
REMARK    5  A    between atoms: C_5  and  C_6
REMARK    6  A    between atoms: C_9  and  C_10
REMARK    7  A    between atoms: C_10  and  N_11
REMARK    8  A    between atoms: C_12  and  C_14
REMARK                            x       y       z     vdW  Elec       q    Type
REMARK                         _______ _______ _______ _____ _____    ______ ____
ROOT
ATOM      1  C   UNL     1      45.438   6.575  11.783  0.00  0.00    +0.000 A 
ATOM      2  C   UNL     1      45.216   7.868  12.276  0.00  0.00    +0.000 A 
ATOM      3  C   UNL     1      46.153   8.476  13.107  0.00  0.00    +0.000 A 
ATOM      4  C   UNL     1      47.322   7.796  13.470  0.00  0.00    +0.000 A 
ATOM      5  C   UNL     1      47.507   6.477  13.039  0.00  0.00    +0.000 A 
ATOM      6  C   UNL     1      46.578   5.874  12.194  0.00  0.00    +0.000 A 
ENDROOT
BRANCH   1   7
ATOM      7  C   UNL     1      44.462   5.943  10.824  0.00  0.00    +0.000 C 
BRANCH   7   8
ATOM      8  N   UNL     1      45.167   5.312   9.701  0.00  0.00    +0.000 NA
ATOM      9  H   UNL     1      45.202   5.973   8.929  0.00  0.00    +0.000 HD
BRANCH   8  10
ATOM     10  C   UNL     1      44.524   4.076   9.223  0.00  0.00    +0.000 C 
BRANCH  10  11
ATOM     11  C   UNL     1      45.507   3.176   8.474  0.00  0.00    +0.000 A 
ATOM     12  C   UNL     1      46.382   3.663   7.481  0.00  0.00    +0.000 A 
ATOM     13  C   UNL     1      47.269   2.808   6.837  0.00  0.00    +0.000 A 
ATOM     14  C   UNL     1      47.258   1.473   7.196  0.00  0.00    +0.000 A 
ATOM     15  N   UNL     1      46.426   0.957   8.125  0.00  0.00    +0.000 NA
ATOM     16  C   UNL     1      45.567   1.811   8.734  0.00  0.00    +0.000 A 
ENDBRANCH  10  11
BRANCH  10  18
ATOM     17  N   UNL     1      43.356   2.589  11.262  0.00  0.00    +0.000 NA
ATOM     18  C   UNL     1      43.886   3.264  10.337  0.00  0.00    +0.000 C 
ENDBRANCH  10  18
ENDBRANCH   8  10
ENDBRANCH   7   8
ENDBRANCH   1   7
BRANCH   4  19
ATOM     19  C   UNL     1      48.355   8.462  14.333  0.00  0.00    +0.000 C 
BRANCH  19  20
ATOM     20  N   UNL     1      49.227   7.493  14.937  0.00  0.00    +0.000 N 
ATOM     21  C   UNL     1      49.255   7.328  16.296  0.00  0.00    +0.000 C 
ATOM     22  O   UNL     1      48.512   7.961  17.043  0.00  0.00    +0.000 OA
ATOM     23  H   UNL     1      49.990   7.135  14.370  0.00  0.00    +0.000 HD
BRANCH  21  24
ATOM     24  C   UNL     1      50.174   6.311  16.812  0.00  0.00    +0.000 A 
ATOM     25  C   UNL     1      51.453   6.680  17.204  0.00  0.00    +0.000 A 
ATOM     26  S   UNL     1      52.380   5.386  17.815  0.00  0.00    +0.000 S 
ATOM     27  C   UNL     1      51.119   4.278  17.533  0.00  0.00    +0.000 A 
ATOM     28  N   UNL     1      51.273   2.958  17.816  0.00  0.00    +0.000 NA
ATOM     29  C   UNL     1      50.248   2.227  17.529  0.00  0.00    +0.000 A 
ATOM     30  N   UNL     1      49.080   2.699  16.990  0.00  0.00    +0.000 N 
ATOM     31  C   UNL     1      48.866   4.029  16.716  0.00  0.00    +0.000 A 
ATOM     32  O   UNL     1      47.789   4.422  16.281  0.00  0.00    +0.000 OA
ATOM     33  C   UNL     1      49.998   4.892  17.004  0.00  0.00    +0.000 A 
ATOM     34  H   UNL     1      48.309   2.076  16.799  0.00  0.00    +0.000 HD
ENDBRANCH  21  24
ENDBRANCH  19  20
ENDBRANCH   4  19
TORSDOF 8
ENDMDL
MODEL 5
REMARK VINA RESULT:    -7.188      2.875      8.355
REMARK INTER + INTRA:         -11.836
REMARK INTER:                 -10.119
REMARK INTRA:                  -1.716
REMARK UNBOUND:                -1.286
REMARK  Name = 
REMARK  8 active torsions:
REMARK  status: ('A' for Active; 'I' for Inactive)
REMARK    1  A    between atoms: C_2  and  C_3
REMARK    2  A    between atoms: C_3  and  N_4
REMARK    3  A    between atoms: C_3  and  C_26
REMARK    4  A    between atoms: N_4  and  C_5
REMARK    5  A    between atoms: C_5  and  C_6
REMARK    6  A    between atoms: C_9  and  C_10
REMARK    7  A    between atoms: C_10  and  N_11
REMARK    8  A    between atoms: C_12  and  C_14
REMARK                            x       y       z     vdW  Elec       q    Type
REMARK                         _______ _______ _______ _____ _____    ______ ____
ROOT
ATOM      1  C   UNL     1      48.710   7.897  16.149  0.00  0.00    +0.000 A 
ATOM      2  C   UNL     1      48.214   9.034  15.498  0.00  0.00    +0.000 A 
ATOM      3  C   UNL     1      47.867   8.981  14.151  0.00  0.00    +0.000 A 
ATOM      4  C   UNL     1      48.025   7.793  13.427  0.00  0.00    +0.000 A 
ATOM      5  C   UNL     1      48.593   6.679  14.058  0.00  0.00    +0.000 A 
ATOM      6  C   UNL     1      48.923   6.726  15.411  0.00  0.00    +0.000 A 
ENDROOT
BRANCH   1   7
ATOM      7  C   UNL     1      49.016   7.931  17.624  0.00  0.00    +0.000 C 
BRANCH   7   8
ATOM      8  N   UNL     1      47.877   7.430  18.405  0.00  0.00    +0.000 NA
ATOM      9  H   UNL     1      47.565   8.168  19.031  0.00  0.00    +0.000 HD
BRANCH   8  10
ATOM     10  C   UNL     1      48.196   6.241  19.213  0.00  0.00    +0.000 C 
BRANCH  10  11
ATOM     11  C   UNL     1      48.181   4.961  18.377  0.00  0.00    +0.000 A 
ATOM     12  C   UNL     1      49.337   4.187  18.148  0.00  0.00    +0.000 A 
ATOM     13  C   UNL     1      49.272   3.022  17.393  0.00  0.00    +0.000 A 
ATOM     14  C   UNL     1      48.045   2.655  16.872  0.00  0.00    +0.000 A 
ATOM     15  N   UNL     1      46.915   3.374  17.049  0.00  0.00    +0.000 NA
ATOM     16  C   UNL     1      47.008   4.509  17.783  0.00  0.00    +0.000 A 
ENDBRANCH  10  11
BRANCH  10  18
ATOM     17  N   UNL     1      50.655   6.417  20.499  0.00  0.00    +0.000 NA
ATOM     18  C   UNL     1      49.540   6.337  19.916  0.00  0.00    +0.000 C 
ENDBRANCH  10  18
ENDBRANCH   8  10
ENDBRANCH   7   8
ENDBRANCH   1   7
BRANCH   4  19
ATOM     19  C   UNL     1      47.615   7.718  11.985  0.00  0.00    +0.000 C 
BRANCH  19  20
ATOM     20  N   UNL     1      46.921   6.491  11.707  0.00  0.00    +0.000 N 
ATOM     21  C   UNL     1      45.567   6.397  11.886  0.00  0.00    +0.000 C 
ATOM     22  O   UNL     1      44.890   7.359  12.244  0.00  0.00    +0.000 OA
ATOM     23  H   UNL     1      47.480   5.646  11.633  0.00  0.00    +0.000 HD
BRANCH  21  24
ATOM     24  C   UNL     1      44.954   5.105  11.569  0.00  0.00    +0.000 A 
ATOM     25  C   UNL     1      44.231   4.433  12.544  0.00  0.00    +0.000 A 
ATOM     26  S   UNL     1      43.553   2.966  12.001  0.00  0.00    +0.000 S 
ATOM     27  C   UNL     1      44.242   3.155  10.457  0.00  0.00    +0.000 A 
ATOM     28  N   UNL     1      44.069   2.212   9.495  0.00  0.00    +0.000 NA
ATOM     29  C   UNL     1      44.668   2.470   8.380  0.00  0.00    +0.000 A 
ATOM     30  N   UNL     1      45.419   3.590   8.140  0.00  0.00    +0.000 N 
ATOM     31  C   UNL     1      45.597   4.586   9.070  0.00  0.00    +0.000 A 
ATOM     32  O   UNL     1      46.234   5.598   8.802  0.00  0.00    +0.000 OA
ATOM     33  C   UNL     1      44.958   4.334  10.349  0.00  0.00    +0.000 A 
ATOM     34  H   UNL     1      45.853   3.739   7.240  0.00  0.00    +0.000 HD
ENDBRANCH  21  24
ENDBRANCH  19  20
ENDBRANCH   4  19
TORSDOF 8
ENDMDL
MODEL 6
REMARK VINA RESULT:    -7.112      1.897      2.215
REMARK INTER + INTRA:         -11.724
REMARK INTER:                 -10.692
REMARK INTRA:                  -1.032
REMARK UNBOUND:                -1.286
REMARK  Name = 
REMARK  8 active torsions:
REMARK  status: ('A' for Active; 'I' for Inactive)
REMARK    1  A    between atoms: C_2  and  C_3
REMARK    2  A    between atoms: C_3  and  N_4
REMARK    3  A    between atoms: C_3  and  C_26
REMARK    4  A    between atoms: N_4  and  C_5
REMARK    5  A    between atoms: C_5  and  C_6
REMARK    6  A    between atoms: C_9  and  C_10
REMARK    7  A    between atoms: C_10  and  N_11
REMARK    8  A    between atoms: C_12  and  C_14
REMARK                            x       y       z     vdW  Elec       q    Type
REMARK                         _______ _______ _______ _____ _____    ______ ____
ROOT
ATOM      1  C   UNL     1      45.806   6.159  11.913  0.00  0.00    +0.000 A 
ATOM      2  C   UNL     1      46.344   7.435  11.698  0.00  0.00    +0.000 A 
ATOM      3  C   UNL     1      47.484   7.845  12.384  0.00  0.00    +0.000 A 
ATOM      4  C   UNL     1      48.097   6.989  13.308  0.00  0.00    +0.000 A 
ATOM      5  C   UNL     1      47.515   5.745  13.578  0.00  0.00    +0.000 A 
ATOM      6  C   UNL     1      46.385   5.328  12.880  0.00  0.00    +0.000 A 
ENDROOT
BRANCH   1   7
ATOM      7  C   UNL     1      44.616   5.687  11.118  0.00  0.00    +0.000 C 
BRANCH   7   8
ATOM      8  N   UNL     1      45.010   5.336   9.747  0.00  0.00    +0.000 NA
ATOM      9  H   UNL     1      44.711   6.083   9.125  0.00  0.00    +0.000 HD
BRANCH   8  10
ATOM     10  C   UNL     1      44.423   4.073   9.271  0.00  0.00    +0.000 C 
BRANCH  10  11
ATOM     11  C   UNL     1      45.439   3.223   8.509  0.00  0.00    +0.000 A 
ATOM     12  C   UNL     1      45.561   1.830   8.695  0.00  0.00    +0.000 A 
ATOM     13  C   UNL     1      46.490   1.096   7.968  0.00  0.00    +0.000 A 
ATOM     14  C   UNL     1      47.290   1.774   7.067  0.00  0.00    +0.000 A 
ATOM     15  N   UNL     1      47.223   3.108   6.868  0.00  0.00    +0.000 NA
ATOM     16  C   UNL     1      46.313   3.801   7.594  0.00  0.00    +0.000 A 
ENDBRANCH  10  11
BRANCH  10  18
ATOM     17  N   UNL     1      43.345   2.526  11.314  0.00  0.00    +0.000 NA
ATOM     18  C   UNL     1      43.834   3.228  10.388  0.00  0.00    +0.000 C 
ENDBRANCH  10  18
ENDBRANCH   8  10
ENDBRANCH   7   8
ENDBRANCH   1   7
BRANCH   4  19
ATOM     19  C   UNL     1      49.350   7.409  14.021  0.00  0.00    +0.000 C 
BRANCH  19  20
ATOM     20  N   UNL     1      49.506   6.695  15.258  0.00  0.00    +0.000 N 
ATOM     21  C   UNL     1      50.659   6.803  15.988  0.00  0.00    +0.000 C 
ATOM     22  O   UNL     1      51.580   7.541  15.645  0.00  0.00    +0.000 OA
ATOM     23  H   UNL     1      48.867   5.925  15.435  0.00  0.00    +0.000 HD
BRANCH  21  24
ATOM     24  C   UNL     1      50.716   6.039  17.237  0.00  0.00    +0.000 A 
ATOM     25  C   UNL     1      51.723   5.102  17.421  0.00  0.00    +0.000 A 
ATOM     26  S   UNL     1      51.667   4.331  18.941  0.00  0.00    +0.000 S 
ATOM     27  C   UNL     1      50.267   5.189  19.387  0.00  0.00    +0.000 A 
ATOM     28  N   UNL     1      49.670   4.974  20.588  0.00  0.00    +0.000 NA
ATOM     29  C   UNL     1      48.602   5.673  20.785  0.00  0.00    +0.000 A 
ATOM     30  N   UNL     1      48.081   6.571  19.892  0.00  0.00    +0.000 N 
ATOM     31  C   UNL     1      48.667   6.845  18.679  0.00  0.00    +0.000 A 
ATOM     32  O   UNL     1      48.200   7.693  17.926  0.00  0.00    +0.000 OA
ATOM     33  C   UNL     1      49.862   6.070  18.400  0.00  0.00    +0.000 A 
ATOM     34  H   UNL     1      47.247   7.097  20.112  0.00  0.00    +0.000 HD
ENDBRANCH  21  24
ENDBRANCH  19  20
ENDBRANCH   4  19
TORSDOF 8
ENDMDL
MODEL 7
REMARK VINA RESULT:    -6.628      4.709      9.598
REMARK INTER + INTRA:         -11.014
REMARK INTER:                 -10.090
REMARK INTRA:                  -0.924
REMARK UNBOUND:                -1.286
REMARK  Name = 
REMARK  8 active torsions:
REMARK  status: ('A' for Active; 'I' for Inactive)
REMARK    1  A    between atoms: C_2  and  C_3
REMARK    2  A    between atoms: C_3  and  N_4
REMARK    3  A    between atoms: C_3  and  C_26
REMARK    4  A    between atoms: N_4  and  C_5
REMARK    5  A    between atoms: C_5  and  C_6
REMARK    6  A    between atoms: C_9  and  C_10
REMARK    7  A    between atoms: C_10  and  N_11
REMARK    8  A    between atoms: C_12  and  C_14
REMARK                            x       y       z     vdW  Elec       q    Type
REMARK                         _______ _______ _______ _____ _____    ______ ____
ROOT
ATOM      1  C   UNL     1      51.319   3.477  17.969  0.00  0.00    +0.000 A 
ATOM      2  C   UNL     1      50.512   4.604  18.174  0.00  0.00    +0.000 A 
ATOM      3  C   UNL     1      49.163   4.578  17.831  0.00  0.00    +0.000 A 
ATOM      4  C   UNL     1      48.601   3.427  17.264  0.00  0.00    +0.000 A 
ATOM      5  C   UNL     1      49.425   2.328  16.990  0.00  0.00    +0.000 A 
ATOM      6  C   UNL     1      50.771   2.348  17.348  0.00  0.00    +0.000 A 
ENDROOT
BRANCH   1   7
ATOM      7  C   UNL     1      52.761   3.478  18.407  0.00  0.00    +0.000 C 
BRANCH   7   8
ATOM      8  N   UNL     1      53.176   2.138  18.840  0.00  0.00    +0.000 NA
ATOM      9  H   UNL     1      53.060   2.074  19.849  0.00  0.00    +0.000 HD
BRANCH   8  10
ATOM     10  C   UNL     1      54.577   1.822  18.515  0.00  0.00    +0.000 C 
BRANCH  10  11
ATOM     11  C   UNL     1      54.738   0.381  18.028  0.00  0.00    +0.000 A 
ATOM     12  C   UNL     1      54.956  -0.700  18.906  0.00  0.00    +0.000 A 
ATOM     13  C   UNL     1      55.081  -1.996  18.418  0.00  0.00    +0.000 A 
ATOM     14  C   UNL     1      54.994  -2.184  17.051  0.00  0.00    +0.000 A 
ATOM     15  N   UNL     1      54.805  -1.178  16.170  0.00  0.00    +0.000 NA
ATOM     16  C   UNL     1      54.692   0.076  16.672  0.00  0.00    +0.000 A 
ENDBRANCH  10  11
BRANCH  10  18
ATOM     17  N   UNL     1      55.667   3.519  16.601  0.00  0.00    +0.000 NA
ATOM     18  C   UNL     1      55.173   2.749  17.469  0.00  0.00    +0.000 C 
ENDBRANCH  10  18
ENDBRANCH   8  10
ENDBRANCH   7   8
ENDBRANCH   1   7
BRANCH   4  19
ATOM     19  C   UNL     1      47.138   3.377  16.930  0.00  0.00    +0.000 C 
BRANCH  19  20
ATOM     20  N   UNL     1      46.798   4.369  15.947  0.00  0.00    +0.000 N 
ATOM     21  C   UNL     1      46.934   4.105  14.611  0.00  0.00    +0.000 C 
ATOM     22  O   UNL     1      47.304   3.008  14.199  0.00  0.00    +0.000 OA
ATOM     23  H   UNL     1      46.712   5.329  16.266  0.00  0.00    +0.000 HD
BRANCH  21  24
ATOM     24  C   UNL     1      46.554   5.180  13.690  0.00  0.00    +0.000 A 
ATOM     25  C   UNL     1      47.455   6.201  13.423  0.00  0.00    +0.000 A 
ATOM     26  S   UNL     1      46.872   7.349  12.304  0.00  0.00    +0.000 S 
ATOM     27  C   UNL     1      45.378   6.546  12.176  0.00  0.00    +0.000 A 
ATOM     28  N   UNL     1      44.389   7.034  11.382  0.00  0.00    +0.000 NA
ATOM     29  C   UNL     1      43.300   6.340  11.398  0.00  0.00    +0.000 A 
ATOM     30  N   UNL     1      43.113   5.199  12.131  0.00  0.00    +0.000 N 
ATOM     31  C   UNL     1      44.093   4.649  12.924  0.00  0.00    +0.000 A 
ATOM     32  O   UNL     1      43.906   3.598  13.527  0.00  0.00    +0.000 OA
ATOM     33  C   UNL     1      45.333   5.404  12.955  0.00  0.00    +0.000 A 
ATOM     34  H   UNL     1      42.239   4.694  12.091  0.00  0.00    +0.000 HD
ENDBRANCH  21  24
ENDBRANCH  19  20
ENDBRANCH   4  19
TORSDOF 8
ENDMDL
MODEL 8
REMARK VINA RESULT:    -6.432      2.002      3.462
REMARK INTER + INTRA:         -10.726
REMARK INTER:                 -10.310
REMARK INTRA:                  -0.417
REMARK UNBOUND:                -1.286
REMARK  Name = 
REMARK  8 active torsions:
REMARK  status: ('A' for Active; 'I' for Inactive)
REMARK    1  A    between atoms: C_2  and  C_3
REMARK    2  A    between atoms: C_3  and  N_4
REMARK    3  A    between atoms: C_3  and  C_26
REMARK    4  A    between atoms: N_4  and  C_5
REMARK    5  A    between atoms: C_5  and  C_6
REMARK    6  A    between atoms: C_9  and  C_10
REMARK    7  A    between atoms: C_10  and  N_11
REMARK    8  A    between atoms: C_12  and  C_14
REMARK                            x       y       z     vdW  Elec       q    Type
REMARK                         _______ _______ _______ _____ _____    ______ ____
ROOT
ATOM      1  C   UNL     1      45.663   5.483  11.933  0.00  0.00    +0.000 A 
ATOM      2  C   UNL     1      46.296   6.461  12.711  0.00  0.00    +0.000 A 
ATOM      3  C   UNL     1      46.900   6.120  13.919  0.00  0.00    +0.000 A 
ATOM      4  C   UNL     1      46.869   4.797  14.374  0.00  0.00    +0.000 A 
ATOM      5  C   UNL     1      46.171   3.835  13.634  0.00  0.00    +0.000 A 
ATOM      6  C   UNL     1      45.581   4.172  12.418  0.00  0.00    +0.000 A 
ENDROOT
BRANCH   1   7
ATOM      7  C   UNL     1      45.074   5.835  10.591  0.00  0.00    +0.000 C 
BRANCH   7   8
ATOM      8  N   UNL     1      45.767   5.120   9.512  0.00  0.00    +0.000 NA
ATOM      9  H   UNL     1      46.054   5.797   8.808  0.00  0.00    +0.000 HD
BRANCH   8  10
ATOM     10  C   UNL     1      44.937   4.095   8.858  0.00  0.00    +0.000 C 
BRANCH  10  11
ATOM     11  C   UNL     1      45.781   3.106   8.053  0.00  0.00    +0.000 A 
ATOM     12  C   UNL     1      46.417   3.454   6.843  0.00  0.00    +0.000 A 
ATOM     13  C   UNL     1      47.187   2.524   6.154  0.00  0.00    +0.000 A 
ATOM     14  C   UNL     1      47.301   1.254   6.689  0.00  0.00    +0.000 A 
ATOM     15  N   UNL     1      46.697   0.870   7.833  0.00  0.00    +0.000 NA
ATOM     16  C   UNL     1      45.947   1.794   8.482  0.00  0.00    +0.000 A 
ENDBRANCH  10  11
BRANCH  10  18
ATOM     17  N   UNL     1      43.365   2.654  10.642  0.00  0.00    +0.000 NA
ATOM     18  C   UNL     1      44.078   3.308   9.833  0.00  0.00    +0.000 C 
ENDBRANCH  10  18
ENDBRANCH   8  10
ENDBRANCH   7   8
ENDBRANCH   1   7
BRANCH   4  19
ATOM     19  C   UNL     1      47.553   4.414  15.655  0.00  0.00    +0.000 C 
BRANCH  19  20
ATOM     20  N   UNL     1      48.174   5.555  16.271  0.00  0.00    +0.000 N 
ATOM     21  C   UNL     1      48.974   5.406  17.372  0.00  0.00    +0.000 C 
ATOM     22  O   UNL     1      49.230   4.301  17.846  0.00  0.00    +0.000 OA
ATOM     23  H   UNL     1      47.800   6.470  16.039  0.00  0.00    +0.000 HD
BRANCH  21  24
ATOM     24  C   UNL     1      49.564   6.630  17.921  0.00  0.00    +0.000 A 
ATOM     25  C   UNL     1      49.419   6.913  19.271  0.00  0.00    +0.000 A 
ATOM     26  S   UNL     1      50.196   8.351  19.754  0.00  0.00    +0.000 S 
ATOM     27  C   UNL     1      50.714   8.670  18.164  0.00  0.00    +0.000 A 
ATOM     28  N   UNL     1      51.423   9.791  17.873  0.00  0.00    +0.000 NA
ATOM     29  C   UNL     1      51.728   9.921  16.625  0.00  0.00    +0.000 A 
ATOM     30  N   UNL     1      51.393   9.025  15.643  0.00  0.00    +0.000 N 
ATOM     31  C   UNL     1      50.705   7.862  15.894  0.00  0.00    +0.000 A 
ATOM     32  O   UNL     1      50.467   7.060  14.999  0.00  0.00    +0.000 OA
ATOM     33  C   UNL     1      50.321   7.679  17.283  0.00  0.00    +0.000 A 
ATOM     34  H   UNL     1      51.673   9.179  14.685  0.00  0.00    +0.000 HD
ENDBRANCH  21  24
ENDBRANCH  19  20
ENDBRANCH   4  19
TORSDOF 8
ENDMDL
MODEL 9
REMARK VINA RESULT:    -6.270      3.395      7.951
REMARK INTER + INTRA:         -10.488
REMARK INTER:                  -8.578
REMARK INTRA:                  -1.910
REMARK UNBOUND:                -1.286
REMARK  Name = 
REMARK  8 active torsions:
REMARK  status: ('A' for Active; 'I' for Inactive)
REMARK    1  A    between atoms: C_2  and  C_3
REMARK    2  A    between atoms: C_3  and  N_4
REMARK    3  A    between atoms: C_3  and  C_26
REMARK    4  A    between atoms: N_4  and  C_5
REMARK    5  A    between atoms: C_5  and  C_6
REMARK    6  A    between atoms: C_9  and  C_10
REMARK    7  A    between atoms: C_10  and  N_11
REMARK    8  A    between atoms: C_12  and  C_14
REMARK                            x       y       z     vdW  Elec       q    Type
REMARK                         _______ _______ _______ _____ _____    ______ ____
ROOT
ATOM      1  C   UNL     1      51.247   7.055  17.243  0.00  0.00    +0.000 A 
ATOM      2  C   UNL     1      50.291   7.769  17.977  0.00  0.00    +0.000 A 
ATOM      3  C   UNL     1      49.321   8.526  17.325  0.00  0.00    +0.000 A 
ATOM      4  C   UNL     1      49.299   8.591  15.926  0.00  0.00    +0.000 A 
ATOM      5  C   UNL     1      50.301   7.939  15.196  0.00  0.00    +0.000 A 
ATOM      6  C   UNL     1      51.260   7.169  15.847  0.00  0.00    +0.000 A 
ENDROOT
BRANCH   1   7
ATOM      7  C   UNL     1      52.251   6.177  17.944  0.00  0.00    +0.000 C 
BRANCH   7   8
ATOM      8  N   UNL     1      52.256   4.826  17.367  0.00  0.00    +0.000 NA
ATOM      9  H   UNL     1      51.754   4.851  16.482  0.00  0.00    +0.000 HD
BRANCH   8  10
ATOM     10  C   UNL     1      51.623   3.815  18.230  0.00  0.00    +0.000 C 
BRANCH  10  11
ATOM     11  C   UNL     1      50.172   3.549  17.827  0.00  0.00    +0.000 A 
ATOM     12  C   UNL     1      49.813   2.574  16.874  0.00  0.00    +0.000 A 
ATOM     13  C   UNL     1      48.478   2.357  16.551  0.00  0.00    +0.000 A 
ATOM     14  C   UNL     1      47.524   3.128  17.188  0.00  0.00    +0.000 A 
ATOM     15  N   UNL     1      47.821   4.085  18.093  0.00  0.00    +0.000 NA
ATOM     16  C   UNL     1      49.130   4.281  18.385  0.00  0.00    +0.000 A 
ENDBRANCH  10  11
BRANCH  10  18
ATOM     17  N   UNL     1      52.983   1.390  18.255  0.00  0.00    +0.000 NA
ATOM     18  C   UNL     1      52.367   2.490  18.244  0.00  0.00    +0.000 C 
ENDBRANCH  10  18
ENDBRANCH   8  10
ENDBRANCH   7   8
ENDBRANCH   1   7
BRANCH   4  19
ATOM     19  C   UNL     1      48.232   9.372  15.215  0.00  0.00    +0.000 C 
BRANCH  19  20
ATOM     20  N   UNL     1      47.285   8.497  14.580  0.00  0.00    +0.000 N 
ATOM     21  C   UNL     1      47.285   8.335  13.221  0.00  0.00    +0.000 C 
ATOM     22  O   UNL     1      48.112   8.888  12.500  0.00  0.00    +0.000 OA
ATOM     23  H   UNL     1      46.472   8.219  15.123  0.00  0.00    +0.000 HD
BRANCH  21  24
ATOM     24  C   UNL     1      46.284   7.416  12.673  0.00  0.00    +0.000 A 
ATOM     25  C   UNL     1      45.246   7.917  11.900  0.00  0.00    +0.000 A 
ATOM     26  S   UNL     1      44.193   6.713  11.310  0.00  0.00    +0.000 S 
ATOM     27  C   UNL     1      45.061   5.486  12.106  0.00  0.00    +0.000 A 
ATOM     28  N   UNL     1      44.662   4.189  12.033  0.00  0.00    +0.000 NA
ATOM     29  C   UNL     1      45.396   3.366  12.705  0.00  0.00    +0.000 A 
ATOM     30  N   UNL     1      46.497   3.723  13.438  0.00  0.00    +0.000 N 
ATOM     31  C   UNL     1      46.958   5.016  13.516  0.00  0.00    +0.000 A 
ATOM     32  O   UNL     1      47.977   5.290  14.140  0.00  0.00    +0.000 OA
ATOM     33  C   UNL     1      46.154   5.984  12.792  0.00  0.00    +0.000 A 
ATOM     34  H   UNL     1      47.038   3.028  13.933  0.00  0.00    +0.000 HD
ENDBRANCH  21  24
ENDBRANCH  19  20
ENDBRANCH   4  19
TORSDOF 8
ENDMDL
