MODEL 1
REMARK VINA RESULT:    -7.463      0.000      0.000
REMARK INTER + INTRA:         -11.391
REMARK INTER:                 -10.518
REMARK INTRA:                  -0.874
REMARK UNBOUND:                -0.874
REMARK  Name = 
REMARK  8 active torsions:
REMARK  status: ('A' for Active; 'I' for Inactive)
REMARK    1  A    between atoms: C_1  and  N_2
REMARK    2  A    between atoms: N_2  and  C_3
REMARK    3  A    between atoms: C_3  and  C_4
REMARK    4  A    between atoms: C_4  and  C_5
REMARK    5  A    between atoms: C_8  and  C_9
REMARK    6  A    between atoms: C_9  and  O_10
REMARK    7  A    between atoms: O_10  and  C_11
REMARK    8  A    between atoms: C_15  and  C_16
REMARK                            x       y       z     vdW  Elec       q    Type
REMARK                         _______ _______ _______ _____ _____    ______ ____
ROOT
ATOM      1  C   UNL     1      43.432   5.054  10.431  0.00  0.00    +0.000 C 
ENDROOT
BRANCH   1   5
ATOM      2  C   UNL     1      45.947   2.295   8.251  0.00  0.00    +0.000 A 
ATOM      3  C   UNL     1      45.008   1.822   9.178  0.00  0.00    +0.000 A 
ATOM      4  C   UNL     1      44.212   2.711   9.901  0.00  0.00    +0.000 A 
ATOM      5  C   UNL     1      44.345   4.092   9.715  0.00  0.00    +0.000 A 
ATOM      6  C   UNL     1      45.330   4.567   8.840  0.00  0.00    +0.000 A 
ATOM      7  C   UNL     1      46.120   3.676   8.110  0.00  0.00    +0.000 A 
BRANCH   2   8
ATOM      8  C   UNL     1      46.745   1.328   7.406  0.00  0.00    +0.000 C 
BRANCH   8   9
ATOM      9  C   UNL     1      48.115   1.909   7.017  0.00  0.00    +0.000 C 
BRANCH   9  11
ATOM     10  C   UNL     1      47.471   2.684   4.836  0.00  0.00    +0.000 C 
ATOM     11  N   UNL     1      48.353   1.789   5.576  0.00  0.00    +0.000 NA
ATOM     12  H   UNL     1      49.322   2.029   5.371  0.00  0.00    +0.000 HD
ENDBRANCH   9  11
ENDBRANCH   8   9
ENDBRANCH   2   8
ENDBRANCH   1   5
BRANCH   1  13
ATOM     13  O   UNL     1      43.609   4.923  11.839  0.00  0.00    +0.000 OA
BRANCH  13  14
ATOM     14  C   UNL     1      44.789   5.406  12.346  0.00  0.00    +0.000 A 
ATOM     15  C   UNL     1      45.405   6.603  11.978  0.00  0.00    +0.000 A 
ATOM     16  C   UNL     1      46.606   6.986  12.577  0.00  0.00    +0.000 A 
ATOM     17  C   UNL     1      47.188   6.178  13.553  0.00  0.00    +0.000 A 
ATOM     18  C   UNL     1      46.578   4.976  13.937  0.00  0.00    +0.000 A 
ATOM     19  C   UNL     1      45.383   4.590  13.316  0.00  0.00    +0.000 A 
BRANCH  18  20
ATOM     20  C   UNL     1      47.238   4.182  15.012  0.00  0.00    +0.000 C 
ATOM     21  N   UNL     1      47.412   4.756  16.242  0.00  0.00    +0.000 N 
ATOM     22  O   UNL     1      47.635   3.040  14.813  0.00  0.00    +0.000 OA
ATOM     23  H   UNL     1      47.141   5.693  16.493  0.00  0.00    +0.000 HD
ATOM     24  H   UNL     1      47.891   4.199  16.937  0.00  0.00    +0.000 HD
ENDBRANCH  18  20
ENDBRANCH  13  14
ENDBRANCH   1  13
TORSDOF 7
ENDMDL
MODEL 2
REMARK VINA RESULT:    -7.299      2.464      6.307
REMARK INTER + INTRA:         -11.160
REMARK INTER:                 -10.650
REMARK INTRA:                  -0.510
REMARK UNBOUND:                -0.874
REMARK  Name = 
REMARK  8 active torsions:
REMARK  status: ('A' for Active; 'I' for Inactive)
REMARK    1  A    between atoms: C_1  and  N_2
REMARK    2  A    between atoms: N_2  and  C_3
REMARK    3  A    between atoms: C_3  and  C_4
REMARK    4  A    between atoms: C_4  and  C_5
REMARK    5  A    between atoms: C_8  and  C_9
REMARK    6  A    between atoms: C_9  and  O_10
REMARK    7  A    between atoms: O_10  and  C_11
REMARK    8  A    between atoms: C_15  and  C_16
REMARK                            x       y       z     vdW  Elec       q    Type
REMARK                         _______ _______ _______ _____ _____    ______ ____
ROOT
ATOM      1  C   UNL     1      43.275   3.594  11.408  0.00  0.00    +0.000 C 
ENDROOT
BRANCH   1   5
ATOM      2  C   UNL     1      46.595   5.247  13.629  0.00  0.00    +0.000 A 
ATOM      3  C   UNL     1      46.498   3.865  13.419  0.00  0.00    +0.000 A 
ATOM      4  C   UNL     1      45.414   3.327  12.724  0.00  0.00    +0.000 A 
ATOM      5  C   UNL     1      44.404   4.161  12.231  0.00  0.00    +0.000 A 
ATOM      6  C   UNL     1      44.466   5.533  12.500  0.00  0.00    +0.000 A 
ATOM      7  C   UNL     1      45.555   6.073  13.189  0.00  0.00    +0.000 A 
BRANCH   2   8
ATOM      8  C   UNL     1      47.813   5.837  14.306  0.00  0.00    +0.000 C 
BRANCH   8   9
ATOM      9  C   UNL     1      48.400   7.008  13.501  0.00  0.00    +0.000 C 
BRANCH   9  11
ATOM     10  C   UNL     1      49.935   7.660  11.772  0.00  0.00    +0.000 C 
ATOM     11  N   UNL     1      49.430   6.546  12.566  0.00  0.00    +0.000 NA
ATOM     12  H   UNL     1      50.201   6.131  13.088  0.00  0.00    +0.000 HD
ENDBRANCH   9  11
ENDBRANCH   8   9
ENDBRANCH   2   8
ENDBRANCH   1   5
BRANCH   1  13
ATOM     13  O   UNL     1      43.763   2.532  10.594  0.00  0.00    +0.000 OA
BRANCH  13  14
ATOM     14  C   UNL     1      44.591   2.893   9.562  0.00  0.00    +0.000 A 
ATOM     15  C   UNL     1      44.735   4.182   9.045  0.00  0.00    +0.000 A 
ATOM     16  C   UNL     1      45.620   4.421   7.994  0.00  0.00    +0.000 A 
ATOM     17  C   UNL     1      46.372   3.372   7.463  0.00  0.00    +0.000 A 
ATOM     18  C   UNL     1      46.242   2.075   7.975  0.00  0.00    +0.000 A 
ATOM     19  C   UNL     1      45.337   1.841   9.017  0.00  0.00    +0.000 A 
BRANCH  18  20
ATOM     20  C   UNL     1      47.104   1.012   7.382  0.00  0.00    +0.000 C 
ATOM     21  N   UNL     1      46.826  -0.297   7.669  0.00  0.00    +0.000 N 
ATOM     22  O   UNL     1      48.055   1.288   6.660  0.00  0.00    +0.000 OA
ATOM     23  H   UNL     1      46.083  -0.618   8.268  0.00  0.00    +0.000 HD
ATOM     24  H   UNL     1      47.450  -0.988   7.275  0.00  0.00    +0.000 HD
ENDBRANCH  18  20
ENDBRANCH  13  14
ENDBRANCH   1  13
TORSDOF 7
ENDMDL
MODEL 3
REMARK VINA RESULT:    -7.135      2.874      6.790
REMARK INTER + INTRA:         -10.929
REMARK INTER:                 -10.510
REMARK INTRA:                  -0.419
REMARK UNBOUND:                -0.874
REMARK  Name = 
REMARK  8 active torsions:
REMARK  status: ('A' for Active; 'I' for Inactive)
REMARK    1  A    between atoms: C_1  and  N_2
REMARK    2  A    between atoms: N_2  and  C_3
REMARK    3  A    between atoms: C_3  and  C_4
REMARK    4  A    between atoms: C_4  and  C_5
REMARK    5  A    between atoms: C_8  and  C_9
REMARK    6  A    between atoms: C_9  and  O_10
REMARK    7  A    between atoms: O_10  and  C_11
REMARK    8  A    between atoms: C_15  and  C_16
REMARK                            x       y       z     vdW  Elec       q    Type
REMARK                         _______ _______ _______ _____ _____    ______ ____
ROOT
ATOM      1  C   UNL     1      43.951   2.597  11.785  0.00  0.00    +0.000 C 
ENDROOT
BRANCH   1   5
ATOM      2  C   UNL     1      45.251   6.610  12.732  0.00  0.00    +0.000 A 
ATOM      3  C   UNL     1      46.098   5.517  12.956  0.00  0.00    +0.000 A 
ATOM      4  C   UNL     1      45.672   4.217  12.675  0.00  0.00    +0.000 A 
ATOM      5  C   UNL     1      44.387   3.988  12.169  0.00  0.00    +0.000 A 
ATOM      6  C   UNL     1      43.516   5.073  12.011  0.00  0.00    +0.000 A 
ATOM      7  C   UNL     1      43.946   6.374  12.284  0.00  0.00    +0.000 A 
BRANCH   2   8
ATOM      8  C   UNL     1      45.746   8.022  12.955  0.00  0.00    +0.000 C 
BRANCH   8   9
ATOM      9  C   UNL     1      45.190   8.992  11.900  0.00  0.00    +0.000 C 
BRANCH   9  11
ATOM     10  C   UNL     1      44.001  11.046  11.525  0.00  0.00    +0.000 C 
ATOM     11  N   UNL     1      44.412  10.066  12.524  0.00  0.00    +0.000 NA
ATOM     12  H   UNL     1      43.583   9.672  12.967  0.00  0.00    +0.000 HD
ENDBRANCH   9  11
ENDBRANCH   8   9
ENDBRANCH   2   8
ENDBRANCH   1   5
BRANCH   1  13
ATOM     13  O   UNL     1      43.513   2.590  10.429  0.00  0.00    +0.000 OA
BRANCH  13  14
ATOM     14  C   UNL     1      44.454   2.923   9.489  0.00  0.00    +0.000 A 
ATOM     15  C   UNL     1      44.726   4.213   9.029  0.00  0.00    +0.000 A 
ATOM     16  C   UNL     1      45.718   4.421   8.071  0.00  0.00    +0.000 A 
ATOM     17  C   UNL     1      46.448   3.340   7.577  0.00  0.00    +0.000 A 
ATOM     18  C   UNL     1      46.190   2.040   8.032  0.00  0.00    +0.000 A 
ATOM     19  C   UNL     1      45.179   1.840   8.980  0.00  0.00    +0.000 A 
BRANCH  18  20
ATOM     20  C   UNL     1      47.035   0.939   7.487  0.00  0.00    +0.000 C 
ATOM     21  N   UNL     1      46.664  -0.356   7.727  0.00  0.00    +0.000 N 
ATOM     22  O   UNL     1      48.052   1.171   6.844  0.00  0.00    +0.000 OA
ATOM     23  H   UNL     1      45.861  -0.644   8.263  0.00  0.00    +0.000 HD
ATOM     24  H   UNL     1      47.277  -1.075   7.368  0.00  0.00    +0.000 HD
ENDBRANCH  18  20
ENDBRANCH  13  14
ENDBRANCH   1  13
TORSDOF 7
ENDMDL
MODEL 4
REMARK VINA RESULT:    -6.930      1.766      2.402
REMARK INTER + INTRA:         -10.640
REMARK INTER:                  -9.828
REMARK INTRA:                  -0.812
REMARK UNBOUND:                -0.874
REMARK  Name = 
REMARK  8 active torsions:
REMARK  status: ('A' for Active; 'I' for Inactive)
REMARK    1  A    between atoms: C_1  and  N_2
REMARK    2  A    between atoms: N_2  and  C_3
REMARK    3  A    between atoms: C_3  and  C_4
REMARK    4  A    between atoms: C_4  and  C_5
REMARK    5  A    between atoms: C_8  and  C_9
REMARK    6  A    between atoms: C_9  and  O_10
REMARK    7  A    between atoms: O_10  and  C_11
REMARK    8  A    between atoms: C_15  and  C_16
REMARK                            x       y       z     vdW  Elec       q    Type
REMARK                         _______ _______ _______ _____ _____    ______ ____
ROOT
ATOM      1  C   UNL     1      43.637   5.034  10.664  0.00  0.00    +0.000 C 
ENDROOT
BRANCH   1   5
ATOM      2  C   UNL     1      45.889   2.307   8.178  0.00  0.00    +0.000 A 
ATOM      3  C   UNL     1      45.925   3.687   7.934  0.00  0.00    +0.000 A 
ATOM      4  C   UNL     1      45.179   4.567   8.719  0.00  0.00    +0.000 A 
ATOM      5  C   UNL     1      44.378   4.083   9.761  0.00  0.00    +0.000 A 
ATOM      6  C   UNL     1      44.289   2.700   9.960  0.00  0.00    +0.000 A 
ATOM      7  C   UNL     1      45.042   1.820   9.180  0.00  0.00    +0.000 A 
BRANCH   2   8
ATOM      8  C   UNL     1      46.765   1.365   7.383  0.00  0.00    +0.000 C 
BRANCH   8   9
ATOM      9  C   UNL     1      48.126   1.998   7.051  0.00  0.00    +0.000 C 
BRANCH   9  11
ATOM     10  C   UNL     1      47.369   2.520   4.832  0.00  0.00    +0.000 C 
ATOM     11  N   UNL     1      48.424   1.894   5.620  0.00  0.00    +0.000 NA
ATOM     12  H   UNL     1      49.310   2.360   5.423  0.00  0.00    +0.000 HD
ENDBRANCH   9  11
ENDBRANCH   8   9
ENDBRANCH   2   8
ENDBRANCH   1   5
BRANCH   1  13
ATOM     13  O   UNL     1      44.494   6.112  11.031  0.00  0.00    +0.000 OA
BRANCH  13  14
ATOM     14  C   UNL     1      45.395   5.853  12.031  0.00  0.00    +0.000 A 
ATOM     15  C   UNL     1      45.200   4.974  13.098  0.00  0.00    +0.000 A 
ATOM     16  C   UNL     1      46.203   4.793  14.050  0.00  0.00    +0.000 A 
ATOM     17  C   UNL     1      47.410   5.483  13.932  0.00  0.00    +0.000 A 
ATOM     18  C   UNL     1      47.623   6.364  12.863  0.00  0.00    +0.000 A 
ATOM     19  C   UNL     1      46.602   6.554  11.924  0.00  0.00    +0.000 A 
BRANCH  18  20
ATOM     20  C   UNL     1      48.951   7.038  12.782  0.00  0.00    +0.000 C 
ATOM     21  N   UNL     1      49.300   7.664  11.616  0.00  0.00    +0.000 N 
ATOM     22  O   UNL     1      49.731   7.031  13.726  0.00  0.00    +0.000 OA
ATOM     23  H   UNL     1      48.737   7.703  10.782  0.00  0.00    +0.000 HD
ATOM     24  H   UNL     1      50.220   8.083  11.587  0.00  0.00    +0.000 HD
ENDBRANCH  18  20
ENDBRANCH  13  14
ENDBRANCH   1  13
TORSDOF 7
ENDMDL
MODEL 5
REMARK VINA RESULT:    -6.907      1.780      2.842
REMARK INTER + INTRA:         -10.607
REMARK INTER:                 -10.060
REMARK INTRA:                  -0.547
REMARK UNBOUND:                -0.874
REMARK  Name = 
REMARK  8 active torsions:
REMARK  status: ('A' for Active; 'I' for Inactive)
REMARK    1  A    between atoms: C_1  and  N_2
REMARK    2  A    between atoms: N_2  and  C_3
REMARK    3  A    between atoms: C_3  and  C_4
REMARK    4  A    between atoms: C_4  and  C_5
REMARK    5  A    between atoms: C_8  and  C_9
REMARK    6  A    between atoms: C_9  and  O_10
REMARK    7  A    between atoms: O_10  and  C_11
REMARK    8  A    between atoms: C_15  and  C_16
REMARK                            x       y       z     vdW  Elec       q    Type
REMARK                         _______ _______ _______ _____ _____    ______ ____
ROOT
ATOM      1  C   UNL     1      43.232   3.933  11.962  0.00  0.00    +0.000 C 
ENDROOT
BRANCH   1   5
ATOM      2  C   UNL     1      45.386   3.098   8.308  0.00  0.00    +0.000 A 
ATOM      3  C   UNL     1      44.997   4.407   8.621  0.00  0.00    +0.000 A 
ATOM      4  C   UNL     1      44.280   4.676   9.788  0.00  0.00    +0.000 A 
ATOM      5  C   UNL     1      43.934   3.638  10.661  0.00  0.00    +0.000 A 
ATOM      6  C   UNL     1      44.261   2.322  10.314  0.00  0.00    +0.000 A 
ATOM      7  C   UNL     1      44.987   2.054   9.150  0.00  0.00    +0.000 A 
BRANCH   2   8
ATOM      8  C   UNL     1      46.238   2.821   7.089  0.00  0.00    +0.000 C 
BRANCH   8   9
ATOM      9  C   UNL     1      47.231   1.674   7.338  0.00  0.00    +0.000 C 
BRANCH   9  11
ATOM     10  C   UNL     1      47.889   2.466   5.167  0.00  0.00    +0.000 C 
ATOM     11  N   UNL     1      48.273   1.642   6.307  0.00  0.00    +0.000 NA
ATOM     12  H   UNL     1      49.146   1.995   6.697  0.00  0.00    +0.000 HD
ENDBRANCH   9  11
ENDBRANCH   8   9
ENDBRANCH   2   8
ENDBRANCH   1   5
BRANCH   1  13
ATOM     13  O   UNL     1      44.135   3.735  13.047  0.00  0.00    +0.000 OA
BRANCH  13  14
ATOM     14  C   UNL     1      45.169   4.630  13.143  0.00  0.00    +0.000 A 
ATOM     15  C   UNL     1      46.487   4.320  13.484  0.00  0.00    +0.000 A 
ATOM     16  C   UNL     1      47.452   5.325  13.540  0.00  0.00    +0.000 A 
ATOM     17  C   UNL     1      47.104   6.644  13.245  0.00  0.00    +0.000 A 
ATOM     18  C   UNL     1      45.787   6.970  12.896  0.00  0.00    +0.000 A 
ATOM     19  C   UNL     1      44.821   5.957  12.862  0.00  0.00    +0.000 A 
BRANCH  18  20
ATOM     20  C   UNL     1      45.497   8.393  12.558  0.00  0.00    +0.000 C 
ATOM     21  N   UNL     1      46.146   9.379  13.251  0.00  0.00    +0.000 N 
ATOM     22  O   UNL     1      44.688   8.692  11.688  0.00  0.00    +0.000 OA
ATOM     23  H   UNL     1      46.808   9.232  13.995  0.00  0.00    +0.000 HD
ATOM     24  H   UNL     1      45.901  10.332  13.016  0.00  0.00    +0.000 HD
ENDBRANCH  18  20
ENDBRANCH  13  14
ENDBRANCH   1  13
TORSDOF 7
ENDMDL
MODEL 6
REMARK VINA RESULT:    -6.520      2.411      7.374
REMARK INTER + INTRA:         -10.062
REMARK INTER:                  -9.319
REMARK INTRA:                  -0.744
REMARK UNBOUND:                -0.874
REMARK  Name = 
REMARK  8 active torsions:
REMARK  status: ('A' for Active; 'I' for Inactive)
REMARK    1  A    between atoms: C_1  and  N_2
REMARK    2  A    between atoms: N_2  and  C_3
REMARK    3  A    between atoms: C_3  and  C_4
REMARK    4  A    between atoms: C_4  and  C_5
REMARK    5  A    between atoms: C_8  and  C_9
REMARK    6  A    between atoms: C_9  and  O_10
REMARK    7  A    between atoms: O_10  and  C_11
REMARK    8  A    between atoms: C_15  and  C_16
REMARK                            x       y       z     vdW  Elec       q    Type
REMARK                         _______ _______ _______ _____ _____    ______ ____
ROOT
ATOM      1  C   UNL     1      44.357   5.220  10.795  0.00  0.00    +0.000 C 
ENDROOT
BRANCH   1   5
ATOM      2  C   UNL     1      47.723   6.376  13.250  0.00  0.00    +0.000 A 
ATOM      3  C   UNL     1      47.495   7.000  12.016  0.00  0.00    +0.000 A 
ATOM      4  C   UNL     1      46.423   6.611  11.210  0.00  0.00    +0.000 A 
ATOM      5  C   UNL     1      45.563   5.587  11.622  0.00  0.00    +0.000 A 
ATOM      6  C   UNL     1      45.830   4.917  12.821  0.00  0.00    +0.000 A 
ATOM      7  C   UNL     1      46.898   5.312  13.632  0.00  0.00    +0.000 A 
BRANCH   2   8
ATOM      8  C   UNL     1      48.831   6.857  14.160  0.00  0.00    +0.000 C 
BRANCH   8   9
ATOM      9  C   UNL     1      48.636   6.364  15.603  0.00  0.00    +0.000 C 
BRANCH   9  11
ATOM     10  C   UNL     1      50.268   6.870  17.292  0.00  0.00    +0.000 C 
ATOM     11  N   UNL     1      49.912   5.966  16.204  0.00  0.00    +0.000 NA
ATOM     12  H   UNL     1      49.834   5.017  16.570  0.00  0.00    +0.000 HD
ENDBRANCH   9  11
ENDBRANCH   8   9
ENDBRANCH   2   8
ENDBRANCH   1   5
BRANCH   1  13
ATOM     13  O   UNL     1      44.738   5.075   9.430  0.00  0.00    +0.000 OA
BRANCH  13  14
ATOM     14  C   UNL     1      45.105   3.814   9.037  0.00  0.00    +0.000 A 
ATOM     15  C   UNL     1      44.573   2.620   9.526  0.00  0.00    +0.000 A 
ATOM     16  C   UNL     1      45.029   1.396   9.036  0.00  0.00    +0.000 A 
ATOM     17  C   UNL     1      46.012   1.363   8.047  0.00  0.00    +0.000 A 
ATOM     18  C   UNL     1      46.553   2.553   7.542  0.00  0.00    +0.000 A 
ATOM     19  C   UNL     1      46.102   3.776   8.055  0.00  0.00    +0.000 A 
BRANCH  18  20
ATOM     20  C   UNL     1      47.573   2.441   6.461  0.00  0.00    +0.000 C 
ATOM     21  N   UNL     1      47.451   3.239   5.356  0.00  0.00    +0.000 N 
ATOM     22  O   UNL     1      48.503   1.647   6.538  0.00  0.00    +0.000 OA
ATOM     23  H   UNL     1      46.711   3.903   5.194  0.00  0.00    +0.000 HD
ATOM     24  H   UNL     1      48.144   3.114   4.630  0.00  0.00    +0.000 HD
ENDBRANCH  18  20
ENDBRANCH  13  14
ENDBRANCH   1  13
TORSDOF 7
ENDMDL
MODEL 7
REMARK VINA RESULT:    -6.305      2.119      7.222
REMARK INTER + INTRA:          -9.758
REMARK INTER:                  -9.198
REMARK INTRA:                  -0.561
REMARK UNBOUND:                -0.874
REMARK  Name = 
REMARK  8 active torsions:
REMARK  status: ('A' for Active; 'I' for Inactive)
REMARK    1  A    between atoms: C_1  and  N_2
REMARK    2  A    between atoms: N_2  and  C_3
REMARK    3  A    between atoms: C_3  and  C_4
REMARK    4  A    between atoms: C_4  and  C_5
REMARK    5  A    between atoms: C_8  and  C_9
REMARK    6  A    between atoms: C_9  and  O_10
REMARK    7  A    between atoms: O_10  and  C_11
REMARK    8  A    between atoms: C_15  and  C_16
REMARK                            x       y       z     vdW  Elec       q    Type
REMARK                         _______ _______ _______ _____ _____    ______ ____
ROOT
ATOM      1  C   UNL     1      45.915   6.026  10.281  0.00  0.00    +0.000 C 
ENDROOT
BRANCH   1   5
ATOM      2  C   UNL     1      47.297   5.432  14.333  0.00  0.00    +0.000 A 
ATOM      3  C   UNL     1      46.191   4.722  13.848  0.00  0.00    +0.000 A 
ATOM      4  C   UNL     1      45.727   4.931  12.548  0.00  0.00    +0.000 A 
ATOM      5  C   UNL     1      46.359   5.858  11.711  0.00  0.00    +0.000 A 
ATOM      6  C   UNL     1      47.420   6.616  12.218  0.00  0.00    +0.000 A 
ATOM      7  C   UNL     1      47.890   6.402  13.517  0.00  0.00    +0.000 A 
BRANCH   2   8
ATOM      8  C   UNL     1      47.851   5.142  15.711  0.00  0.00    +0.000 C 
BRANCH   8   9
ATOM      9  C   UNL     1      47.362   3.786  16.246  0.00  0.00    +0.000 C 
BRANCH   9  11
ATOM     10  C   UNL     1      49.372   3.187  17.418  0.00  0.00    +0.000 C 
ATOM     11  N   UNL     1      48.463   2.823  16.337  0.00  0.00    +0.000 NA
ATOM     12  H   UNL     1      48.087   1.893  16.516  0.00  0.00    +0.000 HD
ENDBRANCH   9  11
ENDBRANCH   8   9
ENDBRANCH   2   8
ENDBRANCH   1   5
BRANCH   1  13
ATOM     13  O   UNL     1      44.795   5.183  10.025  0.00  0.00    +0.000 OA
BRANCH  13  14
ATOM     14  C   UNL     1      45.070   3.981   9.424  0.00  0.00    +0.000 A 
ATOM     15  C   UNL     1      44.560   2.740   9.812  0.00  0.00    +0.000 A 
ATOM     16  C   UNL     1      44.912   1.587   9.111  0.00  0.00    +0.000 A 
ATOM     17  C   UNL     1      45.767   1.673   8.012  0.00  0.00    +0.000 A 
ATOM     18  C   UNL     1      46.282   2.911   7.607  0.00  0.00    +0.000 A 
ATOM     19  C   UNL     1      45.939   4.061   8.330  0.00  0.00    +0.000 A 
BRANCH  18  20
ATOM     20  C   UNL     1      47.161   2.931   6.402  0.00  0.00    +0.000 C 
ATOM     21  N   UNL     1      48.474   2.572   6.539  0.00  0.00    +0.000 N 
ATOM     22  O   UNL     1      46.734   3.270   5.305  0.00  0.00    +0.000 OA
ATOM     23  H   UNL     1      48.919   2.301   7.401  0.00  0.00    +0.000 HD
ATOM     24  H   UNL     1      49.046   2.627   5.707  0.00  0.00    +0.000 HD
ENDBRANCH  18  20
ENDBRANCH  13  14
ENDBRANCH   1  13
TORSDOF 7
ENDMDL
MODEL 8
REMARK VINA RESULT:    -6.226      1.811      2.884
REMARK INTER + INTRA:          -9.648
REMARK INTER:                  -9.096
REMARK INTRA:                  -0.552
REMARK UNBOUND:                -0.874
REMARK  Name = 
REMARK  8 active torsions:
REMARK  status: ('A' for Active; 'I' for Inactive)
REMARK    1  A    between atoms: C_1  and  N_2
REMARK    2  A    between atoms: N_2  and  C_3
REMARK    3  A    between atoms: C_3  and  C_4
REMARK    4  A    between atoms: C_4  and  C_5
REMARK    5  A    between atoms: C_8  and  C_9
REMARK    6  A    between atoms: C_9  and  O_10
REMARK    7  A    between atoms: O_10  and  C_11
REMARK    8  A    between atoms: C_15  and  C_16
REMARK                            x       y       z     vdW  Elec       q    Type
REMARK                         _______ _______ _______ _____ _____    ______ ____
ROOT
ATOM      1  C   UNL     1      44.948   4.969  13.165  0.00  0.00    +0.000 C 
ENDROOT
BRANCH   1   5
ATOM      2  C   UNL     1      45.295   3.782   9.023  0.00  0.00    +0.000 A 
ATOM      3  C   UNL     1      45.567   5.101   9.410  0.00  0.00    +0.000 A 
ATOM      4  C   UNL     1      45.432   5.493  10.742  0.00  0.00    +0.000 A 
ATOM      5  C   UNL     1      45.016   4.573  11.712  0.00  0.00    +0.000 A 
ATOM      6  C   UNL     1      44.678   3.274  11.314  0.00  0.00    +0.000 A 
ATOM      7  C   UNL     1      44.822   2.880   9.982  0.00  0.00    +0.000 A 
BRANCH   2   8
ATOM      8  C   UNL     1      45.527   3.338   7.595  0.00  0.00    +0.000 C 
BRANCH   8   9
ATOM      9  C   UNL     1      46.868   3.856   7.049  0.00  0.00    +0.000 C 
BRANCH   9  11
ATOM     10  C   UNL     1      47.240   1.487   7.197  0.00  0.00    +0.000 C 
ATOM     11  N   UNL     1      47.749   2.747   6.669  0.00  0.00    +0.000 NA
ATOM     12  H   UNL     1      47.800   2.688   5.653  0.00  0.00    +0.000 HD
ENDBRANCH   9  11
ENDBRANCH   8   9
ENDBRANCH   2   8
ENDBRANCH   1   5
BRANCH   1  13
ATOM     13  O   UNL     1      45.820   4.139  13.928  0.00  0.00    +0.000 OA
BRANCH  13  14
ATOM     14  C   UNL     1      46.828   4.780  14.601  0.00  0.00    +0.000 A 
ATOM     15  C   UNL     1      47.515   5.911  14.156  0.00  0.00    +0.000 A 
ATOM     16  C   UNL     1      48.520   6.475  14.942  0.00  0.00    +0.000 A 
ATOM     17  C   UNL     1      48.835   5.915  16.181  0.00  0.00    +0.000 A 
ATOM     18  C   UNL     1      48.151   4.783  16.643  0.00  0.00    +0.000 A 
ATOM     19  C   UNL     1      47.157   4.212  15.838  0.00  0.00    +0.000 A 
BRANCH  18  20
ATOM     20  C   UNL     1      48.515   4.261  17.991  0.00  0.00    +0.000 C 
ATOM     21  N   UNL     1      47.729   4.594  19.060  0.00  0.00    +0.000 N 
ATOM     22  O   UNL     1      49.503   3.556  18.159  0.00  0.00    +0.000 OA
ATOM     23  H   UNL     1      46.914   5.184  19.025  0.00  0.00    +0.000 HD
ATOM     24  H   UNL     1      48.024   4.247  19.963  0.00  0.00    +0.000 HD
ENDBRANCH  18  20
ENDBRANCH  13  14
ENDBRANCH   1  13
TORSDOF 7
ENDMDL
MODEL 9
REMARK VINA RESULT:    -6.088      3.152      4.490
REMARK INTER + INTRA:          -9.453
REMARK INTER:                  -8.993
REMARK INTRA:                  -0.460
REMARK UNBOUND:                -0.874
REMARK  Name = 
REMARK  8 active torsions:
REMARK  status: ('A' for Active; 'I' for Inactive)
REMARK    1  A    between atoms: C_1  and  N_2
REMARK    2  A    between atoms: N_2  and  C_3
REMARK    3  A    between atoms: C_3  and  C_4
REMARK    4  A    between atoms: C_4  and  C_5
REMARK    5  A    between atoms: C_8  and  C_9
REMARK    6  A    between atoms: C_9  and  O_10
REMARK    7  A    between atoms: O_10  and  C_11
REMARK    8  A    between atoms: C_15  and  C_16
REMARK                            x       y       z     vdW  Elec       q    Type
REMARK                         _______ _______ _______ _____ _____    ______ ____
ROOT
ATOM      1  C   UNL     1      44.482   5.628  11.815  0.00  0.00    +0.000 C 
ENDROOT
BRANCH   1   5
ATOM      2  C   UNL     1      45.483   3.386   8.257  0.00  0.00    +0.000 A 
ATOM      3  C   UNL     1      46.011   4.668   8.462  0.00  0.00    +0.000 A 
ATOM      4  C   UNL     1      45.669   5.404   9.598  0.00  0.00    +0.000 A 
ATOM      5  C   UNL     1      44.789   4.873  10.547  0.00  0.00    +0.000 A 
ATOM      6  C   UNL     1      44.208   3.622  10.309  0.00  0.00    +0.000 A 
ATOM      7  C   UNL     1      44.557   2.881   9.176  0.00  0.00    +0.000 A 
BRANCH   2   8
ATOM      8  C   UNL     1      45.923   2.556   7.072  0.00  0.00    +0.000 C 
BRANCH   8   9
ATOM      9  C   UNL     1      46.948   1.484   7.476  0.00  0.00    +0.000 C 
BRANCH   9  11
ATOM     10  C   UNL     1      47.863   2.363   5.436  0.00  0.00    +0.000 C 
ATOM     11  N   UNL     1      48.111   1.499   6.584  0.00  0.00    +0.000 NA
ATOM     12  H   UNL     1      48.925   1.843   7.093  0.00  0.00    +0.000 HD
ENDBRANCH   9  11
ENDBRANCH   8   9
ENDBRANCH   2   8
ENDBRANCH   1   5
BRANCH   1  13
ATOM     13  O   UNL     1      45.586   6.462  12.155  0.00  0.00    +0.000 OA
BRANCH  13  14
ATOM     14  C   UNL     1      45.408   7.808  11.963  0.00  0.00    +0.000 A 
ATOM     15  C   UNL     1      46.336   8.805  12.271  0.00  0.00    +0.000 A 
ATOM     16  C   UNL     1      46.035  10.144  12.019  0.00  0.00    +0.000 A 
ATOM     17  C   UNL     1      44.810  10.489  11.448  0.00  0.00    +0.000 A 
ATOM     18  C   UNL     1      43.871   9.499  11.129  0.00  0.00    +0.000 A 
ATOM     19  C   UNL     1      44.174   8.159  11.403  0.00  0.00    +0.000 A 
BRANCH  18  20
ATOM     20  C   UNL     1      42.598   9.938  10.488  0.00  0.00    +0.000 C 
ATOM     21  N   UNL     1      41.412   9.564  11.058  0.00  0.00    +0.000 N 
ATOM     22  O   UNL     1      42.596  10.612   9.465  0.00  0.00    +0.000 OA
ATOM     23  H   UNL     1      41.313   8.994  11.882  0.00  0.00    +0.000 HD
ATOM     24  H   UNL     1      40.570   9.855  10.579  0.00  0.00    +0.000 HD
ENDBRANCH  18  20
ENDBRANCH  13  14
ENDBRANCH   1  13
TORSDOF 7
ENDMDL
