MODEL 1
REMARK VINA RESULT:    -7.675      0.000      0.000
REMARK INTER + INTRA:         -11.534
REMARK INTER:                 -10.367
REMARK INTRA:                  -1.167
REMARK UNBOUND:                -1.167
REMARK  Name = 
REMARK  7 active torsions:
REMARK  status: ('A' for Active; 'I' for Inactive)
REMARK    1  A    between atoms: C_1  and  N_2
REMARK    2  A    between atoms: N_2  and  C_3
REMARK    3  A    between atoms: C_3  and  C_4
REMARK    4  A    between atoms: C_7  and  C_8
REMARK    5  A    between atoms: C_8  and  O_9
REMARK    6  A    between atoms: O_9  and  C_10
REMARK    7  A    between atoms: C_18  and  C_20
REMARK                            x       y       z     vdW  Elec       q    Type
REMARK                         _______ _______ _______ _____ _____    ______ ____
ROOT
ATOM      1  C   UNL     1      45.912   8.572  12.199  0.00  0.00    +0.000 C 
ATOM      2  N   UNL     1      45.793   7.122  12.079  0.00  0.00    +0.000 N 
ATOM      3  C   UNL     1      44.569   6.646  11.580  0.00  0.00    +0.000 C 
ATOM      4  O   UNL     1      43.657   7.415  11.283  0.00  0.00    +0.000 OA
ENDROOT
BRANCH   3   5
ATOM      5  C   UNL     1      44.359   5.198  11.453  0.00  0.00    +0.000 A 
ATOM      6  C   UNL     1      43.621   4.430  12.339  0.00  0.00    +0.000 A 
ATOM      7  S   UNL     1      43.490   2.792  11.877  0.00  0.00    +0.000 S 
ATOM      8  C   UNL     1      44.295   3.088  10.408  0.00  0.00    +0.000 A 
ATOM      9  N   UNL     1      44.429   2.111   9.475  0.00  0.00    +0.000 NA
ATOM     10  C   UNL     1      45.002   2.499   8.384  0.00  0.00    +0.000 A 
ATOM     11  N   UNL     1      45.486   3.763   8.159  0.00  0.00    +0.000 N 
ATOM     12  C   UNL     1      45.495   4.744   9.127  0.00  0.00    +0.000 A 
ATOM     13  O   UNL     1      46.150   5.771   8.980  0.00  0.00    +0.000 OA
ATOM     14  C   UNL     1      44.749   4.391  10.322  0.00  0.00    +0.000 A 
ATOM     15  H   UNL     1      45.985   3.979   7.309  0.00  0.00    +0.000 HD
ENDBRANCH   3   5
BRANCH   2  16
ATOM     16  C   UNL     1      46.981   6.276  12.238  0.00  0.00    +0.000 C 
BRANCH  16  17
ATOM     17  C   UNL     1      47.343   5.861  13.639  0.00  0.00    +0.000 A 
ATOM     18  C   UNL     1      48.252   6.621  14.395  0.00  0.00    +0.000 A 
ATOM     19  C   UNL     1      48.625   6.207  15.672  0.00  0.00    +0.000 A 
ATOM     20  C   UNL     1      48.102   5.025  16.208  0.00  0.00    +0.000 A 
ATOM     21  C   UNL     1      47.164   4.292  15.471  0.00  0.00    +0.000 A 
ATOM     22  C   UNL     1      46.794   4.700  14.191  0.00  0.00    +0.000 A 
BRANCH  20  23
ATOM     23  C   UNL     1      48.563   4.523  17.550  0.00  0.00    +0.000 C 
BRANCH  23  24
ATOM     24  O   UNL     1      48.758   3.112  17.496  0.00  0.00    +0.000 OA
BRANCH  24  25
ATOM     25  C   UNL     1      50.094   2.788  17.600  0.00  0.00    +0.000 A 
ATOM     26  C   UNL     1      50.967   3.747  18.092  0.00  0.00    +0.000 A 
ATOM     27  N   UNL     1      52.295   3.514  18.244  0.00  0.00    +0.000 NA
ATOM     28  C   UNL     1      52.706   2.277  17.884  0.00  0.00    +0.000 A 
ATOM     29  C   UNL     1      51.834   1.318  17.392  0.00  0.00    +0.000 A 
ATOM     30  N   UNL     1      50.516   1.555  17.237  0.00  0.00    +0.000 NA
ENDBRANCH  24  25
ENDBRANCH  23  24
ENDBRANCH  20  23
ENDBRANCH  16  17
ENDBRANCH   2  16
TORSDOF 6
ENDMDL
MODEL 2
REMARK VINA RESULT:    -7.253      3.265      8.379
REMARK INTER + INTRA:         -10.964
REMARK INTER:                  -9.848
REMARK INTRA:                  -1.117
REMARK UNBOUND:                -1.167
REMARK  Name = 
REMARK  7 active torsions:
REMARK  status: ('A' for Active; 'I' for Inactive)
REMARK    1  A    between atoms: C_1  and  N_2
REMARK    2  A    between atoms: N_2  and  C_3
REMARK    3  A    between atoms: C_3  and  C_4
REMARK    4  A    between atoms: C_7  and  C_8
REMARK    5  A    between atoms: C_8  and  O_9
REMARK    6  A    between atoms: O_9  and  C_10
REMARK    7  A    between atoms: C_18  and  C_20
REMARK                            x       y       z     vdW  Elec       q    Type
REMARK                         _______ _______ _______ _____ _____    ______ ____
ROOT
ATOM      1  C   UNL     1      49.420   7.149  12.285  0.00  0.00    +0.000 C 
ATOM      2  N   UNL     1      48.815   7.568  13.545  0.00  0.00    +0.000 N 
ATOM      3  C   UNL     1      49.712   7.936  14.563  0.00  0.00    +0.000 C 
ATOM      4  O   UNL     1      50.928   7.888  14.392  0.00  0.00    +0.000 OA
ENDROOT
BRANCH   3   5
ATOM      5  C   UNL     1      49.185   8.346  15.871  0.00  0.00    +0.000 A 
ATOM      6  C   UNL     1      48.914   9.657  16.234  0.00  0.00    +0.000 A 
ATOM      7  S   UNL     1      48.232   9.807  17.791  0.00  0.00    +0.000 S 
ATOM      8  C   UNL     1      48.146   8.117  17.972  0.00  0.00    +0.000 A 
ATOM      9  N   UNL     1      47.554   7.561  19.061  0.00  0.00    +0.000 NA
ATOM     10  C   UNL     1      47.503   6.270  19.029  0.00  0.00    +0.000 A 
ATOM     11  N   UNL     1      48.025   5.488  18.031  0.00  0.00    +0.000 N 
ATOM     12  C   UNL     1      48.754   6.004  16.980  0.00  0.00    +0.000 A 
ATOM     13  O   UNL     1      49.410   5.271  16.247  0.00  0.00    +0.000 OA
ATOM     14  C   UNL     1      48.727   7.454  16.908  0.00  0.00    +0.000 A 
ATOM     15  H   UNL     1      48.011   4.482  18.104  0.00  0.00    +0.000 HD
ENDBRANCH   3   5
BRANCH   2  16
ATOM     16  C   UNL     1      47.371   7.816  13.618  0.00  0.00    +0.000 C 
BRANCH  16  17
ATOM     17  C   UNL     1      46.468   6.787  12.992  0.00  0.00    +0.000 A 
ATOM     18  C   UNL     1      46.450   5.467  13.475  0.00  0.00    +0.000 A 
ATOM     19  C   UNL     1      45.652   4.503  12.860  0.00  0.00    +0.000 A 
ATOM     20  C   UNL     1      44.868   4.843  11.752  0.00  0.00    +0.000 A 
ATOM     21  C   UNL     1      44.854   6.168  11.299  0.00  0.00    +0.000 A 
ATOM     22  C   UNL     1      45.656   7.132  11.908  0.00  0.00    +0.000 A 
BRANCH  20  23
ATOM     23  C   UNL     1      44.070   3.791  11.028  0.00  0.00    +0.000 C 
BRANCH  23  24
ATOM     24  O   UNL     1      43.963   4.133   9.648  0.00  0.00    +0.000 OA
BRANCH  24  25
ATOM     25  C   UNL     1      44.925   3.490   8.899  0.00  0.00    +0.000 A 
ATOM     26  C   UNL     1      45.130   2.135   9.114  0.00  0.00    +0.000 A 
ATOM     27  N   UNL     1      46.043   1.415   8.414  0.00  0.00    +0.000 NA
ATOM     28  C   UNL     1      46.739   2.115   7.490  0.00  0.00    +0.000 A 
ATOM     29  C   UNL     1      46.536   3.470   7.274  0.00  0.00    +0.000 A 
ATOM     30  N   UNL     1      45.631   4.183   7.976  0.00  0.00    +0.000 NA
ENDBRANCH  24  25
ENDBRANCH  23  24
ENDBRANCH  20  23
ENDBRANCH  16  17
ENDBRANCH   2  16
TORSDOF 6
ENDMDL
MODEL 3
REMARK VINA RESULT:    -6.646      2.256      8.222
REMARK INTER + INTRA:         -10.143
REMARK INTER:                  -9.139
REMARK INTRA:                  -1.004
REMARK UNBOUND:                -1.167
REMARK  Name = 
REMARK  7 active torsions:
REMARK  status: ('A' for Active; 'I' for Inactive)
REMARK    1  A    between atoms: C_1  and  N_2
REMARK    2  A    between atoms: N_2  and  C_3
REMARK    3  A    between atoms: C_3  and  C_4
REMARK    4  A    between atoms: C_7  and  C_8
REMARK    5  A    between atoms: C_8  and  O_9
REMARK    6  A    between atoms: O_9  and  C_10
REMARK    7  A    between atoms: C_18  and  C_20
REMARK                            x       y       z     vdW  Elec       q    Type
REMARK                         _______ _______ _______ _____ _____    ______ ____
ROOT
ATOM      1  C   UNL     1      48.750   8.841  16.420  0.00  0.00    +0.000 C 
ATOM      2  N   UNL     1      48.861   7.388  16.340  0.00  0.00    +0.000 N 
ATOM      3  C   UNL     1      48.370   6.673  17.446  0.00  0.00    +0.000 C 
ATOM      4  O   UNL     1      47.893   7.251  18.420  0.00  0.00    +0.000 OA
ENDROOT
BRANCH   3   5
ATOM      5  C   UNL     1      48.468   5.208  17.455  0.00  0.00    +0.000 A 
ATOM      6  C   UNL     1      47.412   4.348  17.193  0.00  0.00    +0.000 A 
ATOM      7  S   UNL     1      47.858   2.700  17.197  0.00  0.00    +0.000 S 
ATOM      8  C   UNL     1      49.500   3.091  17.408  0.00  0.00    +0.000 A 
ATOM      9  N   UNL     1      50.455   2.127  17.391  0.00  0.00    +0.000 NA
ATOM     10  C   UNL     1      51.661   2.578  17.496  0.00  0.00    +0.000 A 
ATOM     11  N   UNL     1      51.993   3.899  17.656  0.00  0.00    +0.000 N 
ATOM     12  C   UNL     1      51.051   4.894  17.818  0.00  0.00    +0.000 A 
ATOM     13  O   UNL     1      51.374   6.013  18.202  0.00  0.00    +0.000 OA
ATOM     14  C   UNL     1      49.689   4.449  17.580  0.00  0.00    +0.000 A 
ATOM     15  H   UNL     1      52.952   4.176  17.802  0.00  0.00    +0.000 HD
ENDBRANCH   3   5
BRANCH   2  16
ATOM     16  C   UNL     1      49.233   6.752  15.071  0.00  0.00    +0.000 C 
BRANCH  16  17
ATOM     17  C   UNL     1      48.158   6.639  14.022  0.00  0.00    +0.000 A 
ATOM     18  C   UNL     1      47.293   5.531  14.005  0.00  0.00    +0.000 A 
ATOM     19  C   UNL     1      46.334   5.403  13.003  0.00  0.00    +0.000 A 
ATOM     20  C   UNL     1      46.230   6.374  12.001  0.00  0.00    +0.000 A 
ATOM     21  C   UNL     1      47.064   7.498  12.044  0.00  0.00    +0.000 A 
ATOM     22  C   UNL     1      48.028   7.626  13.041  0.00  0.00    +0.000 A 
BRANCH  20  23
ATOM     23  C   UNL     1      45.257   6.202  10.865  0.00  0.00    +0.000 C 
BRANCH  23  24
ATOM     24  O   UNL     1      44.673   4.903  10.924  0.00  0.00    +0.000 OA
BRANCH  24  25
ATOM     25  C   UNL     1      45.052   4.136   9.843  0.00  0.00    +0.000 A 
ATOM     26  C   UNL     1      45.643   4.771   8.760  0.00  0.00    +0.000 A 
ATOM     27  N   UNL     1      46.063   4.098   7.660  0.00  0.00    +0.000 NA
ATOM     28  C   UNL     1      45.864   2.760   7.695  0.00  0.00    +0.000 A 
ATOM     29  C   UNL     1      45.274   2.124   8.776  0.00  0.00    +0.000 A 
ATOM     30  N   UNL     1      44.853   2.798   9.866  0.00  0.00    +0.000 NA
ENDBRANCH  24  25
ENDBRANCH  23  24
ENDBRANCH  20  23
ENDBRANCH  16  17
ENDBRANCH   2  16
TORSDOF 6
ENDMDL
MODEL 4
REMARK VINA RESULT:    -6.627      0.986      1.665
REMARK INTER + INTRA:         -10.118
REMARK INTER:                  -9.078
REMARK INTRA:                  -1.040
REMARK UNBOUND:                -1.167
REMARK  Name = 
REMARK  7 active torsions:
REMARK  status: ('A' for Active; 'I' for Inactive)
REMARK    1  A    between atoms: C_1  and  N_2
REMARK    2  A    between atoms: N_2  and  C_3
REMARK    3  A    between atoms: C_3  and  C_4
REMARK    4  A    between atoms: C_7  and  C_8
REMARK    5  A    between atoms: C_8  and  O_9
REMARK    6  A    between atoms: O_9  and  C_10
REMARK    7  A    between atoms: C_18  and  C_20
REMARK                            x       y       z     vdW  Elec       q    Type
REMARK                         _______ _______ _______ _____ _____    ______ ____
ROOT
ATOM      1  C   UNL     1      46.065   8.586  12.151  0.00  0.00    +0.000 C 
ATOM      2  N   UNL     1      45.911   7.137  12.069  0.00  0.00    +0.000 N 
ATOM      3  C   UNL     1      44.667   6.677  11.606  0.00  0.00    +0.000 C 
ATOM      4  O   UNL     1      43.768   7.459  11.306  0.00  0.00    +0.000 OA
ENDROOT
BRANCH   3   5
ATOM      5  C   UNL     1      44.422   5.232  11.518  0.00  0.00    +0.000 A 
ATOM      6  C   UNL     1      43.706   4.498  12.451  0.00  0.00    +0.000 A 
ATOM      7  S   UNL     1      43.522   2.854  12.030  0.00  0.00    +0.000 S 
ATOM      8  C   UNL     1      44.269   3.103  10.522  0.00  0.00    +0.000 A 
ATOM      9  N   UNL     1      44.343   2.103   9.606  0.00  0.00    +0.000 NA
ATOM     10  C   UNL     1      44.877   2.457   8.484  0.00  0.00    +0.000 A 
ATOM     11  N   UNL     1      45.377   3.705   8.211  0.00  0.00    +0.000 N 
ATOM     12  C   UNL     1      45.448   4.706   9.157  0.00  0.00    +0.000 A 
ATOM     13  O   UNL     1      46.117   5.715   8.960  0.00  0.00    +0.000 OA
ATOM     14  C   UNL     1      44.746   4.393  10.389  0.00  0.00    +0.000 A 
ATOM     15  H   UNL     1      45.843   3.893   7.336  0.00  0.00    +0.000 HD
ENDBRANCH   3   5
BRANCH   2  16
ATOM     16  C   UNL     1      47.082   6.267  12.227  0.00  0.00    +0.000 C 
BRANCH  16  17
ATOM     17  C   UNL     1      47.487   5.913  13.634  0.00  0.00    +0.000 A 
ATOM     18  C   UNL     1      47.005   4.740  14.240  0.00  0.00    +0.000 A 
ATOM     19  C   UNL     1      47.339   4.441  15.559  0.00  0.00    +0.000 A 
ATOM     20  C   UNL     1      48.152   5.313  16.293  0.00  0.00    +0.000 A 
ATOM     21  C   UNL     1      48.665   6.459  15.674  0.00  0.00    +0.000 A 
ATOM     22  C   UNL     1      48.327   6.764  14.357  0.00  0.00    +0.000 A 
BRANCH  20  23
ATOM     23  C   UNL     1      48.447   5.045  17.745  0.00  0.00    +0.000 C 
BRANCH  23  24
ATOM     24  O   UNL     1      49.517   5.880  18.181  0.00  0.00    +0.000 OA
BRANCH  24  25
ATOM     25  C   UNL     1      50.731   5.238  18.062  0.00  0.00    +0.000 A 
ATOM     26  C   UNL     1      50.778   3.871  18.290  0.00  0.00    +0.000 A 
ATOM     27  N   UNL     1      51.924   3.152  18.182  0.00  0.00    +0.000 NA
ATOM     28  C   UNL     1      53.018   3.866  17.834  0.00  0.00    +0.000 A 
ATOM     29  C   UNL     1      52.973   5.233  17.606  0.00  0.00    +0.000 A 
ATOM     30  N   UNL     1      51.833   5.945  17.720  0.00  0.00    +0.000 NA
ENDBRANCH  24  25
ENDBRANCH  23  24
ENDBRANCH  20  23
ENDBRANCH  16  17
ENDBRANCH   2  16
TORSDOF 6
ENDMDL
MODEL 5
REMARK VINA RESULT:    -6.303      3.156      8.525
REMARK INTER + INTRA:          -9.681
REMARK INTER:                  -8.596
REMARK INTRA:                  -1.085
REMARK UNBOUND:                -1.167
REMARK  Name = 
REMARK  7 active torsions:
REMARK  status: ('A' for Active; 'I' for Inactive)
REMARK    1  A    between atoms: C_1  and  N_2
REMARK    2  A    between atoms: N_2  and  C_3
REMARK    3  A    between atoms: C_3  and  C_4
REMARK    4  A    between atoms: C_7  and  C_8
REMARK    5  A    between atoms: C_8  and  O_9
REMARK    6  A    between atoms: O_9  and  C_10
REMARK    7  A    between atoms: C_18  and  C_20
REMARK                            x       y       z     vdW  Elec       q    Type
REMARK                         _______ _______ _______ _____ _____    ______ ____
ROOT
ATOM      1  C   UNL     1      50.584   8.550  13.993  0.00  0.00    +0.000 C 
ATOM      2  N   UNL     1      49.542   7.952  14.823  0.00  0.00    +0.000 N 
ATOM      3  C   UNL     1      49.986   7.065  15.818  0.00  0.00    +0.000 C 
ATOM      4  O   UNL     1      51.179   6.806  15.959  0.00  0.00    +0.000 OA
ENDROOT
BRANCH   3   5
ATOM      5  C   UNL     1      48.999   6.401  16.680  0.00  0.00    +0.000 A 
ATOM      6  C   UNL     1      48.432   5.163  16.417  0.00  0.00    +0.000 A 
ATOM      7  S   UNL     1      47.382   4.619  17.647  0.00  0.00    +0.000 S 
ATOM      8  C   UNL     1      47.762   5.952  18.633  0.00  0.00    +0.000 A 
ATOM      9  N   UNL     1      47.272   6.049  19.896  0.00  0.00    +0.000 NA
ATOM     10  C   UNL     1      47.699   7.080  20.548  0.00  0.00    +0.000 A 
ATOM     11  N   UNL     1      48.535   8.039  20.038  0.00  0.00    +0.000 N 
ATOM     12  C   UNL     1      48.943   8.054  18.721  0.00  0.00    +0.000 A 
ATOM     13  O   UNL     1      49.480   9.045  18.237  0.00  0.00    +0.000 OA
ATOM     14  C   UNL     1      48.592   6.850  17.989  0.00  0.00    +0.000 A 
ATOM     15  H   UNL     1      48.774   8.856  20.581  0.00  0.00    +0.000 HD
ENDBRANCH   3   5
BRANCH   2  16
ATOM     16  C   UNL     1      48.169   8.463  14.754  0.00  0.00    +0.000 C 
BRANCH  16  17
ATOM     17  C   UNL     1      47.272   7.874  13.698  0.00  0.00    +0.000 A 
ATOM     18  C   UNL     1      46.125   8.565  13.271  0.00  0.00    +0.000 A 
ATOM     19  C   UNL     1      45.268   7.995  12.331  0.00  0.00    +0.000 A 
ATOM     20  C   UNL     1      45.541   6.725  11.811  0.00  0.00    +0.000 A 
ATOM     21  C   UNL     1      46.706   6.056  12.205  0.00  0.00    +0.000 A 
ATOM     22  C   UNL     1      47.561   6.621  13.150  0.00  0.00    +0.000 A 
BRANCH  20  23
ATOM     23  C   UNL     1      44.578   6.063  10.862  0.00  0.00    +0.000 C 
BRANCH  23  24
ATOM     24  O   UNL     1      44.579   4.655  11.079  0.00  0.00    +0.000 OA
BRANCH  24  25
ATOM     25  C   UNL     1      45.016   3.978   9.960  0.00  0.00    +0.000 A 
ATOM     26  C   UNL     1      45.519   4.717   8.899  0.00  0.00    +0.000 A 
ATOM     27  N   UNL     1      45.986   4.138   7.764  0.00  0.00    +0.000 NA
ATOM     28  C   UNL     1      45.928   2.787   7.743  0.00  0.00    +0.000 A 
ATOM     29  C   UNL     1      45.425   2.048   8.802  0.00  0.00    +0.000 A 
ATOM     30  N   UNL     1      44.957   2.627   9.926  0.00  0.00    +0.000 NA
ENDBRANCH  24  25
ENDBRANCH  23  24
ENDBRANCH  20  23
ENDBRANCH  16  17
ENDBRANCH   2  16
TORSDOF 6
ENDMDL
MODEL 6
REMARK VINA RESULT:    -6.023      3.012      8.967
REMARK INTER + INTRA:          -9.302
REMARK INTER:                  -8.925
REMARK INTRA:                  -0.377
REMARK UNBOUND:                -1.167
REMARK  Name = 
REMARK  7 active torsions:
REMARK  status: ('A' for Active; 'I' for Inactive)
REMARK    1  A    between atoms: C_1  and  N_2
REMARK    2  A    between atoms: N_2  and  C_3
REMARK    3  A    between atoms: C_3  and  C_4
REMARK    4  A    between atoms: C_7  and  C_8
REMARK    5  A    between atoms: C_8  and  O_9
REMARK    6  A    between atoms: O_9  and  C_10
REMARK    7  A    between atoms: C_18  and  C_20
REMARK                            x       y       z     vdW  Elec       q    Type
REMARK                         _______ _______ _______ _____ _____    ______ ____
ROOT
ATOM      1  C   UNL     1      47.754   3.077  15.573  0.00  0.00    +0.000 C 
ATOM      2  N   UNL     1      47.891   4.395  16.185  0.00  0.00    +0.000 N 
ATOM      3  C   UNL     1      48.208   4.406  17.554  0.00  0.00    +0.000 C 
ATOM      4  O   UNL     1      48.344   3.362  18.187  0.00  0.00    +0.000 OA
ENDROOT
BRANCH   3   5
ATOM      5  C   UNL     1      48.338   5.693  18.251  0.00  0.00    +0.000 A 
ATOM      6  C   UNL     1      47.346   6.269  19.028  0.00  0.00    +0.000 A 
ATOM      7  S   UNL     1      47.826   7.726  19.776  0.00  0.00    +0.000 S 
ATOM      8  C   UNL     1      49.417   7.558  19.199  0.00  0.00    +0.000 A 
ATOM      9  N   UNL     1      50.389   8.432  19.568  0.00  0.00    +0.000 NA
ATOM     10  C   UNL     1      51.561   8.141  19.106  0.00  0.00    +0.000 A 
ATOM     11  N   UNL     1      51.838   7.082  18.281  0.00  0.00    +0.000 N 
ATOM     12  C   UNL     1      50.860   6.254  17.771  0.00  0.00    +0.000 A 
ATOM     13  O   UNL     1      51.103   5.480  16.851  0.00  0.00    +0.000 OA
ATOM     14  C   UNL     1      49.551   6.467  18.363  0.00  0.00    +0.000 A 
ATOM     15  H   UNL     1      52.764   6.953  17.901  0.00  0.00    +0.000 HD
ENDBRANCH   3   5
BRANCH   2  16
ATOM     16  C   UNL     1      47.936   5.593  15.339  0.00  0.00    +0.000 C 
BRANCH  16  17
ATOM     17  C   UNL     1      47.168   5.546  14.044  0.00  0.00    +0.000 A 
ATOM     18  C   UNL     1      47.584   6.312  12.941  0.00  0.00    +0.000 A 
ATOM     19  C   UNL     1      46.842   6.307  11.761  0.00  0.00    +0.000 A 
ATOM     20  C   UNL     1      45.673   5.543  11.669  0.00  0.00    +0.000 A 
ATOM     21  C   UNL     1      45.285   4.747  12.754  0.00  0.00    +0.000 A 
ATOM     22  C   UNL     1      46.020   4.756  13.937  0.00  0.00    +0.000 A 
BRANCH  20  23
ATOM     23  C   UNL     1      44.818   5.598  10.431  0.00  0.00    +0.000 C 
BRANCH  23  24
ATOM     24  O   UNL     1      44.338   4.293  10.120  0.00  0.00    +0.000 OA
BRANCH  24  25
ATOM     25  C   UNL     1      45.131   3.682   9.172  0.00  0.00    +0.000 A 
ATOM     26  C   UNL     1      45.271   2.303   9.220  0.00  0.00    +0.000 A 
ATOM     27  N   UNL     1      46.017   1.614   8.321  0.00  0.00    +0.000 NA
ATOM     28  C   UNL     1      46.615   2.370   7.372  0.00  0.00    +0.000 A 
ATOM     29  C   UNL     1      46.477   3.748   7.323  0.00  0.00    +0.000 A 
ATOM     30  N   UNL     1      45.739   4.430   8.222  0.00  0.00    +0.000 NA
ENDBRANCH  24  25
ENDBRANCH  23  24
ENDBRANCH  20  23
ENDBRANCH  16  17
ENDBRANCH   2  16
TORSDOF 6
ENDMDL
MODEL 7
REMARK VINA RESULT:    -5.907      3.391      8.912
REMARK INTER + INTRA:          -9.146
REMARK INTER:                  -9.200
REMARK INTRA:                   0.053
REMARK UNBOUND:                -1.167
REMARK  Name = 
REMARK  7 active torsions:
REMARK  status: ('A' for Active; 'I' for Inactive)
REMARK    1  A    between atoms: C_1  and  N_2
REMARK    2  A    between atoms: N_2  and  C_3
REMARK    3  A    between atoms: C_3  and  C_4
REMARK    4  A    between atoms: C_7  and  C_8
REMARK    5  A    between atoms: C_8  and  O_9
REMARK    6  A    between atoms: O_9  and  C_10
REMARK    7  A    between atoms: C_18  and  C_20
REMARK                            x       y       z     vdW  Elec       q    Type
REMARK                         _______ _______ _______ _____ _____    ______ ____
ROOT
ATOM      1  C   UNL     1      47.442   3.562  15.186  0.00  0.00    +0.000 C 
ATOM      2  N   UNL     1      47.880   4.934  15.423  0.00  0.00    +0.000 N 
ATOM      3  C   UNL     1      48.880   5.099  16.396  0.00  0.00    +0.000 C 
ATOM      4  O   UNL     1      49.336   4.139  17.013  0.00  0.00    +0.000 OA
ENDROOT
BRANCH   3   5
ATOM      5  C   UNL     1      49.359   6.451  16.712  0.00  0.00    +0.000 A 
ATOM      6  C   UNL     1      50.351   7.117  16.010  0.00  0.00    +0.000 A 
ATOM      7  S   UNL     1      50.630   8.707  16.566  0.00  0.00    +0.000 S 
ATOM      8  C   UNL     1      49.338   8.604  17.667  0.00  0.00    +0.000 A 
ATOM      9  N   UNL     1      48.959   9.681  18.402  0.00  0.00    +0.000 NA
ATOM     10  C   UNL     1      47.922   9.473  19.144  0.00  0.00    +0.000 A 
ATOM     11  N   UNL     1      47.257   8.278  19.246  0.00  0.00    +0.000 N 
ATOM     12  C   UNL     1      47.690   7.125  18.626  0.00  0.00    +0.000 A 
ATOM     13  O   UNL     1      47.225   6.031  18.931  0.00  0.00    +0.000 OA
ATOM     14  C   UNL     1      48.774   7.342  17.685  0.00  0.00    +0.000 A 
ATOM     15  H   UNL     1      46.495   8.166  19.899  0.00  0.00    +0.000 HD
ENDBRANCH   3   5
BRANCH   2  16
ATOM     16  C   UNL     1      47.463   6.003  14.509  0.00  0.00    +0.000 C 
BRANCH  16  17
ATOM     17  C   UNL     1      46.573   5.612  13.359  0.00  0.00    +0.000 A 
ATOM     18  C   UNL     1      46.765   6.177  12.086  0.00  0.00    +0.000 A 
ATOM     19  C   UNL     1      45.908   5.852  11.036  0.00  0.00    +0.000 A 
ATOM     20  C   UNL     1      44.846   4.967  11.244  0.00  0.00    +0.000 A 
ATOM     21  C   UNL     1      44.682   4.372  12.501  0.00  0.00    +0.000 A 
ATOM     22  C   UNL     1      45.533   4.700  13.555  0.00  0.00    +0.000 A 
BRANCH  20  23
ATOM     23  C   UNL     1      43.863   4.677  10.141  0.00  0.00    +0.000 C 
BRANCH  23  24
ATOM     24  O   UNL     1      43.910   3.293   9.805  0.00  0.00    +0.000 OA
BRANCH  24  25
ATOM     25  C   UNL     1      44.898   3.037   8.878  0.00  0.00    +0.000 A 
ATOM     26  C   UNL     1      45.485   1.781   8.872  0.00  0.00    +0.000 A 
ATOM     27  N   UNL     1      46.454   1.433   7.988  0.00  0.00    +0.000 NA
ATOM     28  C   UNL     1      46.804   2.401   7.111  0.00  0.00    +0.000 A 
ATOM     29  C   UNL     1      46.219   3.657   7.116  0.00  0.00    +0.000 A 
ATOM     30  N   UNL     1      45.260   4.001   8.000  0.00  0.00    +0.000 NA
ENDBRANCH  24  25
ENDBRANCH  23  24
ENDBRANCH  20  23
ENDBRANCH  16  17
ENDBRANCH   2  16
TORSDOF 6
ENDMDL
MODEL 8
REMARK VINA RESULT:    -5.715      2.743      3.270
REMARK INTER + INTRA:          -8.886
REMARK INTER:                  -8.026
REMARK INTRA:                  -0.860
REMARK UNBOUND:                -1.167
REMARK  Name = 
REMARK  7 active torsions:
REMARK  status: ('A' for Active; 'I' for Inactive)
REMARK    1  A    between atoms: C_1  and  N_2
REMARK    2  A    between atoms: N_2  and  C_3
REMARK    3  A    between atoms: C_3  and  C_4
REMARK    4  A    between atoms: C_7  and  C_8
REMARK    5  A    between atoms: C_8  and  O_9
REMARK    6  A    between atoms: O_9  and  C_10
REMARK    7  A    between atoms: C_18  and  C_20
REMARK                            x       y       z     vdW  Elec       q    Type
REMARK                         _______ _______ _______ _____ _____    ______ ____
ROOT
ATOM      1  C   UNL     1      46.193   8.552  12.140  0.00  0.00    +0.000 C 
ATOM      2  N   UNL     1      45.983   7.110  12.064  0.00  0.00    +0.000 N 
ATOM      3  C   UNL     1      44.738   6.697  11.561  0.00  0.00    +0.000 C 
ATOM      4  O   UNL     1      43.882   7.512  11.224  0.00  0.00    +0.000 OA
ENDROOT
BRANCH   3   5
ATOM      5  C   UNL     1      44.437   5.262  11.476  0.00  0.00    +0.000 A 
ATOM      6  C   UNL     1      43.707   4.555  12.419  0.00  0.00    +0.000 A 
ATOM      7  S   UNL     1      43.454   2.919  12.000  0.00  0.00    +0.000 S 
ATOM      8  C   UNL     1      44.189   3.141  10.481  0.00  0.00    +0.000 A 
ATOM      9  N   UNL     1      44.212   2.141   9.564  0.00  0.00    +0.000 NA
ATOM     10  C   UNL     1      44.742   2.475   8.434  0.00  0.00    +0.000 A 
ATOM     11  N   UNL     1      45.285   3.703   8.155  0.00  0.00    +0.000 N 
ATOM     12  C   UNL     1      45.408   4.700   9.100  0.00  0.00    +0.000 A 
ATOM     13  O   UNL     1      46.111   5.683   8.894  0.00  0.00    +0.000 OA
ATOM     14  C   UNL     1      44.712   4.413  10.342  0.00  0.00    +0.000 A 
ATOM     15  H   UNL     1      45.746   3.875   7.274  0.00  0.00    +0.000 HD
ENDBRANCH   3   5
BRANCH   2  16
ATOM     16  C   UNL     1      47.111   6.194  12.270  0.00  0.00    +0.000 C 
BRANCH  16  17
ATOM     17  C   UNL     1      48.231   6.677  13.153  0.00  0.00    +0.000 A 
ATOM     18  C   UNL     1      48.171   6.493  14.545  0.00  0.00    +0.000 A 
ATOM     19  C   UNL     1      49.185   6.986  15.364  0.00  0.00    +0.000 A 
ATOM     20  C   UNL     1      50.266   7.676  14.806  0.00  0.00    +0.000 A 
ATOM     21  C   UNL     1      50.347   7.820  13.416  0.00  0.00    +0.000 A 
ATOM     22  C   UNL     1      49.331   7.334  12.594  0.00  0.00    +0.000 A 
BRANCH  20  23
ATOM     23  C   UNL     1      51.322   8.288  15.688  0.00  0.00    +0.000 C 
BRANCH  23  24
ATOM     24  O   UNL     1      52.551   8.383  14.974  0.00  0.00    +0.000 OA
BRANCH  24  25
ATOM     25  C   UNL     1      53.459   7.443  15.416  0.00  0.00    +0.000 A 
ATOM     26  C   UNL     1      53.412   7.058  16.747  0.00  0.00    +0.000 A 
ATOM     27  N   UNL     1      54.253   6.130  17.268  0.00  0.00    +0.000 NA
ATOM     28  C   UNL     1      55.141   5.606  16.393  0.00  0.00    +0.000 A 
ATOM     29  C   UNL     1      55.190   5.990  15.062  0.00  0.00    +0.000 A 
ATOM     30  N   UNL     1      54.355   6.917  14.550  0.00  0.00    +0.000 NA
ENDBRANCH  24  25
ENDBRANCH  23  24
ENDBRANCH  20  23
ENDBRANCH  16  17
ENDBRANCH   2  16
TORSDOF 6
ENDMDL
MODEL 9
REMARK VINA RESULT:    -5.653      2.974      8.367
REMARK INTER + INTRA:          -8.802
REMARK INTER:                  -7.655
REMARK INTRA:                  -1.147
REMARK UNBOUND:                -1.167
REMARK  Name = 
REMARK  7 active torsions:
REMARK  status: ('A' for Active; 'I' for Inactive)
REMARK    1  A    between atoms: C_1  and  N_2
REMARK    2  A    between atoms: N_2  and  C_3
REMARK    3  A    between atoms: C_3  and  C_4
REMARK    4  A    between atoms: C_7  and  C_8
REMARK    5  A    between atoms: C_8  and  O_9
REMARK    6  A    between atoms: O_9  and  C_10
REMARK    7  A    between atoms: C_18  and  C_20
REMARK                            x       y       z     vdW  Elec       q    Type
REMARK                         _______ _______ _______ _____ _____    ______ ____
ROOT
ATOM      1  C   UNL     1      47.710   8.000  18.541  0.00  0.00    +0.000 C 
ATOM      2  N   UNL     1      48.897   7.237  18.166  0.00  0.00    +0.000 N 
ATOM      3  C   UNL     1      49.132   6.065  18.906  0.00  0.00    +0.000 C 
ATOM      4  O   UNL     1      48.383   5.726  19.820  0.00  0.00    +0.000 OA
ENDROOT
BRANCH   3   5
ATOM      5  C   UNL     1      50.319   5.253  18.609  0.00  0.00    +0.000 A 
ATOM      6  C   UNL     1      51.596   5.530  19.072  0.00  0.00    +0.000 A 
ATOM      7  S   UNL     1      52.752   4.356  18.626  0.00  0.00    +0.000 S 
ATOM      8  C   UNL     1      51.557   3.371  17.923  0.00  0.00    +0.000 A 
ATOM      9  N   UNL     1      51.863   2.141  17.436  0.00  0.00    +0.000 NA
ATOM     10  C   UNL     1      50.843   1.481  16.994  0.00  0.00    +0.000 A 
ATOM     11  N   UNL     1      49.557   1.956  16.959  0.00  0.00    +0.000 N 
ATOM     12  C   UNL     1      49.225   3.246  17.314  0.00  0.00    +0.000 A 
ATOM     13  O   UNL     1      48.124   3.713  17.041  0.00  0.00    +0.000 OA
ATOM     14  C   UNL     1      50.315   3.978  17.934  0.00  0.00    +0.000 A 
ATOM     15  H   UNL     1      48.819   1.413  16.537  0.00  0.00    +0.000 HD
ENDBRANCH   3   5
BRANCH   2  16
ATOM     16  C   UNL     1      49.622   7.569  16.935  0.00  0.00    +0.000 C 
BRANCH  16  17
ATOM     17  C   UNL     1      48.840   7.530  15.648  0.00  0.00    +0.000 A 
ATOM     18  C   UNL     1      48.260   8.701  15.132  0.00  0.00    +0.000 A 
ATOM     19  C   UNL     1      47.493   8.653  13.969  0.00  0.00    +0.000 A 
ATOM     20  C   UNL     1      47.290   7.435  13.311  0.00  0.00    +0.000 A 
ATOM     21  C   UNL     1      47.905   6.277  13.803  0.00  0.00    +0.000 A 
ATOM     22  C   UNL     1      48.666   6.321  14.969  0.00  0.00    +0.000 A 
BRANCH  20  23
ATOM     23  C   UNL     1      46.393   7.357  12.105  0.00  0.00    +0.000 C 
BRANCH  23  24
ATOM     24  O   UNL     1      46.543   6.087  11.475  0.00  0.00    +0.000 OA
BRANCH  24  25
ATOM     25  C   UNL     1      45.397   5.331  11.598  0.00  0.00    +0.000 A 
ATOM     26  C   UNL     1      44.208   5.853  11.111  0.00  0.00    +0.000 A 
ATOM     27  N   UNL     1      43.033   5.176  11.174  0.00  0.00    +0.000 NA
ATOM     28  C   UNL     1      43.107   3.953  11.746  0.00  0.00    +0.000 A 
ATOM     29  C   UNL     1      44.294   3.430  12.234  0.00  0.00    +0.000 A 
ATOM     30  N   UNL     1      45.459   4.108  12.175  0.00  0.00    +0.000 NA
ENDBRANCH  24  25
ENDBRANCH  23  24
ENDBRANCH  20  23
ENDBRANCH  16  17
ENDBRANCH   2  16
TORSDOF 6
ENDMDL
