MODEL 1
REMARK VINA RESULT:    -7.572      0.000      0.000
REMARK INTER + INTRA:         -10.686
REMARK INTER:                 -10.228
REMARK INTRA:                  -0.458
REMARK UNBOUND:                -0.458
REMARK  Name = 
REMARK  7 active torsions:
REMARK  status: ('A' for Active; 'I' for Inactive)
REMARK    1  A    between atoms: N_1  and  C_2
REMARK    2  A    between atoms: C_2  and  C_3
REMARK    3  A    between atoms: C_7  and  C_8
REMARK    4  A    between atoms: C_8  and  O_9
REMARK    5  A    between atoms: O_9  and  C_10
REMARK    6  A    between atoms: C_13  and  S_14
REMARK    7  A    between atoms: S_14  and  N_15
REMARK                            x       y       z     vdW  Elec       q    Type
REMARK                         _______ _______ _______ _____ _____    ______ ____
ROOT
ATOM      1  O   UNL     1      43.631   4.135  10.696  0.00  0.00    +0.000 OA
ENDROOT
BRANCH   1   2
ATOM      2  C   UNL     1      44.472   3.703   9.709  0.00  0.00    +0.000 A 
ATOM      3  C   UNL     1      45.105   4.514   8.761  0.00  0.00    +0.000 A 
ATOM      4  C   UNL     1      45.956   3.948   7.809  0.00  0.00    +0.000 A 
ATOM      5  C   UNL     1      46.179   2.570   7.817  0.00  0.00    +0.000 A 
ATOM      6  C   UNL     1      45.534   1.747   8.742  0.00  0.00    +0.000 A 
ATOM      7  C   UNL     1      44.685   2.321   9.688  0.00  0.00    +0.000 A 
BRANCH   5   8
ATOM      8  S   UNL     1      47.297   1.862   6.649  0.00  0.00    +0.000 S 
ATOM      9  O   UNL     1      48.624   2.389   6.873  0.00  0.00    +0.000 OA
ATOM     10  O   UNL     1      47.031   0.449   6.527  0.00  0.00    +0.000 OA
BRANCH   8  11
ATOM     11  N   UNL     1      46.753   2.562   5.224  0.00  0.00    +0.000 NA
ATOM     12  H   UNL     1      45.946   3.159   5.409  0.00  0.00    +0.000 HD
ATOM     13  H   UNL     1      47.522   3.027   4.743  0.00  0.00    +0.000 HD
ENDBRANCH   8  11
ENDBRANCH   5   8
ENDBRANCH   1   2
BRANCH   1  14
ATOM     14  C   UNL     1      43.703   5.519  11.027  0.00  0.00    +0.000 C 
BRANCH  14  19
ATOM     15  C   UNL     1      46.477   5.236  13.628  0.00  0.00    +0.000 A 
ATOM     16  C   UNL     1      47.420   6.135  13.113  0.00  0.00    +0.000 A 
ATOM     17  C   UNL     1      47.146   6.859  11.953  0.00  0.00    +0.000 A 
ATOM     18  C   UNL     1      45.933   6.681  11.286  0.00  0.00    +0.000 A 
ATOM     19  C   UNL     1      44.981   5.783  11.781  0.00  0.00    +0.000 A 
ATOM     20  C   UNL     1      45.256   5.075  12.960  0.00  0.00    +0.000 A 
BRANCH  15  21
ATOM     21  C   UNL     1      46.802   4.381  14.824  0.00  0.00    +0.000 C 
BRANCH  21  22
ATOM     22  N   UNL     1      47.507   3.175  14.406  0.00  0.00    +0.000 NA
ATOM     23  H   UNL     1      47.745   2.622  15.225  0.00  0.00    +0.000 HD
ATOM     24  H   UNL     1      48.386   3.444  13.968  0.00  0.00    +0.000 HD
ENDBRANCH  21  22
ENDBRANCH  15  21
ENDBRANCH  14  19
ENDBRANCH   1  14
TORSDOF 7
ENDMDL
MODEL 2
REMARK VINA RESULT:    -7.568      3.226      6.655
REMARK INTER + INTRA:         -10.681
REMARK INTER:                 -10.056
REMARK INTRA:                  -0.625
REMARK UNBOUND:                -0.458
REMARK  Name = 
REMARK  7 active torsions:
REMARK  status: ('A' for Active; 'I' for Inactive)
REMARK    1  A    between atoms: N_1  and  C_2
REMARK    2  A    between atoms: C_2  and  C_3
REMARK    3  A    between atoms: C_7  and  C_8
REMARK    4  A    between atoms: C_8  and  O_9
REMARK    5  A    between atoms: O_9  and  C_10
REMARK    6  A    between atoms: C_13  and  S_14
REMARK    7  A    between atoms: S_14  and  N_15
REMARK                            x       y       z     vdW  Elec       q    Type
REMARK                         _______ _______ _______ _____ _____    ______ ____
ROOT
ATOM      1  O   UNL     1      44.020   4.150  10.593  0.00  0.00    +0.000 OA
ENDROOT
BRANCH   1   2
ATOM      2  C   UNL     1      44.955   4.680  11.439  0.00  0.00    +0.000 A 
ATOM      3  C   UNL     1      45.401   4.099  12.631  0.00  0.00    +0.000 A 
ATOM      4  C   UNL     1      46.376   4.737  13.401  0.00  0.00    +0.000 A 
ATOM      5  C   UNL     1      46.908   5.953  12.968  0.00  0.00    +0.000 A 
ATOM      6  C   UNL     1      46.453   6.555  11.794  0.00  0.00    +0.000 A 
ATOM      7  C   UNL     1      45.479   5.910  11.032  0.00  0.00    +0.000 A 
BRANCH   5   8
ATOM      8  S   UNL     1      48.179   6.734  13.913  0.00  0.00    +0.000 S 
ATOM      9  O   UNL     1      47.864   8.135  14.077  0.00  0.00    +0.000 OA
ATOM     10  O   UNL     1      48.544   5.884  15.020  0.00  0.00    +0.000 OA
BRANCH   8  11
ATOM     11  N   UNL     1      49.462   6.668  12.833  0.00  0.00    +0.000 NA
ATOM     12  H   UNL     1      50.292   7.095  13.244  0.00  0.00    +0.000 HD
ATOM     13  H   UNL     1      49.596   5.713  12.502  0.00  0.00    +0.000 HD
ENDBRANCH   8  11
ENDBRANCH   5   8
ENDBRANCH   1   2
BRANCH   1  14
ATOM     14  C   UNL     1      44.189   4.433   9.207  0.00  0.00    +0.000 C 
BRANCH  14  19
ATOM     15  C   UNL     1      46.689   2.627   6.963  0.00  0.00    +0.000 A 
ATOM     16  C   UNL     1      46.618   1.326   7.477  0.00  0.00    +0.000 A 
ATOM     17  C   UNL     1      45.739   1.023   8.516  0.00  0.00    +0.000 A 
ATOM     18  C   UNL     1      44.933   2.021   9.064  0.00  0.00    +0.000 A 
ATOM     19  C   UNL     1      44.993   3.329   8.570  0.00  0.00    +0.000 A 
ATOM     20  C   UNL     1      45.864   3.620   7.510  0.00  0.00    +0.000 A 
BRANCH  15  21
ATOM     21  C   UNL     1      47.701   2.985   5.907  0.00  0.00    +0.000 C 
BRANCH  21  22
ATOM     22  N   UNL     1      48.540   1.833   5.601  0.00  0.00    +0.000 NA
ATOM     23  H   UNL     1      48.085   1.262   4.893  0.00  0.00    +0.000 HD
ATOM     24  H   UNL     1      48.622   1.255   6.436  0.00  0.00    +0.000 HD
ENDBRANCH  21  22
ENDBRANCH  15  21
ENDBRANCH  14  19
ENDBRANCH   1  14
TORSDOF 7
ENDMDL
MODEL 3
REMARK VINA RESULT:    -7.545      1.524      2.272
REMARK INTER + INTRA:         -10.650
REMARK INTER:                  -9.864
REMARK INTRA:                  -0.786
REMARK UNBOUND:                -0.458
REMARK  Name = 
REMARK  7 active torsions:
REMARK  status: ('A' for Active; 'I' for Inactive)
REMARK    1  A    between atoms: N_1  and  C_2
REMARK    2  A    between atoms: C_2  and  C_3
REMARK    3  A    between atoms: C_7  and  C_8
REMARK    4  A    between atoms: C_8  and  O_9
REMARK    5  A    between atoms: O_9  and  C_10
REMARK    6  A    between atoms: C_13  and  S_14
REMARK    7  A    between atoms: S_14  and  N_15
REMARK                            x       y       z     vdW  Elec       q    Type
REMARK                         _______ _______ _______ _____ _____    ______ ____
ROOT
ATOM      1  O   UNL     1      43.437   4.248  10.443  0.00  0.00    +0.000 OA
ENDROOT
BRANCH   1   2
ATOM      2  C   UNL     1      44.327   3.613   9.622  0.00  0.00    +0.000 A 
ATOM      3  C   UNL     1      44.556   2.234   9.576  0.00  0.00    +0.000 A 
ATOM      4  C   UNL     1      45.486   1.707   8.677  0.00  0.00    +0.000 A 
ATOM      5  C   UNL     1      46.177   2.565   7.819  0.00  0.00    +0.000 A 
ATOM      6  C   UNL     1      45.976   3.945   7.873  0.00  0.00    +0.000 A 
ATOM      7  C   UNL     1      45.045   4.462   8.774  0.00  0.00    +0.000 A 
BRANCH   5   8
ATOM      8  S   UNL     1      47.313   1.894   6.645  0.00  0.00    +0.000 S 
ATOM      9  O   UNL     1      48.626   2.457   6.871  0.00  0.00    +0.000 OA
ATOM     10  O   UNL     1      47.087   0.475   6.516  0.00  0.00    +0.000 OA
BRANCH   8  11
ATOM     11  N   UNL     1      46.747   2.588   5.225  0.00  0.00    +0.000 NA
ATOM     12  H   UNL     1      45.780   2.891   5.341  0.00  0.00    +0.000 HD
ATOM     13  H   UNL     1      47.386   3.318   4.911  0.00  0.00    +0.000 HD
ENDBRANCH   8  11
ENDBRANCH   5   8
ENDBRANCH   1   2
BRANCH   1  14
ATOM     14  C   UNL     1      43.564   3.985  11.838  0.00  0.00    +0.000 C 
BRANCH  14  19
ATOM     15  C   UNL     1      45.888   6.817  12.898  0.00  0.00    +0.000 A 
ATOM     16  C   UNL     1      46.928   6.098  13.502  0.00  0.00    +0.000 A 
ATOM     17  C   UNL     1      46.899   4.704  13.532  0.00  0.00    +0.000 A 
ATOM     18  C   UNL     1      45.823   4.014  12.974  0.00  0.00    +0.000 A 
ATOM     19  C   UNL     1      44.772   4.714  12.371  0.00  0.00    +0.000 A 
ATOM     20  C   UNL     1      44.819   6.114  12.327  0.00  0.00    +0.000 A 
BRANCH  15  21
ATOM     21  C   UNL     1      45.863   8.322  12.945  0.00  0.00    +0.000 C 
BRANCH  21  22
ATOM     22  N   UNL     1      46.701   8.807  14.036  0.00  0.00    +0.000 NA
ATOM     23  H   UNL     1      46.900   9.794  13.895  0.00  0.00    +0.000 HD
ATOM     24  H   UNL     1      47.595   8.320  14.004  0.00  0.00    +0.000 HD
ENDBRANCH  21  22
ENDBRANCH  15  21
ENDBRANCH  14  19
ENDBRANCH   1  14
TORSDOF 7
ENDMDL
MODEL 4
REMARK VINA RESULT:    -7.225      1.475      2.117
REMARK INTER + INTRA:         -10.218
REMARK INTER:                  -9.566
REMARK INTRA:                  -0.652
REMARK UNBOUND:                -0.458
REMARK  Name = 
REMARK  7 active torsions:
REMARK  status: ('A' for Active; 'I' for Inactive)
REMARK    1  A    between atoms: N_1  and  C_2
REMARK    2  A    between atoms: C_2  and  C_3
REMARK    3  A    between atoms: C_7  and  C_8
REMARK    4  A    between atoms: C_8  and  O_9
REMARK    5  A    between atoms: O_9  and  C_10
REMARK    6  A    between atoms: C_13  and  S_14
REMARK    7  A    between atoms: S_14  and  N_15
REMARK                            x       y       z     vdW  Elec       q    Type
REMARK                         _______ _______ _______ _____ _____    ______ ____
ROOT
ATOM      1  O   UNL     1      43.897   4.380  10.695  0.00  0.00    +0.000 OA
ENDROOT
BRANCH   1   2
ATOM      2  C   UNL     1      44.644   3.754   9.737  0.00  0.00    +0.000 A 
ATOM      3  C   UNL     1      44.787   2.371   9.586  0.00  0.00    +0.000 A 
ATOM      4  C   UNL     1      45.572   1.855   8.552  0.00  0.00    +0.000 A 
ATOM      5  C   UNL     1      46.203   2.728   7.665  0.00  0.00    +0.000 A 
ATOM      6  C   UNL     1      46.088   4.111   7.820  0.00  0.00    +0.000 A 
ATOM      7  C   UNL     1      45.303   4.617   8.856  0.00  0.00    +0.000 A 
BRANCH   5   8
ATOM      8  S   UNL     1      47.150   2.076   6.325  0.00  0.00    +0.000 S 
ATOM      9  O   UNL     1      47.269   0.642   6.474  0.00  0.00    +0.000 OA
ATOM     10  O   UNL     1      46.730   2.698   5.093  0.00  0.00    +0.000 OA
BRANCH   8  11
ATOM     11  N   UNL     1      48.666   2.707   6.672  0.00  0.00    +0.000 NA
ATOM     12  H   UNL     1      48.624   3.725   6.711  0.00  0.00    +0.000 HD
ATOM     13  H   UNL     1      49.049   2.266   7.508  0.00  0.00    +0.000 HD
ENDBRANCH   8  11
ENDBRANCH   5   8
ENDBRANCH   1   2
BRANCH   1  14
ATOM     14  C   UNL     1      44.427   4.370  12.018  0.00  0.00    +0.000 C 
BRANCH  14  19
ATOM     15  C   UNL     1      46.977   6.946  13.202  0.00  0.00    +0.000 A 
ATOM     16  C   UNL     1      46.424   8.127  12.687  0.00  0.00    +0.000 A 
ATOM     17  C   UNL     1      45.213   8.096  11.996  0.00  0.00    +0.000 A 
ATOM     18  C   UNL     1      44.550   6.885  11.797  0.00  0.00    +0.000 A 
ATOM     19  C   UNL     1      45.089   5.695  12.297  0.00  0.00    +0.000 A 
ATOM     20  C   UNL     1      46.296   5.737  13.009  0.00  0.00    +0.000 A 
BRANCH  15  21
ATOM     21  C   UNL     1      48.328   6.954  13.866  0.00  0.00    +0.000 C 
BRANCH  21  22
ATOM     22  N   UNL     1      49.362   6.570  12.912  0.00  0.00    +0.000 NA
ATOM     23  H   UNL     1      49.032   5.788  12.353  0.00  0.00    +0.000 HD
ATOM     24  H   UNL     1      50.177   6.240  13.427  0.00  0.00    +0.000 HD
ENDBRANCH  21  22
ENDBRANCH  15  21
ENDBRANCH  14  19
ENDBRANCH   1  14
TORSDOF 7
ENDMDL
MODEL 5
REMARK VINA RESULT:    -7.001      3.290      6.707
REMARK INTER + INTRA:          -9.915
REMARK INTER:                  -9.593
REMARK INTRA:                  -0.321
REMARK UNBOUND:                -0.458
REMARK  Name = 
REMARK  7 active torsions:
REMARK  status: ('A' for Active; 'I' for Inactive)
REMARK    1  A    between atoms: N_1  and  C_2
REMARK    2  A    between atoms: C_2  and  C_3
REMARK    3  A    between atoms: C_7  and  C_8
REMARK    4  A    between atoms: C_8  and  O_9
REMARK    5  A    between atoms: O_9  and  C_10
REMARK    6  A    between atoms: C_13  and  S_14
REMARK    7  A    between atoms: S_14  and  N_15
REMARK                            x       y       z     vdW  Elec       q    Type
REMARK                         _______ _______ _______ _____ _____    ______ ____
ROOT
ATOM      1  O   UNL     1      45.238   5.720  10.622  0.00  0.00    +0.000 OA
ENDROOT
BRANCH   1   2
ATOM      2  C   UNL     1      45.843   5.460  11.820  0.00  0.00    +0.000 A 
ATOM      3  C   UNL     1      46.722   6.314  12.494  0.00  0.00    +0.000 A 
ATOM      4  C   UNL     1      47.263   5.935  13.725  0.00  0.00    +0.000 A 
ATOM      5  C   UNL     1      46.913   4.703  14.281  0.00  0.00    +0.000 A 
ATOM      6  C   UNL     1      46.057   3.832  13.606  0.00  0.00    +0.000 A 
ATOM      7  C   UNL     1      45.522   4.219  12.377  0.00  0.00    +0.000 A 
BRANCH   5   8
ATOM      8  S   UNL     1      47.554   4.247  15.861  0.00  0.00    +0.000 S 
ATOM      9  O   UNL     1      48.651   5.124  16.206  0.00  0.00    +0.000 OA
ATOM     10  O   UNL     1      46.461   3.978  16.763  0.00  0.00    +0.000 OA
BRANCH   8  11
ATOM     11  N   UNL     1      48.242   2.758  15.506  0.00  0.00    +0.000 NA
ATOM     12  H   UNL     1      48.587   2.316  16.358  0.00  0.00    +0.000 HD
ATOM     13  H   UNL     1      47.590   2.188  14.967  0.00  0.00    +0.000 HD
ENDBRANCH   8  11
ENDBRANCH   5   8
ENDBRANCH   1   2
BRANCH   1  14
ATOM     14  C   UNL     1      44.228   4.802  10.210  0.00  0.00    +0.000 C 
BRANCH  14  19
ATOM     15  C   UNL     1      46.377   3.175   7.512  0.00  0.00    +0.000 A 
ATOM     16  C   UNL     1      46.128   1.817   7.755  0.00  0.00    +0.000 A 
ATOM     17  C   UNL     1      45.241   1.430   8.759  0.00  0.00    +0.000 A 
ATOM     18  C   UNL     1      44.604   2.393   9.541  0.00  0.00    +0.000 A 
ATOM     19  C   UNL     1      44.844   3.754   9.319  0.00  0.00    +0.000 A 
ATOM     20  C   UNL     1      45.722   4.135   8.295  0.00  0.00    +0.000 A 
BRANCH  15  21
ATOM     21  C   UNL     1      47.403   3.601   6.497  0.00  0.00    +0.000 C 
BRANCH  21  22
ATOM     22  N   UNL     1      48.466   2.606   6.405  0.00  0.00    +0.000 NA
ATOM     23  H   UNL     1      48.674   2.248   7.333  0.00  0.00    +0.000 HD
ATOM     24  H   UNL     1      49.313   3.061   6.069  0.00  0.00    +0.000 HD
ENDBRANCH  21  22
ENDBRANCH  15  21
ENDBRANCH  14  19
ENDBRANCH   1  14
TORSDOF 7
ENDMDL
MODEL 6
REMARK VINA RESULT:    -6.441      3.714      5.549
REMARK INTER + INTRA:          -9.158
REMARK INTER:                  -8.631
REMARK INTRA:                  -0.527
REMARK UNBOUND:                -0.458
REMARK  Name = 
REMARK  7 active torsions:
REMARK  status: ('A' for Active; 'I' for Inactive)
REMARK    1  A    between atoms: N_1  and  C_2
REMARK    2  A    between atoms: C_2  and  C_3
REMARK    3  A    between atoms: C_7  and  C_8
REMARK    4  A    between atoms: C_8  and  O_9
REMARK    5  A    between atoms: O_9  and  C_10
REMARK    6  A    between atoms: C_13  and  S_14
REMARK    7  A    between atoms: S_14  and  N_15
REMARK                            x       y       z     vdW  Elec       q    Type
REMARK                         _______ _______ _______ _____ _____    ______ ____
ROOT
ATOM      1  O   UNL     1      48.475   6.129  13.522  0.00  0.00    +0.000 OA
ENDROOT
BRANCH   1   2
ATOM      2  C   UNL     1      47.289   5.865  12.894  0.00  0.00    +0.000 A 
ATOM      3  C   UNL     1      46.768   6.569  11.803  0.00  0.00    +0.000 A 
ATOM      4  C   UNL     1      45.547   6.188  11.241  0.00  0.00    +0.000 A 
ATOM      5  C   UNL     1      44.857   5.095  11.769  0.00  0.00    +0.000 A 
ATOM      6  C   UNL     1      45.354   4.401  12.873  0.00  0.00    +0.000 A 
ATOM      7  C   UNL     1      46.574   4.789  13.428  0.00  0.00    +0.000 A 
BRANCH   5   8
ATOM      8  S   UNL     1      43.341   4.580  11.025  0.00  0.00    +0.000 S 
ATOM      9  O   UNL     1      43.135   3.172  11.280  0.00  0.00    +0.000 OA
ATOM     10  O   UNL     1      42.324   5.573  11.272  0.00  0.00    +0.000 OA
BRANCH   8  11
ATOM     11  N   UNL     1      43.729   4.706   9.397  0.00  0.00    +0.000 NA
ATOM     12  H   UNL     1      42.899   4.944   8.853  0.00  0.00    +0.000 HD
ATOM     13  H   UNL     1      44.515   5.343   9.270  0.00  0.00    +0.000 HD
ENDBRANCH   8  11
ENDBRANCH   5   8
ENDBRANCH   1   2
BRANCH   1  14
ATOM     14  C   UNL     1      48.409   6.967  14.673  0.00  0.00    +0.000 C 
BRANCH  14  19
ATOM     15  C   UNL     1      48.844   4.502  17.550  0.00  0.00    +0.000 A 
ATOM     16  C   UNL     1      50.166   4.768  17.932  0.00  0.00    +0.000 A 
ATOM     17  C   UNL     1      50.900   5.765  17.290  0.00  0.00    +0.000 A 
ATOM     18  C   UNL     1      50.328   6.496  16.250  0.00  0.00    +0.000 A 
ATOM     19  C   UNL     1      49.011   6.243  15.849  0.00  0.00    +0.000 A 
ATOM     20  C   UNL     1      48.273   5.253  16.513  0.00  0.00    +0.000 A 
BRANCH  15  21
ATOM     21  C   UNL     1      48.076   3.366  18.171  0.00  0.00    +0.000 C 
BRANCH  21  22
ATOM     22  N   UNL     1      46.771   3.232  17.534  0.00  0.00    +0.000 NA
ATOM     23  H   UNL     1      46.338   2.361  17.831  0.00  0.00    +0.000 HD
ATOM     24  H   UNL     1      46.902   3.165  16.526  0.00  0.00    +0.000 HD
ENDBRANCH  21  22
ENDBRANCH  15  21
ENDBRANCH  14  19
ENDBRANCH   1  14
TORSDOF 7
ENDMDL
MODEL 7
REMARK VINA RESULT:    -5.780      3.886      5.928
REMARK INTER + INTRA:          -8.266
REMARK INTER:                  -7.808
REMARK INTRA:                  -0.458
REMARK UNBOUND:                -0.458
REMARK  Name = 
REMARK  7 active torsions:
REMARK  status: ('A' for Active; 'I' for Inactive)
REMARK    1  A    between atoms: N_1  and  C_2
REMARK    2  A    between atoms: C_2  and  C_3
REMARK    3  A    between atoms: C_7  and  C_8
REMARK    4  A    between atoms: C_8  and  O_9
REMARK    5  A    between atoms: O_9  and  C_10
REMARK    6  A    between atoms: C_13  and  S_14
REMARK    7  A    between atoms: S_14  and  N_15
REMARK                            x       y       z     vdW  Elec       q    Type
REMARK                         _______ _______ _______ _____ _____    ______ ____
ROOT
ATOM      1  O   UNL     1      48.387   5.649  14.044  0.00  0.00    +0.000 OA
ENDROOT
BRANCH   1   2
ATOM      2  C   UNL     1      47.244   5.492  13.310  0.00  0.00    +0.000 A 
ATOM      3  C   UNL     1      46.697   6.439  12.437  0.00  0.00    +0.000 A 
ATOM      4  C   UNL     1      45.527   6.149  11.732  0.00  0.00    +0.000 A 
ATOM      5  C   UNL     1      44.913   4.906  11.896  0.00  0.00    +0.000 A 
ATOM      6  C   UNL     1      45.435   3.963  12.783  0.00  0.00    +0.000 A 
ATOM      7  C   UNL     1      46.604   4.262  13.483  0.00  0.00    +0.000 A 
BRANCH   5   8
ATOM      8  S   UNL     1      43.465   4.519  10.964  0.00  0.00    +0.000 S 
ATOM      9  O   UNL     1      43.145   3.119  11.131  0.00  0.00    +0.000 OA
ATOM     10  O   UNL     1      42.488   5.567  11.138  0.00  0.00    +0.000 OA
BRANCH   8  11
ATOM     11  N   UNL     1      44.045   4.680   9.397  0.00  0.00    +0.000 NA
ATOM     12  H   UNL     1      43.760   3.881   8.831  0.00  0.00    +0.000 HD
ATOM     13  H   UNL     1      43.779   5.587   9.013  0.00  0.00    +0.000 HD
ENDBRANCH   8  11
ENDBRANCH   5   8
ENDBRANCH   1   2
BRANCH   1  14
ATOM     14  C   UNL     1      48.251   6.326  15.291  0.00  0.00    +0.000 C 
BRANCH  14  19
ATOM     15  C   UNL     1      50.044   4.619  18.192  0.00  0.00    +0.000 A 
ATOM     16  C   UNL     1      49.071   3.699  18.604  0.00  0.00    +0.000 A 
ATOM     17  C   UNL     1      47.858   3.601  17.924  0.00  0.00    +0.000 A 
ATOM     18  C   UNL     1      47.596   4.433  16.835  0.00  0.00    +0.000 A 
ATOM     19  C   UNL     1      48.552   5.364  16.412  0.00  0.00    +0.000 A 
ATOM     20  C   UNL     1      49.778   5.441  17.089  0.00  0.00    +0.000 A 
BRANCH  15  21
ATOM     21  C   UNL     1      51.316   4.799  18.977  0.00  0.00    +0.000 C 
BRANCH  21  22
ATOM     22  N   UNL     1      52.066   3.549  19.015  0.00  0.00    +0.000 NA
ATOM     23  H   UNL     1      53.041   3.733  18.796  0.00  0.00    +0.000 HD
ATOM     24  H   UNL     1      51.713   2.931  18.286  0.00  0.00    +0.000 HD
ENDBRANCH  21  22
ENDBRANCH  15  21
ENDBRANCH  14  19
ENDBRANCH   1  14
TORSDOF 7
ENDMDL
MODEL 8
REMARK VINA RESULT:    -5.767      3.841      5.971
REMARK INTER + INTRA:          -8.249
REMARK INTER:                  -7.862
REMARK INTRA:                  -0.387
REMARK UNBOUND:                -0.458
REMARK  Name = 
REMARK  7 active torsions:
REMARK  status: ('A' for Active; 'I' for Inactive)
REMARK    1  A    between atoms: N_1  and  C_2
REMARK    2  A    between atoms: C_2  and  C_3
REMARK    3  A    between atoms: C_7  and  C_8
REMARK    4  A    between atoms: C_8  and  O_9
REMARK    5  A    between atoms: O_9  and  C_10
REMARK    6  A    between atoms: C_13  and  S_14
REMARK    7  A    between atoms: S_14  and  N_15
REMARK                            x       y       z     vdW  Elec       q    Type
REMARK                         _______ _______ _______ _____ _____    ______ ____
ROOT
ATOM      1  O   UNL     1      47.820   5.117  14.971  0.00  0.00    +0.000 OA
ENDROOT
BRANCH   1   2
ATOM      2  C   UNL     1      46.999   4.867  13.906  0.00  0.00    +0.000 A 
ATOM      3  C   UNL     1      46.468   3.621  13.559  0.00  0.00    +0.000 A 
ATOM      4  C   UNL     1      45.626   3.501  12.450  0.00  0.00    +0.000 A 
ATOM      5  C   UNL     1      45.312   4.635  11.699  0.00  0.00    +0.000 A 
ATOM      6  C   UNL     1      45.856   5.880  12.021  0.00  0.00    +0.000 A 
ATOM      7  C   UNL     1      46.696   5.989  13.129  0.00  0.00    +0.000 A 
BRANCH   5   8
ATOM      8  S   UNL     1      44.205   4.494  10.331  0.00  0.00    +0.000 S 
ATOM      9  O   UNL     1      44.060   3.101   9.971  0.00  0.00    +0.000 OA
ATOM     10  O   UNL     1      43.074   5.366  10.537  0.00  0.00    +0.000 OA
BRANCH   8  11
ATOM     11  N   UNL     1      45.118   5.197   9.111  0.00  0.00    +0.000 NA
ATOM     12  H   UNL     1      46.085   5.314   9.415  0.00  0.00    +0.000 HD
ATOM     13  H   UNL     1      45.008   4.675   8.241  0.00  0.00    +0.000 HD
ENDBRANCH   8  11
ENDBRANCH   5   8
ENDBRANCH   1   2
BRANCH   1  14
ATOM     14  C   UNL     1      47.567   4.365  16.155  0.00  0.00    +0.000 C 
BRANCH  14  19
ATOM     15  C   UNL     1      50.851   3.317  17.787  0.00  0.00    +0.000 A 
ATOM     16  C   UNL     1      51.168   4.471  18.516  0.00  0.00    +0.000 A 
ATOM     17  C   UNL     1      50.306   5.568  18.512  0.00  0.00    +0.000 A 
ATOM     18  C   UNL     1      49.127   5.530  17.768  0.00  0.00    +0.000 A 
ATOM     19  C   UNL     1      48.795   4.389  17.029  0.00  0.00    +0.000 A 
ATOM     20  C   UNL     1      49.657   3.283  17.054  0.00  0.00    +0.000 A 
BRANCH  15  21
ATOM     21  C   UNL     1      51.818   2.166  17.708  0.00  0.00    +0.000 C 
BRANCH  21  22
ATOM     22  N   UNL     1      51.153   0.983  17.173  0.00  0.00    +0.000 NA
ATOM     23  H   UNL     1      51.146   0.251  17.879  0.00  0.00    +0.000 HD
ATOM     24  H   UNL     1      51.695   0.628  16.387  0.00  0.00    +0.000 HD
ENDBRANCH  21  22
ENDBRANCH  15  21
ENDBRANCH  14  19
ENDBRANCH   1  14
TORSDOF 7
ENDMDL
MODEL 9
REMARK VINA RESULT:    -5.525      4.227      6.104
REMARK INTER + INTRA:          -7.921
REMARK INTER:                  -7.308
REMARK INTRA:                  -0.613
REMARK UNBOUND:                -0.458
REMARK  Name = 
REMARK  7 active torsions:
REMARK  status: ('A' for Active; 'I' for Inactive)
REMARK    1  A    between atoms: N_1  and  C_2
REMARK    2  A    between atoms: C_2  and  C_3
REMARK    3  A    between atoms: C_7  and  C_8
REMARK    4  A    between atoms: C_8  and  O_9
REMARK    5  A    between atoms: O_9  and  C_10
REMARK    6  A    between atoms: C_13  and  S_14
REMARK    7  A    between atoms: S_14  and  N_15
REMARK                            x       y       z     vdW  Elec       q    Type
REMARK                         _______ _______ _______ _____ _____    ______ ____
ROOT
ATOM      1  O   UNL     1      48.728   6.250  13.427  0.00  0.00    +0.000 OA
ENDROOT
BRANCH   1   2
ATOM      2  C   UNL     1      47.491   5.973  12.914  0.00  0.00    +0.000 A 
ATOM      3  C   UNL     1      46.950   6.518  11.745  0.00  0.00    +0.000 A 
ATOM      4  C   UNL     1      45.674   6.140  11.319  0.00  0.00    +0.000 A 
ATOM      5  C   UNL     1      44.948   5.208  12.063  0.00  0.00    +0.000 A 
ATOM      6  C   UNL     1      45.467   4.676  13.245  0.00  0.00    +0.000 A 
ATOM      7  C   UNL     1      46.741   5.060  13.662  0.00  0.00    +0.000 A 
BRANCH   5   8
ATOM      8  S   UNL     1      43.359   4.689  11.496  0.00  0.00    +0.000 S 
ATOM      9  O   UNL     1      43.266   3.249  11.580  0.00  0.00    +0.000 OA
ATOM     10  O   UNL     1      42.348   5.567  12.034  0.00  0.00    +0.000 OA
BRANCH   8  11
ATOM     11  N   UNL     1      43.470   5.054   9.861  0.00  0.00    +0.000 NA
ATOM     12  H   UNL     1      42.558   5.330   9.498  0.00  0.00    +0.000 HD
ATOM     13  H   UNL     1      44.213   5.735   9.702  0.00  0.00    +0.000 HD
ENDBRANCH   8  11
ENDBRANCH   5   8
ENDBRANCH   1   2
BRANCH   1  14
ATOM     14  C   UNL     1      48.951   7.592  13.852  0.00  0.00    +0.000 C 
BRANCH  14  19
ATOM     15  C   UNL     1      48.295   8.905  17.372  0.00  0.00    +0.000 A 
ATOM     16  C   UNL     1      48.538   7.755  18.136  0.00  0.00    +0.000 A 
ATOM     17  C   UNL     1      48.950   6.573  17.522  0.00  0.00    +0.000 A 
ATOM     18  C   UNL     1      49.108   6.521  16.137  0.00  0.00    +0.000 A 
ATOM     19  C   UNL     1      48.864   7.656  15.355  0.00  0.00    +0.000 A 
ATOM     20  C   UNL     1      48.470   8.847  15.983  0.00  0.00    +0.000 A 
BRANCH  15  21
ATOM     21  C   UNL     1      47.758  10.157  18.013  0.00  0.00    +0.000 C 
BRANCH  21  22
ATOM     22  N   UNL     1      47.956  11.301  17.130  0.00  0.00    +0.000 NA
ATOM     23  H   UNL     1      48.718  11.873  17.485  0.00  0.00    +0.000 HD
ATOM     24  H   UNL     1      47.119  11.881  17.152  0.00  0.00    +0.000 HD
ENDBRANCH  21  22
ENDBRANCH  15  21
ENDBRANCH  14  19
ENDBRANCH   1  14
TORSDOF 7
ENDMDL
