MODEL 1
REMARK VINA RESULT:    -8.600      0.000      0.000
REMARK INTER + INTRA:         -11.634
REMARK INTER:                 -11.114
REMARK INTRA:                  -0.520
REMARK UNBOUND:                -0.520
REMARK  Name = 
REMARK  5 active torsions:
REMARK  status: ('A' for Active; 'I' for Inactive)
REMARK    1  A    between atoms: C_2  and  C_4
REMARK    2  A    between atoms: C_7  and  O_8
REMARK    3  A    between atoms: O_8  and  C_9
REMARK    4  A    between atoms: C_9  and  C_10
REMARK    5  A    between atoms: C_14  and  C_15
REMARK                            x       y       z     vdW  Elec       q    Type
REMARK                         _______ _______ _______ _____ _____    ______ ____
ROOT
ATOM      1  O   UNL     1      43.672   4.591   9.980  0.00  0.00    +0.000 OA
ENDROOT
BRANCH   1   5
ATOM      2  C   UNL     1      46.387   2.445   7.753  0.00  0.00    +0.000 A 
ATOM      3  C   UNL     1      45.604   1.742   8.667  0.00  0.00    +0.000 A 
ATOM      4  C   UNL     1      44.660   2.429   9.435  0.00  0.00    +0.000 A 
ATOM      5  C   UNL     1      44.522   3.802   9.260  0.00  0.00    +0.000 A 
ATOM      6  N   UNL     1      45.287   4.500   8.396  0.00  0.00    +0.000 NA
ATOM      7  C   UNL     1      46.204   3.815   7.666  0.00  0.00    +0.000 A 
BRANCH   2   9
ATOM      8  N   UNL     1      48.455   2.563   6.495  0.00  0.00    +0.000 N 
ATOM      9  C   UNL     1      47.401   1.793   6.901  0.00  0.00    +0.000 C 
ATOM     10  O   UNL     1      47.322   0.610   6.601  0.00  0.00    +0.000 OA
ATOM     11  H   UNL     1      49.201   2.083   6.009  0.00  0.00    +0.000 HD
ATOM     12  H   UNL     1      48.678   3.448   6.929  0.00  0.00    +0.000 HD
ENDBRANCH   2   9
ENDBRANCH   1   5
BRANCH   1  13
ATOM     13  C   UNL     1      43.572   4.290  11.371  0.00  0.00    +0.000 C 
BRANCH  13  14
ATOM     14  C   UNL     1      44.719   4.939  12.106  0.00  0.00    +0.000 A 
ATOM     15  N   UNL     1      45.054   6.206  11.749  0.00  0.00    +0.000 NA
ATOM     16  N   UNL     1      46.077   6.838  12.381  0.00  0.00    +0.000 NA
ATOM     17  C   UNL     1      46.732   6.176  13.351  0.00  0.00    +0.000 A 
ATOM     18  C   UNL     1      46.352   4.899  13.694  0.00  0.00    +0.000 A 
ATOM     19  N   UNL     1      45.334   4.239  13.086  0.00  0.00    +0.000 NA
BRANCH  18  20
ATOM     20  C   UNL     1      47.077   4.197  14.792  0.00  0.00    +0.000 C 
ATOM     21  N   UNL     1      47.260   4.888  15.964  0.00  0.00    +0.000 N 
ATOM     22  O   UNL     1      47.502   3.060  14.654  0.00  0.00    +0.000 OA
ATOM     23  H   UNL     1      46.899   5.826  16.101  0.00  0.00    +0.000 HD
ATOM     24  H   UNL     1      47.741   4.424  16.725  0.00  0.00    +0.000 HD
ENDBRANCH  18  20
ENDBRANCH  13  14
ENDBRANCH   1  13
TORSDOF 5
ENDMDL
MODEL 2
REMARK VINA RESULT:    -8.387      1.570      2.255
REMARK INTER + INTRA:         -11.359
REMARK INTER:                 -10.844
REMARK INTRA:                  -0.515
REMARK UNBOUND:                -0.520
REMARK  Name = 
REMARK  5 active torsions:
REMARK  status: ('A' for Active; 'I' for Inactive)
REMARK    1  A    between atoms: C_2  and  C_4
REMARK    2  A    between atoms: C_7  and  O_8
REMARK    3  A    between atoms: O_8  and  C_9
REMARK    4  A    between atoms: C_9  and  C_10
REMARK    5  A    between atoms: C_14  and  C_15
REMARK                            x       y       z     vdW  Elec       q    Type
REMARK                         _______ _______ _______ _____ _____    ______ ____
ROOT
ATOM      1  O   UNL     1      43.584   3.777  10.017  0.00  0.00    +0.000 OA
ENDROOT
BRANCH   1   5
ATOM      2  C   UNL     1      46.551   2.594   7.421  0.00  0.00    +0.000 A 
ATOM      3  C   UNL     1      46.007   1.626   8.263  0.00  0.00    +0.000 A 
ATOM      4  C   UNL     1      44.988   1.981   9.151  0.00  0.00    +0.000 A 
ATOM      5  C   UNL     1      44.537   3.296   9.166  0.00  0.00    +0.000 A 
ATOM      6  N   UNL     1      45.069   4.250   8.374  0.00  0.00    +0.000 NA
ATOM      7  C   UNL     1      46.064   3.887   7.526  0.00  0.00    +0.000 A 
BRANCH   2   9
ATOM      8  N   UNL     1      47.709   3.114   5.358  0.00  0.00    +0.000 N 
ATOM      9  C   UNL     1      47.625   2.299   6.452  0.00  0.00    +0.000 C 
ATOM     10  O   UNL     1      48.424   1.393   6.637  0.00  0.00    +0.000 OA
ATOM     11  H   UNL     1      48.514   2.978   4.758  0.00  0.00    +0.000 HD
ATOM     12  H   UNL     1      47.241   4.007   5.309  0.00  0.00    +0.000 HD
ENDBRANCH   2   9
ENDBRANCH   1   5
BRANCH   1  13
ATOM     13  C   UNL     1      43.579   3.215  11.328  0.00  0.00    +0.000 C 
BRANCH  13  14
ATOM     14  C   UNL     1      44.665   3.861  12.153  0.00  0.00    +0.000 A 
ATOM     15  N   UNL     1      45.506   3.040  12.833  0.00  0.00    +0.000 NA
ATOM     16  N   UNL     1      46.503   3.570  13.588  0.00  0.00    +0.000 NA
ATOM     17  C   UNL     1      46.623   4.908  13.636  0.00  0.00    +0.000 A 
ATOM     18  C   UNL     1      45.760   5.705  12.919  0.00  0.00    +0.000 A 
ATOM     19  N   UNL     1      44.755   5.210  12.153  0.00  0.00    +0.000 NA
BRANCH  18  20
ATOM     20  C   UNL     1      45.933   7.185  12.967  0.00  0.00    +0.000 C 
ATOM     21  N   UNL     1      44.866   7.954  12.572  0.00  0.00    +0.000 N 
ATOM     22  O   UNL     1      46.982   7.697  13.329  0.00  0.00    +0.000 OA
ATOM     23  H   UNL     1      43.983   7.546  12.285  0.00  0.00    +0.000 HD
ATOM     24  H   UNL     1      44.961   8.962  12.608  0.00  0.00    +0.000 HD
ENDBRANCH  18  20
ENDBRANCH  13  14
ENDBRANCH   1  13
TORSDOF 5
ENDMDL
MODEL 3
REMARK VINA RESULT:    -7.576      1.859      6.427
REMARK INTER + INTRA:         -10.311
REMARK INTER:                  -9.876
REMARK INTRA:                  -0.435
REMARK UNBOUND:                -0.520
REMARK  Name = 
REMARK  5 active torsions:
REMARK  status: ('A' for Active; 'I' for Inactive)
REMARK    1  A    between atoms: C_2  and  C_4
REMARK    2  A    between atoms: C_7  and  O_8
REMARK    3  A    between atoms: O_8  and  C_9
REMARK    4  A    between atoms: C_9  and  C_10
REMARK    5  A    between atoms: C_14  and  C_15
REMARK                            x       y       z     vdW  Elec       q    Type
REMARK                         _______ _______ _______ _____ _____    ______ ____
ROOT
ATOM      1  O   UNL     1      44.360   2.888  11.361  0.00  0.00    +0.000 OA
ENDROOT
BRANCH   1   5
ATOM      2  C   UNL     1      46.855   5.063  13.806  0.00  0.00    +0.000 A 
ATOM      3  C   UNL     1      45.943   5.769  13.024  0.00  0.00    +0.000 A 
ATOM      4  C   UNL     1      45.068   5.070  12.189  0.00  0.00    +0.000 A 
ATOM      5  C   UNL     1      45.126   3.681  12.166  0.00  0.00    +0.000 A 
ATOM      6  N   UNL     1      46.018   2.984  12.900  0.00  0.00    +0.000 NA
ATOM      7  C   UNL     1      46.865   3.682  13.697  0.00  0.00    +0.000 A 
BRANCH   2   9
ATOM      8  N   UNL     1      47.647   5.493  16.055  0.00  0.00    +0.000 N 
ATOM      9  C   UNL     1      47.808   5.726  14.718  0.00  0.00    +0.000 C 
ATOM     10  O   UNL     1      48.721   6.421  14.296  0.00  0.00    +0.000 OA
ATOM     11  H   UNL     1      48.370   5.857  16.664  0.00  0.00    +0.000 HD
ATOM     12  H   UNL     1      47.080   4.736  16.410  0.00  0.00    +0.000 HD
ENDBRANCH   2   9
ENDBRANCH   1   5
BRANCH   1  13
ATOM     13  C   UNL     1      43.883   3.495  10.161  0.00  0.00    +0.000 C 
BRANCH  13  14
ATOM     14  C   UNL     1      44.980   3.478   9.123  0.00  0.00    +0.000 A 
ATOM     15  N   UNL     1      45.415   4.676   8.655  0.00  0.00    +0.000 NA
ATOM     16  N   UNL     1      46.402   4.717   7.722  0.00  0.00    +0.000 NA
ATOM     17  C   UNL     1      46.919   3.553   7.289  0.00  0.00    +0.000 A 
ATOM     18  C   UNL     1      46.460   2.361   7.801  0.00  0.00    +0.000 A 
ATOM     19  N   UNL     1      45.478   2.283   8.735  0.00  0.00    +0.000 NA
BRANCH  18  20
ATOM     20  C   UNL     1      47.069   1.086   7.325  0.00  0.00    +0.000 C 
ATOM     21  N   UNL     1      46.583  -0.080   7.862  0.00  0.00    +0.000 N 
ATOM     22  O   UNL     1      47.972   1.076   6.502  0.00  0.00    +0.000 OA
ATOM     23  H   UNL     1      45.824  -0.090   8.533  0.00  0.00    +0.000 HD
ATOM     24  H   UNL     1      46.978  -0.956   7.543  0.00  0.00    +0.000 HD
ENDBRANCH  18  20
ENDBRANCH  13  14
ENDBRANCH   1  13
TORSDOF 5
ENDMDL
MODEL 4
REMARK VINA RESULT:    -7.471      2.238      3.364
REMARK INTER + INTRA:         -10.175
REMARK INTER:                  -9.713
REMARK INTRA:                  -0.462
REMARK UNBOUND:                -0.520
REMARK  Name = 
REMARK  5 active torsions:
REMARK  status: ('A' for Active; 'I' for Inactive)
REMARK    1  A    between atoms: C_2  and  C_4
REMARK    2  A    between atoms: C_7  and  O_8
REMARK    3  A    between atoms: O_8  and  C_9
REMARK    4  A    between atoms: C_9  and  C_10
REMARK    5  A    between atoms: C_14  and  C_15
REMARK                            x       y       z     vdW  Elec       q    Type
REMARK                         _______ _______ _______ _____ _____    ______ ____
ROOT
ATOM      1  O   UNL     1      43.962   4.503   9.932  0.00  0.00    +0.000 OA
ENDROOT
BRANCH   1   5
ATOM      2  C   UNL     1      46.686   2.730   7.406  0.00  0.00    +0.000 A 
ATOM      3  C   UNL     1      45.955   1.899   8.253  0.00  0.00    +0.000 A 
ATOM      4  C   UNL     1      45.010   2.457   9.117  0.00  0.00    +0.000 A 
ATOM      5  C   UNL     1      44.818   3.834   9.104  0.00  0.00    +0.000 A 
ATOM      6  N   UNL     1      45.533   4.655   8.308  0.00  0.00    +0.000 NA
ATOM      7  C   UNL     1      46.453   4.094   7.482  0.00  0.00    +0.000 A 
BRANCH   2   9
ATOM      8  N   UNL     1      47.889   2.939   5.313  0.00  0.00    +0.000 N 
ATOM      9  C   UNL     1      47.697   2.219   6.460  0.00  0.00    +0.000 C 
ATOM     10  O   UNL     1      48.359   1.221   6.706  0.00  0.00    +0.000 OA
ATOM     11  H   UNL     1      48.660   2.648   4.725  0.00  0.00    +0.000 HD
ATOM     12  H   UNL     1      47.555   3.885   5.205  0.00  0.00    +0.000 HD
ENDBRANCH   2   9
ENDBRANCH   1   5
BRANCH   1  13
ATOM     13  C   UNL     1      44.339   4.556  11.307  0.00  0.00    +0.000 C 
BRANCH  13  14
ATOM     14  C   UNL     1      45.032   5.867  11.584  0.00  0.00    +0.000 A 
ATOM     15  N   UNL     1      46.315   5.814  12.028  0.00  0.00    +0.000 NA
ATOM     16  N   UNL     1      46.987   6.966  12.289  0.00  0.00    +0.000 NA
ATOM     17  C   UNL     1      46.348   8.134  12.098  0.00  0.00    +0.000 A 
ATOM     18  C   UNL     1      45.053   8.144  11.632  0.00  0.00    +0.000 A 
ATOM     19  N   UNL     1      44.353   7.014  11.358  0.00  0.00    +0.000 NA
BRANCH  18  20
ATOM     20  C   UNL     1      44.377   9.453  11.401  0.00  0.00    +0.000 C 
ATOM     21  N   UNL     1      43.723   9.619  10.205  0.00  0.00    +0.000 N 
ATOM     22  O   UNL     1      44.411  10.347  12.233  0.00  0.00    +0.000 OA
ATOM     23  H   UNL     1      43.670   8.881   9.512  0.00  0.00    +0.000 HD
ATOM     24  H   UNL     1      43.249  10.497  10.035  0.00  0.00    +0.000 HD
ENDBRANCH  18  20
ENDBRANCH  13  14
ENDBRANCH   1  13
TORSDOF 5
ENDMDL
MODEL 5
REMARK VINA RESULT:    -7.248      2.127      6.573
REMARK INTER + INTRA:          -9.886
REMARK INTER:                  -9.512
REMARK INTRA:                  -0.375
REMARK UNBOUND:                -0.520
REMARK  Name = 
REMARK  5 active torsions:
REMARK  status: ('A' for Active; 'I' for Inactive)
REMARK    1  A    between atoms: C_2  and  C_4
REMARK    2  A    between atoms: C_7  and  O_8
REMARK    3  A    between atoms: O_8  and  C_9
REMARK    4  A    between atoms: C_9  and  C_10
REMARK    5  A    between atoms: C_14  and  C_15
REMARK                            x       y       z     vdW  Elec       q    Type
REMARK                         _______ _______ _______ _____ _____    ______ ____
ROOT
ATOM      1  O   UNL     1      44.983   3.251  11.862  0.00  0.00    +0.000 OA
ENDROOT
BRANCH   1   5
ATOM      2  C   UNL     1      45.699   7.205  12.751  0.00  0.00    +0.000 A 
ATOM      3  C   UNL     1      44.404   6.852  12.377  0.00  0.00    +0.000 A 
ATOM      4  C   UNL     1      44.113   5.518  12.080  0.00  0.00    +0.000 A 
ATOM      5  C   UNL     1      45.128   4.572  12.172  0.00  0.00    +0.000 A 
ATOM      6  N   UNL     1      46.392   4.900  12.509  0.00  0.00    +0.000 NA
ATOM      7  C   UNL     1      46.655   6.203  12.786  0.00  0.00    +0.000 A 
BRANCH   2   9
ATOM      8  N   UNL     1      46.807   8.767  14.235  0.00  0.00    +0.000 N 
ATOM      9  C   UNL     1      46.085   8.589  13.087  0.00  0.00    +0.000 C 
ATOM     10  O   UNL     1      45.807   9.528  12.356  0.00  0.00    +0.000 OA
ATOM     11  H   UNL     1      47.165   9.700  14.400  0.00  0.00    +0.000 HD
ATOM     12  H   UNL     1      47.265   8.004  14.711  0.00  0.00    +0.000 HD
ENDBRANCH   2   9
ENDBRANCH   1   5
BRANCH   1  13
ATOM     13  C   UNL     1      44.143   2.961  10.746  0.00  0.00    +0.000 C 
BRANCH  13  14
ATOM     14  C   UNL     1      44.947   3.075   9.473  0.00  0.00    +0.000 A 
ATOM     15  N   UNL     1      44.949   4.277   8.841  0.00  0.00    +0.000 NA
ATOM     16  N   UNL     1      45.659   4.435   7.694  0.00  0.00    +0.000 NA
ATOM     17  C   UNL     1      46.343   3.380   7.217  0.00  0.00    +0.000 A 
ATOM     18  C   UNL     1      46.328   2.183   7.896  0.00  0.00    +0.000 A 
ATOM     19  N   UNL     1      45.632   1.991   9.046  0.00  0.00    +0.000 NA
BRANCH  18  20
ATOM     20  C   UNL     1      47.118   1.037   7.363  0.00  0.00    +0.000 C 
ATOM     21  N   UNL     1      46.694  -0.226   7.695  0.00  0.00    +0.000 N 
ATOM     22  O   UNL     1      48.108   1.210   6.668  0.00  0.00    +0.000 OA
ATOM     23  H   UNL     1      45.865  -0.387   8.256  0.00  0.00    +0.000 HD
ATOM     24  H   UNL     1      47.212  -1.017   7.333  0.00  0.00    +0.000 HD
ENDBRANCH  18  20
ENDBRANCH  13  14
ENDBRANCH   1  13
TORSDOF 5
ENDMDL
MODEL 6
REMARK VINA RESULT:    -6.940      1.781      6.648
REMARK INTER + INTRA:          -9.489
REMARK INTER:                  -8.988
REMARK INTRA:                  -0.501
REMARK UNBOUND:                -0.520
REMARK  Name = 
REMARK  5 active torsions:
REMARK  status: ('A' for Active; 'I' for Inactive)
REMARK    1  A    between atoms: C_2  and  C_4
REMARK    2  A    between atoms: C_7  and  O_8
REMARK    3  A    between atoms: O_8  and  C_9
REMARK    4  A    between atoms: C_9  and  C_10
REMARK    5  A    between atoms: C_14  and  C_15
REMARK                            x       y       z     vdW  Elec       q    Type
REMARK                         _______ _______ _______ _____ _____    ______ ____
ROOT
ATOM      1  O   UNL     1      44.091   4.268  10.688  0.00  0.00    +0.000 OA
ENDROOT
BRANCH   1   5
ATOM      2  C   UNL     1      47.113   5.883  12.966  0.00  0.00    +0.000 A 
ATOM      3  C   UNL     1      46.735   6.571  11.815  0.00  0.00    +0.000 A 
ATOM      4  C   UNL     1      45.704   6.066  11.019  0.00  0.00    +0.000 A 
ATOM      5  C   UNL     1      45.075   4.887  11.403  0.00  0.00    +0.000 A 
ATOM      6  N   UNL     1      45.444   4.196  12.501  0.00  0.00    +0.000 NA
ATOM      7  C   UNL     1      46.454   4.699  13.256  0.00  0.00    +0.000 A 
BRANCH   2   9
ATOM      8  N   UNL     1      48.925   7.422  13.435  0.00  0.00    +0.000 N 
ATOM      9  C   UNL     1      48.187   6.353  13.863  0.00  0.00    +0.000 C 
ATOM     10  O   UNL     1      48.385   5.836  14.953  0.00  0.00    +0.000 OA
ATOM     11  H   UNL     1      49.581   7.810  14.102  0.00  0.00    +0.000 HD
ATOM     12  H   UNL     1      48.625   8.020  12.679  0.00  0.00    +0.000 HD
ENDBRANCH   2   9
ENDBRANCH   1   5
BRANCH   1  13
ATOM     13  C   UNL     1      44.168   4.409   9.270  0.00  0.00    +0.000 C 
BRANCH  13  14
ATOM     14  C   UNL     1      45.004   3.288   8.701  0.00  0.00    +0.000 A 
ATOM     15  N   UNL     1      44.861   2.058   9.257  0.00  0.00    +0.000 NA
ATOM     16  N   UNL     1      45.587   1.013   8.781  0.00  0.00    +0.000 NA
ATOM     17  C   UNL     1      46.436   1.239   7.762  0.00  0.00    +0.000 A 
ATOM     18  C   UNL     1      46.540   2.498   7.217  0.00  0.00    +0.000 A 
ATOM     19  N   UNL     1      45.828   3.563   7.666  0.00  0.00    +0.000 NA
BRANCH  18  20
ATOM     20  C   UNL     1      47.467   2.716   6.070  0.00  0.00    +0.000 C 
ATOM     21  N   UNL     1      48.805   2.501   6.294  0.00  0.00    +0.000 N 
ATOM     22  O   UNL     1      47.060   3.083   4.978  0.00  0.00    +0.000 OA
ATOM     23  H   UNL     1      49.157   2.180   7.189  0.00  0.00    +0.000 HD
ATOM     24  H   UNL     1      49.448   2.634   5.524  0.00  0.00    +0.000 HD
ENDBRANCH  18  20
ENDBRANCH  13  14
ENDBRANCH   1  13
TORSDOF 5
ENDMDL
MODEL 7
REMARK VINA RESULT:    -6.923      3.136      5.719
REMARK INTER + INTRA:          -9.466
REMARK INTER:                  -9.068
REMARK INTRA:                  -0.399
REMARK UNBOUND:                -0.520
REMARK  Name = 
REMARK  5 active torsions:
REMARK  status: ('A' for Active; 'I' for Inactive)
REMARK    1  A    between atoms: C_2  and  C_4
REMARK    2  A    between atoms: C_7  and  O_8
REMARK    3  A    between atoms: O_8  and  C_9
REMARK    4  A    between atoms: C_9  and  C_10
REMARK    5  A    between atoms: C_14  and  C_15
REMARK                            x       y       z     vdW  Elec       q    Type
REMARK                         _______ _______ _______ _____ _____    ______ ____
ROOT
ATOM      1  O   UNL     1      47.577   5.089  14.686  0.00  0.00    +0.000 OA
ENDROOT
BRANCH   1   5
ATOM      2  C   UNL     1      45.070   4.270  11.526  0.00  0.00    +0.000 A 
ATOM      3  C   UNL     1      45.567   5.568  11.635  0.00  0.00    +0.000 A 
ATOM      4  C   UNL     1      46.433   5.886  12.685  0.00  0.00    +0.000 A 
ATOM      5  C   UNL     1      46.782   4.893  13.594  0.00  0.00    +0.000 A 
ATOM      6  N   UNL     1      46.291   3.639  13.516  0.00  0.00    +0.000 NA
ATOM      7  C   UNL     1      45.445   3.352  12.494  0.00  0.00    +0.000 A 
BRANCH   2   9
ATOM      8  N   UNL     1      43.996   4.722   9.402  0.00  0.00    +0.000 N 
ATOM      9  C   UNL     1      44.158   3.852  10.444  0.00  0.00    +0.000 C 
ATOM     10  O   UNL     1      43.601   2.764  10.459  0.00  0.00    +0.000 OA
ATOM     11  H   UNL     1      43.460   4.382   8.613  0.00  0.00    +0.000 HD
ATOM     12  H   UNL     1      44.626   5.494   9.237  0.00  0.00    +0.000 HD
ENDBRANCH   2   9
ENDBRANCH   1   5
BRANCH   1  13
ATOM     13  C   UNL     1      47.245   4.325  15.844  0.00  0.00    +0.000 C 
BRANCH  13  14
ATOM     14  C   UNL     1      48.469   3.582  16.320  0.00  0.00    +0.000 A 
ATOM     15  N   UNL     1      48.649   2.316  15.863  0.00  0.00    +0.000 NA
ATOM     16  N   UNL     1      49.736   1.604  16.257  0.00  0.00    +0.000 NA
ATOM     17  C   UNL     1      50.608   2.186  17.099  0.00  0.00    +0.000 A 
ATOM     18  C   UNL     1      50.398   3.477  17.527  0.00  0.00    +0.000 A 
ATOM     19  N   UNL     1      49.325   4.219  17.151  0.00  0.00    +0.000 NA
BRANCH  18  20
ATOM     20  C   UNL     1      51.395   4.110  18.437  0.00  0.00    +0.000 C 
ATOM     21  N   UNL     1      50.995   4.362  19.727  0.00  0.00    +0.000 N 
ATOM     22  O   UNL     1      52.516   4.405  18.053  0.00  0.00    +0.000 OA
ATOM     23  H   UNL     1      50.075   4.107  20.066  0.00  0.00    +0.000 HD
ATOM     24  H   UNL     1      51.662   4.781  20.362  0.00  0.00    +0.000 HD
ENDBRANCH  18  20
ENDBRANCH  13  14
ENDBRANCH   1  13
TORSDOF 5
ENDMDL
MODEL 8
REMARK VINA RESULT:    -6.548      2.777      8.096
REMARK INTER + INTRA:          -8.983
REMARK INTER:                  -8.594
REMARK INTRA:                  -0.389
REMARK UNBOUND:                -0.520
REMARK  Name = 
REMARK  5 active torsions:
REMARK  status: ('A' for Active; 'I' for Inactive)
REMARK    1  A    between atoms: C_2  and  C_4
REMARK    2  A    between atoms: C_7  and  O_8
REMARK    3  A    between atoms: O_8  and  C_9
REMARK    4  A    between atoms: C_9  and  C_10
REMARK    5  A    between atoms: C_14  and  C_15
REMARK                            x       y       z     vdW  Elec       q    Type
REMARK                         _______ _______ _______ _____ _____    ______ ____
ROOT
ATOM      1  O   UNL     1      47.385   3.144  14.379  0.00  0.00    +0.000 OA
ENDROOT
BRANCH   1   5
ATOM      2  C   UNL     1      48.619   4.185  18.165  0.00  0.00    +0.000 A 
ATOM      3  C   UNL     1      48.704   2.841  17.805  0.00  0.00    +0.000 A 
ATOM      4  C   UNL     1      48.309   2.445  16.525  0.00  0.00    +0.000 A 
ATOM      5  C   UNL     1      47.844   3.409  15.637  0.00  0.00    +0.000 A 
ATOM      6  N   UNL     1      47.733   4.710  15.977  0.00  0.00    +0.000 NA
ATOM      7  C   UNL     1      48.114   5.072  17.228  0.00  0.00    +0.000 A 
BRANCH   2   9
ATOM      8  N   UNL     1      48.586   3.975  20.578  0.00  0.00    +0.000 N 
ATOM      9  C   UNL     1      49.022   4.684  19.494  0.00  0.00    +0.000 C 
ATOM     10  O   UNL     1      49.742   5.664  19.620  0.00  0.00    +0.000 OA
ATOM     11  H   UNL     1      48.958   4.255  21.477  0.00  0.00    +0.000 HD
ATOM     12  H   UNL     1      48.218   3.037  20.501  0.00  0.00    +0.000 HD
ENDBRANCH   2   9
ENDBRANCH   1   5
BRANCH   1  13
ATOM     13  C   UNL     1      47.005   4.278  13.602  0.00  0.00    +0.000 C 
BRANCH  13  14
ATOM     14  C   UNL     1      45.693   3.994  12.912  0.00  0.00    +0.000 A 
ATOM     15  N   UNL     1      44.567   4.040  13.669  0.00  0.00    +0.000 NA
ATOM     16  N   UNL     1      43.359   3.796  13.097  0.00  0.00    +0.000 NA
ATOM     17  C   UNL     1      43.322   3.512  11.783  0.00  0.00    +0.000 A 
ATOM     18  C   UNL     1      44.485   3.491  11.048  0.00  0.00    +0.000 A 
ATOM     19  N   UNL     1      45.708   3.733  11.586  0.00  0.00    +0.000 NA
BRANCH  18  20
ATOM     20  C   UNL     1      44.414   3.202   9.587  0.00  0.00    +0.000 C 
ATOM     21  N   UNL     1      44.083   4.245   8.757  0.00  0.00    +0.000 N 
ATOM     22  O   UNL     1      44.627   2.084   9.144  0.00  0.00    +0.000 OA
ATOM     23  H   UNL     1      43.920   5.182   9.106  0.00  0.00    +0.000 HD
ATOM     24  H   UNL     1      44.040   4.069   7.761  0.00  0.00    +0.000 HD
ENDBRANCH  18  20
ENDBRANCH  13  14
ENDBRANCH   1  13
TORSDOF 5
ENDMDL
MODEL 9
REMARK VINA RESULT:    -6.370      4.061      5.788
REMARK INTER + INTRA:          -8.753
REMARK INTER:                  -8.307
REMARK INTRA:                  -0.446
REMARK UNBOUND:                -0.520
REMARK  Name = 
REMARK  5 active torsions:
REMARK  status: ('A' for Active; 'I' for Inactive)
REMARK    1  A    between atoms: C_2  and  C_4
REMARK    2  A    between atoms: C_7  and  O_8
REMARK    3  A    between atoms: O_8  and  C_9
REMARK    4  A    between atoms: C_9  and  C_10
REMARK    5  A    between atoms: C_14  and  C_15
REMARK                            x       y       z     vdW  Elec       q    Type
REMARK                         _______ _______ _______ _____ _____    ______ ____
ROOT
ATOM      1  O   UNL     1      48.396   6.240  13.325  0.00  0.00    +0.000 OA
ENDROOT
BRANCH   1   5
ATOM      2  C   UNL     1      44.520   5.672  12.063  0.00  0.00    +0.000 A 
ATOM      3  C   UNL     1      45.148   6.861  11.700  0.00  0.00    +0.000 A 
ATOM      4  C   UNL     1      46.469   7.090  12.095  0.00  0.00    +0.000 A 
ATOM      5  C   UNL     1      47.126   6.116  12.839  0.00  0.00    +0.000 A 
ATOM      6  N   UNL     1      46.525   4.970  13.219  0.00  0.00    +0.000 NA
ATOM      7  C   UNL     1      45.239   4.771  12.832  0.00  0.00    +0.000 A 
BRANCH   2   9
ATOM      8  N   UNL     1      42.249   6.395  11.629  0.00  0.00    +0.000 N 
ATOM      9  C   UNL     1      43.131   5.352  11.680  0.00  0.00    +0.000 C 
ATOM     10  O   UNL     1      42.792   4.215  11.386  0.00  0.00    +0.000 OA
ATOM     11  H   UNL     1      41.330   6.188  11.257  0.00  0.00    +0.000 HD
ATOM     12  H   UNL     1      42.549   7.359  11.611  0.00  0.00    +0.000 HD
ENDBRANCH   2   9
ENDBRANCH   1   5
BRANCH   1  13
ATOM     13  C   UNL     1      48.530   6.983  14.535  0.00  0.00    +0.000 C 
BRANCH  13  14
ATOM     14  C   UNL     1      49.023   6.068  15.630  0.00  0.00    +0.000 A 
ATOM     15  N   UNL     1      50.327   6.174  15.993  0.00  0.00    +0.000 NA
ATOM     16  N   UNL     1      50.822   5.377  16.975  0.00  0.00    +0.000 NA
ATOM     17  C   UNL     1      49.990   4.497  17.561  0.00  0.00    +0.000 A 
ATOM     18  C   UNL     1      48.671   4.431  17.174  0.00  0.00    +0.000 A 
ATOM     19  N   UNL     1      48.143   5.214  16.199  0.00  0.00    +0.000 NA
BRANCH  18  20
ATOM     20  C   UNL     1      47.763   3.467  17.859  0.00  0.00    +0.000 C 
ATOM     21  N   UNL     1      48.173   2.970  19.071  0.00  0.00    +0.000 N 
ATOM     22  O   UNL     1      46.703   3.120  17.359  0.00  0.00    +0.000 OA
ATOM     23  H   UNL     1      49.041   3.260  19.507  0.00  0.00    +0.000 HD
ATOM     24  H   UNL     1      47.565   2.322  19.555  0.00  0.00    +0.000 HD
ENDBRANCH  18  20
ENDBRANCH  13  14
ENDBRANCH   1  13
TORSDOF 5
ENDMDL
