MODEL 1
REMARK VINA RESULT:    -7.153      0.000      0.000
REMARK INTER + INTRA:         -10.794
REMARK INTER:                  -9.871
REMARK INTRA:                  -0.922
REMARK UNBOUND:                -0.922
REMARK  Name = 
REMARK  8 active torsions:
REMARK  status: ('A' for Active; 'I' for Inactive)
REMARK    1  A    between atoms: C_1  and  C_2
REMARK    2  A    between atoms: C_2  and  N_3
REMARK    3  A    between atoms: C_2  and  C_18
REMARK    4  A    between atoms: N_3  and  C_4
REMARK    5  A    between atoms: C_7  and  C_8
REMARK    6  A    between atoms: C_8  and  N_9
REMARK    7  A    between atoms: N_9  and  C_10
REMARK    8  A    between atoms: C_13  and  N_14
REMARK                            x       y       z     vdW  Elec       q    Type
REMARK                         _______ _______ _______ _____ _____    ______ ____
ROOT
ATOM      1  C   UNL     1      48.437   5.766  15.811  0.00  0.00    +0.000 A 
ATOM      2  C   UNL     1      47.517   4.755  15.528  0.00  0.00    +0.000 A 
ATOM      3  C   UNL     1      46.845   4.725  14.305  0.00  0.00    +0.000 A 
ATOM      4  C   UNL     1      47.051   5.759  13.398  0.00  0.00    +0.000 A 
ATOM      5  N   UNL     1      47.886   6.794  13.665  0.00  0.00    +0.000 NA
ATOM      6  C   UNL     1      48.555   6.766  14.846  0.00  0.00    +0.000 A 
ENDROOT
BRANCH   1   7
ATOM      7  N   UNL     1      49.045   5.775  17.079  0.00  0.00    +0.000 N 
ATOM      8  H   UNL     1      49.950   6.236  16.981  0.00  0.00    +0.000 HD
BRANCH   7  10
ATOM      9  C   UNL     1      48.413   4.524  19.115  0.00  0.00    +0.000 C 
ATOM     10  C   UNL     1      49.227   4.499  17.806  0.00  0.00    +0.000 C 
BRANCH  10  11
ATOM     11  C   UNL     1      50.675   4.181  18.157  0.00  0.00    +0.000 A 
ATOM     12  C   UNL     1      51.511   4.988  18.907  0.00  0.00    +0.000 A 
ATOM     13  S   UNL     1      53.013   4.256  19.270  0.00  0.00    +0.000 S 
ATOM     14  C   UNL     1      52.580   2.824  18.457  0.00  0.00    +0.000 A 
ATOM     15  N   UNL     1      53.379   1.729  18.462  0.00  0.00    +0.000 NA
ATOM     16  C   UNL     1      52.894   0.706  17.839  0.00  0.00    +0.000 A 
ATOM     17  N   UNL     1      51.696   0.696  17.170  0.00  0.00    +0.000 N 
ATOM     18  C   UNL     1      50.874   1.799  17.083  0.00  0.00    +0.000 A 
ATOM     19  O   UNL     1      49.851   1.791  16.413  0.00  0.00    +0.000 OA
ATOM     20  C   UNL     1      51.344   2.938  17.847  0.00  0.00    +0.000 A 
ATOM     21  H   UNL     1      51.388  -0.125  16.669  0.00  0.00    +0.000 HD
ENDBRANCH  10  11
ENDBRANCH   7  10
ENDBRANCH   1   7
BRANCH   4  22
ATOM     22  C   UNL     1      46.264   5.786  12.102  0.00  0.00    +0.000 C 
BRANCH  22  23
ATOM     23  N   UNL     1      44.801   5.696  12.241  0.00  0.00    +0.000 NA
ATOM     24  H   UNL     1      44.486   6.636  12.502  0.00  0.00    +0.000 HD
BRANCH  23  25
ATOM     25  C   UNL     1      44.106   5.341  10.993  0.00  0.00    +0.000 C 
ATOM     26  C   UNL     1      45.001   4.605   9.987  0.00  0.00    +0.000 C 
ATOM     27  C   UNL     1      44.741   3.107  10.160  0.00  0.00    +0.000 C 
ATOM     28  C   UNL     1      43.699   2.958  11.271  0.00  0.00    +0.000 C 
ATOM     29  C   UNL     1      42.995   4.315  11.272  0.00  0.00    +0.000 C 
BRANCH  28  30
ATOM     30  N   UNL     1      44.324   2.678  12.563  0.00  0.00    +0.000 NA
ATOM     31  H   UNL     1      43.935   1.798  12.922  0.00  0.00    +0.000 HD
ATOM     32  H   UNL     1      44.081   3.402  13.234  0.00  0.00    +0.000 HD
ENDBRANCH  28  30
ENDBRANCH  23  25
ENDBRANCH  22  23
ENDBRANCH   4  22
TORSDOF 7
ENDMDL
MODEL 2
REMARK VINA RESULT:    -6.820      3.584      8.376
REMARK INTER + INTRA:         -10.334
REMARK INTER:                  -9.302
REMARK INTRA:                  -1.032
REMARK UNBOUND:                -0.922
REMARK  Name = 
REMARK  8 active torsions:
REMARK  status: ('A' for Active; 'I' for Inactive)
REMARK    1  A    between atoms: C_1  and  C_2
REMARK    2  A    between atoms: C_2  and  N_3
REMARK    3  A    between atoms: C_2  and  C_18
REMARK    4  A    between atoms: N_3  and  C_4
REMARK    5  A    between atoms: C_7  and  C_8
REMARK    6  A    between atoms: C_8  and  N_9
REMARK    7  A    between atoms: N_9  and  C_10
REMARK    8  A    between atoms: C_13  and  N_14
REMARK                            x       y       z     vdW  Elec       q    Type
REMARK                         _______ _______ _______ _____ _____    ______ ____
ROOT
ATOM      1  C   UNL     1      47.132   6.852  12.543  0.00  0.00    +0.000 A 
ATOM      2  C   UNL     1      47.163   5.629  13.214  0.00  0.00    +0.000 A 
ATOM      3  C   UNL     1      47.771   5.517  14.465  0.00  0.00    +0.000 A 
ATOM      4  C   UNL     1      48.410   6.628  15.005  0.00  0.00    +0.000 A 
ATOM      5  N   UNL     1      48.460   7.816  14.354  0.00  0.00    +0.000 NA
ATOM      6  C   UNL     1      47.820   7.899  13.159  0.00  0.00    +0.000 A 
ENDROOT
BRANCH   1   7
ATOM      7  N   UNL     1      46.553   6.894  11.263  0.00  0.00    +0.000 N 
ATOM      8  H   UNL     1      46.801   7.792  10.844  0.00  0.00    +0.000 HD
BRANCH   7  10
ATOM      9  C   UNL     1      44.342   7.439  12.226  0.00  0.00    +0.000 C 
ATOM     10  C   UNL     1      45.097   6.677  11.118  0.00  0.00    +0.000 C 
BRANCH  10  11
ATOM     11  C   UNL     1      44.673   5.215  11.178  0.00  0.00    +0.000 A 
ATOM     12  C   UNL     1      43.950   4.635  12.204  0.00  0.00    +0.000 A 
ATOM     13  S   UNL     1      43.485   3.023  11.876  0.00  0.00    +0.000 S 
ATOM     14  C   UNL     1      44.214   3.061  10.338  0.00  0.00    +0.000 A 
ATOM     15  N   UNL     1      44.105   2.025   9.470  0.00  0.00    +0.000 NA
ATOM     16  C   UNL     1      44.675   2.221   8.326  0.00  0.00    +0.000 A 
ATOM     17  N   UNL     1      45.384   3.346   7.990  0.00  0.00    +0.000 N 
ATOM     18  C   UNL     1      45.576   4.401   8.856  0.00  0.00    +0.000 A 
ATOM     19  O   UNL     1      46.279   5.358   8.564  0.00  0.00    +0.000 OA
ATOM     20  C   UNL     1      44.874   4.256  10.117  0.00  0.00    +0.000 A 
ATOM     21  H   UNL     1      45.839   3.424   7.091  0.00  0.00    +0.000 HD
ENDBRANCH  10  11
ENDBRANCH   7  10
ENDBRANCH   1   7
BRANCH   4  22
ATOM     22  C   UNL     1      49.148   6.500  16.324  0.00  0.00    +0.000 C 
BRANCH  22  23
ATOM     23  N   UNL     1      49.781   5.194  16.578  0.00  0.00    +0.000 NA
ATOM     24  H   UNL     1      50.788   5.377  16.634  0.00  0.00    +0.000 HD
BRANCH  23  25
ATOM     25  C   UNL     1      49.383   4.580  17.855  0.00  0.00    +0.000 C 
ATOM     26  C   UNL     1      47.869   4.614  18.101  0.00  0.00    +0.000 C 
ATOM     27  C   UNL     1      47.307   3.260  17.664  0.00  0.00    +0.000 C 
ATOM     28  C   UNL     1      48.487   2.428  17.153  0.00  0.00    +0.000 C 
ATOM     29  C   UNL     1      49.690   3.073  17.842  0.00  0.00    +0.000 C 
BRANCH  28  30
ATOM     30  N   UNL     1      48.605   2.496  15.698  0.00  0.00    +0.000 NA
ATOM     31  H   UNL     1      49.564   2.781  15.468  0.00  0.00    +0.000 HD
ATOM     32  H   UNL     1      47.988   3.216  15.329  0.00  0.00    +0.000 HD
ENDBRANCH  28  30
ENDBRANCH  23  25
ENDBRANCH  22  23
ENDBRANCH   4  22
TORSDOF 7
ENDMDL
MODEL 3
REMARK VINA RESULT:    -6.284      2.862      8.692
REMARK INTER + INTRA:          -9.594
REMARK INTER:                  -8.725
REMARK INTRA:                  -0.870
REMARK UNBOUND:                -0.922
REMARK  Name = 
REMARK  8 active torsions:
REMARK  status: ('A' for Active; 'I' for Inactive)
REMARK    1  A    between atoms: C_1  and  C_2
REMARK    2  A    between atoms: C_2  and  N_3
REMARK    3  A    between atoms: C_2  and  C_18
REMARK    4  A    between atoms: N_3  and  C_4
REMARK    5  A    between atoms: C_7  and  C_8
REMARK    6  A    between atoms: C_8  and  N_9
REMARK    7  A    between atoms: N_9  and  C_10
REMARK    8  A    between atoms: C_13  and  N_14
REMARK                            x       y       z     vdW  Elec       q    Type
REMARK                         _______ _______ _______ _____ _____    ______ ____
ROOT
ATOM      1  C   UNL     1      48.608   6.621  16.022  0.00  0.00    +0.000 A 
ATOM      2  C   UNL     1      49.324   7.494  16.841  0.00  0.00    +0.000 A 
ATOM      3  C   UNL     1      49.914   7.040  18.022  0.00  0.00    +0.000 A 
ATOM      4  C   UNL     1      49.716   5.719  18.409  0.00  0.00    +0.000 A 
ATOM      5  N   UNL     1      48.970   4.858  17.674  0.00  0.00    +0.000 NA
ATOM      6  C   UNL     1      48.449   5.323  16.509  0.00  0.00    +0.000 A 
ENDROOT
BRANCH   1   7
ATOM      7  N   UNL     1      47.992   7.144  14.871  0.00  0.00    +0.000 N 
ATOM      8  H   UNL     1      47.035   7.397  15.124  0.00  0.00    +0.000 HD
BRANCH   7  10
ATOM      9  C   UNL     1      49.007   6.884  12.632  0.00  0.00    +0.000 C 
ATOM     10  C   UNL     1      47.967   6.338  13.631  0.00  0.00    +0.000 C 
BRANCH  10  11
ATOM     11  C   UNL     1      46.614   6.307  12.931  0.00  0.00    +0.000 A 
ATOM     12  C   UNL     1      45.992   7.395  12.347  0.00  0.00    +0.000 A 
ATOM     13  S   UNL     1      44.571   6.983  11.491  0.00  0.00    +0.000 S 
ATOM     14  C   UNL     1      44.758   5.330  11.854  0.00  0.00    +0.000 A 
ATOM     15  N   UNL     1      43.931   4.387  11.340  0.00  0.00    +0.000 NA
ATOM     16  C   UNL     1      44.228   3.173  11.671  0.00  0.00    +0.000 A 
ATOM     17  N   UNL     1      45.255   2.823  12.510  0.00  0.00    +0.000 N 
ATOM     18  C   UNL     1      46.087   3.746  13.106  0.00  0.00    +0.000 A 
ATOM     19  O   UNL     1      46.945   3.416  13.914  0.00  0.00    +0.000 OA
ATOM     20  C   UNL     1      45.841   5.111  12.686  0.00  0.00    +0.000 A 
ATOM     21  H   UNL     1      45.414   1.857  12.761  0.00  0.00    +0.000 HD
ENDBRANCH  10  11
ENDBRANCH   7  10
ENDBRANCH   1   7
BRANCH   4  22
ATOM     22  C   UNL     1      50.278   5.234  19.732  0.00  0.00    +0.000 C 
BRANCH  22  23
ATOM     23  N   UNL     1      51.153   4.051  19.659  0.00  0.00    +0.000 NA
ATOM     24  H   UNL     1      50.748   3.447  18.936  0.00  0.00    +0.000 HD
BRANCH  23  25
ATOM     25  C   UNL     1      52.531   4.357  19.241  0.00  0.00    +0.000 C 
ATOM     26  C   UNL     1      53.595   3.651  20.092  0.00  0.00    +0.000 C 
ATOM     27  C   UNL     1      54.008   2.384  19.341  0.00  0.00    +0.000 C 
ATOM     28  C   UNL     1      53.185   2.336  18.051  0.00  0.00    +0.000 C 
ATOM     29  C   UNL     1      52.798   3.800  17.833  0.00  0.00    +0.000 C 
BRANCH  28  30
ATOM     30  N   UNL     1      52.004   1.487  18.196  0.00  0.00    +0.000 NA
ATOM     31  H   UNL     1      51.284   1.828  17.548  0.00  0.00    +0.000 HD
ATOM     32  H   UNL     1      51.621   1.576  19.134  0.00  0.00    +0.000 HD
ENDBRANCH  28  30
ENDBRANCH  23  25
ENDBRANCH  22  23
ENDBRANCH   4  22
TORSDOF 7
ENDMDL
MODEL 4
REMARK VINA RESULT:    -6.089      5.620      8.850
REMARK INTER + INTRA:          -9.325
REMARK INTER:                  -8.419
REMARK INTRA:                  -0.906
REMARK UNBOUND:                -0.922
REMARK  Name = 
REMARK  8 active torsions:
REMARK  status: ('A' for Active; 'I' for Inactive)
REMARK    1  A    between atoms: C_1  and  C_2
REMARK    2  A    between atoms: C_2  and  N_3
REMARK    3  A    between atoms: C_2  and  C_18
REMARK    4  A    between atoms: N_3  and  C_4
REMARK    5  A    between atoms: C_7  and  C_8
REMARK    6  A    between atoms: C_8  and  N_9
REMARK    7  A    between atoms: N_9  and  C_10
REMARK    8  A    between atoms: C_13  and  N_14
REMARK                            x       y       z     vdW  Elec       q    Type
REMARK                         _______ _______ _______ _____ _____    ______ ____
ROOT
ATOM      1  C   UNL     1      46.298   7.548  12.987  0.00  0.00    +0.000 A 
ATOM      2  C   UNL     1      47.261   6.548  12.843  0.00  0.00    +0.000 A 
ATOM      3  C   UNL     1      48.618   6.839  12.984  0.00  0.00    +0.000 A 
ATOM      4  C   UNL     1      49.005   8.158  13.200  0.00  0.00    +0.000 A 
ATOM      5  N   UNL     1      48.103   9.169  13.278  0.00  0.00    +0.000 NA
ATOM      6  C   UNL     1      46.790   8.840  13.180  0.00  0.00    +0.000 A 
ENDROOT
BRANCH   1   7
ATOM      7  N   UNL     1      44.950   7.208  12.782  0.00  0.00    +0.000 N 
ATOM      8  H   UNL     1      44.694   6.525  13.496  0.00  0.00    +0.000 HD
BRANCH   7  10
ATOM      9  C   UNL     1      43.188   7.372  11.055  0.00  0.00    +0.000 C 
ATOM     10  C   UNL     1      44.520   6.707  11.457  0.00  0.00    +0.000 C 
BRANCH  10  11
ATOM     11  C   UNL     1      44.332   5.196  11.391  0.00  0.00    +0.000 A 
ATOM     12  C   UNL     1      43.609   4.441  12.295  0.00  0.00    +0.000 A 
ATOM     13  S   UNL     1      43.444   2.804  11.830  0.00  0.00    +0.000 S 
ATOM     14  C   UNL     1      44.314   3.062  10.390  0.00  0.00    +0.000 A 
ATOM     15  N   UNL     1      44.465   2.086   9.461  0.00  0.00    +0.000 NA
ATOM     16  C   UNL     1      45.112   2.447   8.401  0.00  0.00    +0.000 A 
ATOM     17  N   UNL     1      45.662   3.688   8.210  0.00  0.00    +0.000 N 
ATOM     18  C   UNL     1      45.591   4.697   9.147  0.00  0.00    +0.000 A 
ATOM     19  O   UNL     1      46.159   5.768   8.989  0.00  0.00    +0.000 OA
ATOM     20  C   UNL     1      44.795   4.357  10.309  0.00  0.00    +0.000 A 
ATOM     21  H   UNL     1      46.191   3.899   7.374  0.00  0.00    +0.000 HD
ENDBRANCH  10  11
ENDBRANCH   7  10
ENDBRANCH   1   7
BRANCH   4  22
ATOM     22  C   UNL     1      50.480   8.504  13.270  0.00  0.00    +0.000 C 
BRANCH  22  23
ATOM     23  N   UNL     1      51.359   7.738  12.370  0.00  0.00    +0.000 NA
ATOM     24  H   UNL     1      50.956   6.797  12.319  0.00  0.00    +0.000 HD
BRANCH  23  25
ATOM     25  C   UNL     1      51.403   8.262  10.995  0.00  0.00    +0.000 C 
ATOM     26  C   UNL     1      52.355   9.455  10.829  0.00  0.00    +0.000 C 
ATOM     27  C   UNL     1      53.682   8.906  10.302  0.00  0.00    +0.000 C 
ATOM     28  C   UNL     1      53.518   7.390  10.163  0.00  0.00    +0.000 C 
ATOM     29  C   UNL     1      52.003   7.215  10.043  0.00  0.00    +0.000 C 
BRANCH  28  30
ATOM     30  N   UNL     1      54.048   6.682  11.326  0.00  0.00    +0.000 NA
ATOM     31  H   UNL     1      53.856   7.249  12.160  0.00  0.00    +0.000 HD
ATOM     32  H   UNL     1      55.059   6.597  11.255  0.00  0.00    +0.000 HD
ENDBRANCH  28  30
ENDBRANCH  23  25
ENDBRANCH  22  23
ENDBRANCH   4  22
TORSDOF 7
ENDMDL
MODEL 5
REMARK VINA RESULT:    -5.925      2.748      3.765
REMARK INTER + INTRA:          -9.099
REMARK INTER:                  -7.971
REMARK INTRA:                  -1.128
REMARK UNBOUND:                -0.922
REMARK  Name = 
REMARK  8 active torsions:
REMARK  status: ('A' for Active; 'I' for Inactive)
REMARK    1  A    between atoms: C_1  and  C_2
REMARK    2  A    between atoms: C_2  and  N_3
REMARK    3  A    between atoms: C_2  and  C_18
REMARK    4  A    between atoms: N_3  and  C_4
REMARK    5  A    between atoms: C_7  and  C_8
REMARK    6  A    between atoms: C_8  and  N_9
REMARK    7  A    between atoms: N_9  and  C_10
REMARK    8  A    between atoms: C_13  and  N_14
REMARK                            x       y       z     vdW  Elec       q    Type
REMARK                         _______ _______ _______ _____ _____    ______ ____
ROOT
ATOM      1  C   UNL     1      48.528   6.895  13.943  0.00  0.00    +0.000 A 
ATOM      2  C   UNL     1      48.327   7.806  12.906  0.00  0.00    +0.000 A 
ATOM      3  C   UNL     1      47.213   7.704  12.072  0.00  0.00    +0.000 A 
ATOM      4  C   UNL     1      46.339   6.635  12.244  0.00  0.00    +0.000 A 
ATOM      5  N   UNL     1      46.536   5.691  13.198  0.00  0.00    +0.000 NA
ATOM      6  C   UNL     1      47.607   5.849  14.018  0.00  0.00    +0.000 A 
ENDROOT
BRANCH   1   7
ATOM      7  N   UNL     1      49.694   7.016  14.718  0.00  0.00    +0.000 N 
ATOM      8  H   UNL     1      49.823   6.135  15.218  0.00  0.00    +0.000 HD
BRANCH   7  10
ATOM      9  C   UNL     1      51.306   8.403  15.979  0.00  0.00    +0.000 C 
ATOM     10  C   UNL     1      49.817   8.137  15.675  0.00  0.00    +0.000 C 
BRANCH  10  11
ATOM     11  C   UNL     1      49.099   7.911  17.000  0.00  0.00    +0.000 A 
ATOM     12  C   UNL     1      48.246   8.813  17.610  0.00  0.00    +0.000 A 
ATOM     13  S   UNL     1      47.467   8.177  18.992  0.00  0.00    +0.000 S 
ATOM     14  C   UNL     1      48.226   6.666  18.801  0.00  0.00    +0.000 A 
ATOM     15  N   UNL     1      47.928   5.610  19.598  0.00  0.00    +0.000 NA
ATOM     16  C   UNL     1      48.555   4.518  19.301  0.00  0.00    +0.000 A 
ATOM     17  N   UNL     1      49.489   4.403  18.303  0.00  0.00    +0.000 N 
ATOM     18  C   UNL     1      49.873   5.459  17.505  0.00  0.00    +0.000 A 
ATOM     19  O   UNL     1      50.766   5.352  16.676  0.00  0.00    +0.000 OA
ATOM     20  C   UNL     1      49.125   6.676  17.750  0.00  0.00    +0.000 A 
ATOM     21  H   UNL     1      49.973   3.530  18.144  0.00  0.00    +0.000 HD
ENDBRANCH  10  11
ENDBRANCH   7  10
ENDBRANCH   1   7
BRANCH   4  22
ATOM     22  C   UNL     1      45.171   6.462  11.292  0.00  0.00    +0.000 C 
BRANCH  22  23
ATOM     23  N   UNL     1      44.014   5.727  11.830  0.00  0.00    +0.000 NA
ATOM     24  H   UNL     1      43.319   6.439  12.077  0.00  0.00    +0.000 HD
BRANCH  23  25
ATOM     25  C   UNL     1      43.377   4.826  10.855  0.00  0.00    +0.000 C 
ATOM     26  C   UNL     1      44.319   4.391   9.724  0.00  0.00    +0.000 C 
ATOM     27  C   UNL     1      44.887   3.023  10.108  0.00  0.00    +0.000 C 
ATOM     28  C   UNL     1      44.287   2.653  11.467  0.00  0.00    +0.000 C 
ATOM     29  C   UNL     1      43.009   3.491  11.522  0.00  0.00    +0.000 C 
BRANCH  28  30
ATOM     30  N   UNL     1      45.192   2.986  12.565  0.00  0.00    +0.000 NA
ATOM     31  H   UNL     1      45.364   3.998  12.541  0.00  0.00    +0.000 HD
ATOM     32  H   UNL     1      46.092   2.532  12.428  0.00  0.00    +0.000 HD
ENDBRANCH  28  30
ENDBRANCH  23  25
ENDBRANCH  22  23
ENDBRANCH   4  22
TORSDOF 7
ENDMDL
MODEL 6
REMARK VINA RESULT:    -5.907      2.110      2.811
REMARK INTER + INTRA:          -9.074
REMARK INTER:                  -7.878
REMARK INTRA:                  -1.195
REMARK UNBOUND:                -0.922
REMARK  Name = 
REMARK  8 active torsions:
REMARK  status: ('A' for Active; 'I' for Inactive)
REMARK    1  A    between atoms: C_1  and  C_2
REMARK    2  A    between atoms: C_2  and  N_3
REMARK    3  A    between atoms: C_2  and  C_18
REMARK    4  A    between atoms: N_3  and  C_4
REMARK    5  A    between atoms: C_7  and  C_8
REMARK    6  A    between atoms: C_8  and  N_9
REMARK    7  A    between atoms: N_9  and  C_10
REMARK    8  A    between atoms: C_13  and  N_14
REMARK                            x       y       z     vdW  Elec       q    Type
REMARK                         _______ _______ _______ _____ _____    ______ ____
ROOT
ATOM      1  C   UNL     1      48.842   7.239  13.639  0.00  0.00    +0.000 A 
ATOM      2  C   UNL     1      48.506   8.284  12.777  0.00  0.00    +0.000 A 
ATOM      3  C   UNL     1      47.263   8.313  12.143  0.00  0.00    +0.000 A 
ATOM      4  C   UNL     1      46.390   7.246  12.324  0.00  0.00    +0.000 A 
ATOM      5  N   UNL     1      46.708   6.179  13.101  0.00  0.00    +0.000 NA
ATOM      6  C   UNL     1      47.907   6.208  13.736  0.00  0.00    +0.000 A 
ENDROOT
BRANCH   1   7
ATOM      7  N   UNL     1      50.127   7.235  14.209  0.00  0.00    +0.000 N 
ATOM      8  H   UNL     1      50.635   6.442  13.816  0.00  0.00    +0.000 HD
BRANCH   7  10
ATOM      9  C   UNL     1      50.097   8.644  16.241  0.00  0.00    +0.000 C 
ATOM     10  C   UNL     1      50.267   7.217  15.682  0.00  0.00    +0.000 C 
BRANCH  10  11
ATOM     11  C   UNL     1      51.602   6.673  16.177  0.00  0.00    +0.000 A 
ATOM     12  C   UNL     1      52.829   7.285  15.999  0.00  0.00    +0.000 A 
ATOM     13  S   UNL     1      54.101   6.506  16.833  0.00  0.00    +0.000 S 
ATOM     14  C   UNL     1      53.043   5.340  17.481  0.00  0.00    +0.000 A 
ATOM     15  N   UNL     1      53.464   4.412  18.376  0.00  0.00    +0.000 NA
ATOM     16  C   UNL     1      52.535   3.624  18.811  0.00  0.00    +0.000 A 
ATOM     17  N   UNL     1      51.229   3.654  18.393  0.00  0.00    +0.000 N 
ATOM     18  C   UNL     1      50.763   4.536  17.441  0.00  0.00    +0.000 A 
ATOM     19  O   UNL     1      49.614   4.490  17.025  0.00  0.00    +0.000 OA
ATOM     20  C   UNL     1      51.757   5.494  16.998  0.00  0.00    +0.000 A 
ATOM     21  H   UNL     1      50.556   2.986  18.743  0.00  0.00    +0.000 HD
ENDBRANCH  10  11
ENDBRANCH   7  10
ENDBRANCH   1   7
BRANCH   4  22
ATOM     22  C   UNL     1      45.071   7.221  11.574  0.00  0.00    +0.000 C 
BRANCH  22  23
ATOM     23  N   UNL     1      43.998   6.428  12.197  0.00  0.00    +0.000 NA
ATOM     24  H   UNL     1      43.262   7.097  12.445  0.00  0.00    +0.000 HD
BRANCH  23  25
ATOM     25  C   UNL     1      43.390   5.437  11.292  0.00  0.00    +0.000 C 
ATOM     26  C   UNL     1      44.373   4.875  10.257  0.00  0.00    +0.000 C 
ATOM     27  C   UNL     1      44.901   3.548  10.807  0.00  0.00    +0.000 C 
ATOM     28  C   UNL     1      44.235   3.329  12.168  0.00  0.00    +0.000 C 
ATOM     29  C   UNL     1      42.970   4.184  12.077  0.00  0.00    +0.000 C 
BRANCH  28  30
ATOM     30  N   UNL     1      45.097   3.765  13.266  0.00  0.00    +0.000 NA
ATOM     31  H   UNL     1      45.676   2.967  13.553  0.00  0.00    +0.000 HD
ATOM     32  H   UNL     1      44.534   4.025  14.072  0.00  0.00    +0.000 HD
ENDBRANCH  28  30
ENDBRANCH  23  25
ENDBRANCH  22  23
ENDBRANCH   4  22
TORSDOF 7
ENDMDL
MODEL 7
REMARK VINA RESULT:    -5.829      3.492      4.673
REMARK INTER + INTRA:          -8.967
REMARK INTER:                  -7.551
REMARK INTRA:                  -1.415
REMARK UNBOUND:                -0.922
REMARK  Name = 
REMARK  8 active torsions:
REMARK  status: ('A' for Active; 'I' for Inactive)
REMARK    1  A    between atoms: C_1  and  C_2
REMARK    2  A    between atoms: C_2  and  N_3
REMARK    3  A    between atoms: C_2  and  C_18
REMARK    4  A    between atoms: N_3  and  C_4
REMARK    5  A    between atoms: C_7  and  C_8
REMARK    6  A    between atoms: C_8  and  N_9
REMARK    7  A    between atoms: N_9  and  C_10
REMARK    8  A    between atoms: C_13  and  N_14
REMARK                            x       y       z     vdW  Elec       q    Type
REMARK                         _______ _______ _______ _____ _____    ______ ____
ROOT
ATOM      1  C   UNL     1      48.818   7.240  13.450  0.00  0.00    +0.000 A 
ATOM      2  C   UNL     1      48.386   8.299  12.649  0.00  0.00    +0.000 A 
ATOM      3  C   UNL     1      47.086   8.325  12.143  0.00  0.00    +0.000 A 
ATOM      4  C   UNL     1      46.246   7.243  12.388  0.00  0.00    +0.000 A 
ATOM      5  N   UNL     1      46.652   6.166  13.105  0.00  0.00    +0.000 NA
ATOM      6  C   UNL     1      47.908   6.196  13.618  0.00  0.00    +0.000 A 
ENDROOT
BRANCH   1   7
ATOM      7  N   UNL     1      50.154   7.240  13.888  0.00  0.00    +0.000 N 
ATOM      8  H   UNL     1      50.474   6.271  13.898  0.00  0.00    +0.000 HD
BRANCH   7  10
ATOM      9  C   UNL     1      52.025   7.994  15.318  0.00  0.00    +0.000 C 
ATOM     10  C   UNL     1      50.493   7.875  15.181  0.00  0.00    +0.000 C 
BRANCH  10  11
ATOM     11  C   UNL     1      49.967   7.129  16.401  0.00  0.00    +0.000 A 
ATOM     12  C   UNL     1      50.419   5.899  16.841  0.00  0.00    +0.000 A 
ATOM     13  S   UNL     1      49.746   5.427  18.340  0.00  0.00    +0.000 S 
ATOM     14  C   UNL     1      48.849   6.869  18.460  0.00  0.00    +0.000 A 
ATOM     15  N   UNL     1      48.116   7.166  19.562  0.00  0.00    +0.000 NA
ATOM     16  C   UNL     1      47.527   8.316  19.522  0.00  0.00    +0.000 A 
ATOM     17  N   UNL     1      47.569   9.177  18.455  0.00  0.00    +0.000 N 
ATOM     18  C   UNL     1      48.248   8.897  17.289  0.00  0.00    +0.000 A 
ATOM     19  O   UNL     1      48.205   9.643  16.321  0.00  0.00    +0.000 OA
ATOM     20  C   UNL     1      48.996   7.656  17.333  0.00  0.00    +0.000 A 
ATOM     21  H   UNL     1      47.056  10.047  18.470  0.00  0.00    +0.000 HD
ENDBRANCH  10  11
ENDBRANCH   7  10
ENDBRANCH   1   7
BRANCH   4  22
ATOM     22  C   UNL     1      44.860   7.218  11.773  0.00  0.00    +0.000 C 
BRANCH  22  23
ATOM     23  N   UNL     1      43.919   6.248  12.360  0.00  0.00    +0.000 NA
ATOM     24  H   UNL     1      43.146   6.802  12.741  0.00  0.00    +0.000 HD
BRANCH  23  25
ATOM     25  C   UNL     1      43.338   5.316  11.379  0.00  0.00    +0.000 C 
ATOM     26  C   UNL     1      44.299   4.957  10.238  0.00  0.00    +0.000 C 
ATOM     27  C   UNL     1      44.961   3.627  10.603  0.00  0.00    +0.000 C 
ATOM     28  C   UNL     1      44.397   3.203  11.962  0.00  0.00    +0.000 C 
ATOM     29  C   UNL     1      43.066   3.952  12.034  0.00  0.00    +0.000 C 
BRANCH  28  30
ATOM     30  N   UNL     1      45.286   3.586  13.058  0.00  0.00    +0.000 NA
ATOM     31  H   UNL     1      45.117   4.575  13.275  0.00  0.00    +0.000 HD
ATOM     32  H   UNL     1      46.257   3.512  12.764  0.00  0.00    +0.000 HD
ENDBRANCH  28  30
ENDBRANCH  23  25
ENDBRANCH  22  23
ENDBRANCH   4  22
TORSDOF 7
ENDMDL
MODEL 8
REMARK VINA RESULT:    -5.544      1.713      2.070
REMARK INTER + INTRA:          -8.574
REMARK INTER:                  -7.693
REMARK INTRA:                  -0.881
REMARK UNBOUND:                -0.922
REMARK  Name = 
REMARK  8 active torsions:
REMARK  status: ('A' for Active; 'I' for Inactive)
REMARK    1  A    between atoms: C_1  and  C_2
REMARK    2  A    between atoms: C_2  and  N_3
REMARK    3  A    between atoms: C_2  and  C_18
REMARK    4  A    between atoms: N_3  and  C_4
REMARK    5  A    between atoms: C_7  and  C_8
REMARK    6  A    between atoms: C_8  and  N_9
REMARK    7  A    between atoms: N_9  and  C_10
REMARK    8  A    between atoms: C_13  and  N_14
REMARK                            x       y       z     vdW  Elec       q    Type
REMARK                         _______ _______ _______ _____ _____    ______ ____
ROOT
ATOM      1  C   UNL     1      48.703   5.528  17.115  0.00  0.00    +0.000 A 
ATOM      2  C   UNL     1      47.864   4.413  17.120  0.00  0.00    +0.000 A 
ATOM      3  C   UNL     1      47.227   3.995  15.950  0.00  0.00    +0.000 A 
ATOM      4  C   UNL     1      47.383   4.750  14.793  0.00  0.00    +0.000 A 
ATOM      5  N   UNL     1      48.135   5.878  14.765  0.00  0.00    +0.000 NA
ATOM      6  C   UNL     1      48.775   6.228  15.910  0.00  0.00    +0.000 A 
ENDROOT
BRANCH   1   7
ATOM      7  N   UNL     1      49.276   5.934  18.333  0.00  0.00    +0.000 N 
ATOM      8  H   UNL     1      49.562   6.908  18.228  0.00  0.00    +0.000 HD
BRANCH   7  10
ATOM      9  C   UNL     1      50.507   5.423  20.415  0.00  0.00    +0.000 C 
ATOM     10  C   UNL     1      50.401   5.158  18.900  0.00  0.00    +0.000 C 
BRANCH  10  11
ATOM     11  C   UNL     1      51.754   5.467  18.271  0.00  0.00    +0.000 A 
ATOM     12  C   UNL     1      52.287   6.732  18.104  0.00  0.00    +0.000 A 
ATOM     13  S   UNL     1      53.898   6.718  17.534  0.00  0.00    +0.000 S 
ATOM     14  C   UNL     1      53.942   5.016  17.518  0.00  0.00    +0.000 A 
ATOM     15  N   UNL     1      55.075   4.333  17.221  0.00  0.00    +0.000 NA
ATOM     16  C   UNL     1      54.962   3.047  17.294  0.00  0.00    +0.000 A 
ATOM     17  N   UNL     1      53.801   2.383  17.594  0.00  0.00    +0.000 N 
ATOM     18  C   UNL     1      52.608   3.026  17.845  0.00  0.00    +0.000 A 
ATOM     19  O   UNL     1      51.568   2.411  18.030  0.00  0.00    +0.000 OA
ATOM     20  C   UNL     1      52.718   4.472  17.861  0.00  0.00    +0.000 A 
ATOM     21  H   UNL     1      53.767   1.372  17.599  0.00  0.00    +0.000 HD
ENDBRANCH  10  11
ENDBRANCH   7  10
ENDBRANCH   1   7
BRANCH   4  22
ATOM     22  C   UNL     1      46.629   4.358  13.536  0.00  0.00    +0.000 C 
BRANCH  22  23
ATOM     23  N   UNL     1      45.163   4.302  13.662  0.00  0.00    +0.000 NA
ATOM     24  H   UNL     1      44.955   4.548  14.636  0.00  0.00    +0.000 HD
BRANCH  23  25
ATOM     25  C   UNL     1      44.456   5.275  12.813  0.00  0.00    +0.000 C 
ATOM     26  C   UNL     1      45.031   5.373  11.393  0.00  0.00    +0.000 C 
ATOM     27  C   UNL     1      44.176   4.478  10.495  0.00  0.00    +0.000 C 
ATOM     28  C   UNL     1      43.101   3.845  11.383  0.00  0.00    +0.000 C 
ATOM     29  C   UNL     1      43.011   4.814  12.562  0.00  0.00    +0.000 C 
BRANCH  28  30
ATOM     30  N   UNL     1      43.484   2.504  11.821  0.00  0.00    +0.000 NA
ATOM     31  H   UNL     1      42.626   1.965  11.985  0.00  0.00    +0.000 HD
ATOM     32  H   UNL     1      43.976   2.552  12.710  0.00  0.00    +0.000 HD
ENDBRANCH  28  30
ENDBRANCH  23  25
ENDBRANCH  22  23
ENDBRANCH   4  22
TORSDOF 7
ENDMDL
