MODEL 1
REMARK VINA RESULT:    -7.537      0.000      0.000
REMARK INTER + INTRA:         -10.894
REMARK INTER:                 -10.621
REMARK INTRA:                  -0.273
REMARK UNBOUND:                -0.273
REMARK  Name = 
REMARK  9 active torsions:
REMARK  status: ('A' for Active; 'I' for Inactive)
REMARK    1  A    between atoms: C_1  and  N_2
REMARK    2  A    between atoms: N_2  and  C_3
REMARK    3  A    between atoms: N_2  and  C_4
REMARK    4  A    between atoms: C_4  and  C_5
REMARK    5  A    between atoms: C_5  and  O_6
REMARK    6  A    between atoms: O_6  and  C_7
REMARK    7  A    between atoms: C_9  and  C_10
REMARK    8  A    between atoms: C_10  and  N_11
REMARK    9  A    between atoms: C_15  and  C_16
REMARK                            x       y       z     vdW  Elec       q    Type
REMARK                         _______ _______ _______ _____ _____    ______ ____
ROOT
ATOM      1  C   UNL     1      43.719   5.170  10.599  0.00  0.00    +0.000 C 
ENDROOT
BRANCH   1   2
ATOM      2  N   UNL     1      44.031   3.754  10.426  0.00  0.00    +0.000 N 
ATOM      3  C   UNL     1      44.918   3.433   9.386  0.00  0.00    +0.000 A 
ATOM      4  C   UNL     1      45.258   2.091   9.151  0.00  0.00    +0.000 A 
ATOM      5  N   UNL     1      46.088   1.666   8.159  0.00  0.00    +0.000 NA
ATOM      6  C   UNL     1      46.603   2.669   7.401  0.00  0.00    +0.000 A 
ATOM      7  C   UNL     1      46.304   4.000   7.629  0.00  0.00    +0.000 A 
ATOM      8  N   UNL     1      45.462   4.400   8.617  0.00  0.00    +0.000 NA
ATOM      9  H   UNL     1      43.181   3.208  10.307  0.00  0.00    +0.000 HD
BRANCH   6  10
ATOM     10  C   UNL     1      47.499   2.306   6.268  0.00  0.00    +0.000 C 
ATOM     11  N   UNL     1      47.365   3.051   5.130  0.00  0.00    +0.000 N 
ATOM     12  O   UNL     1      48.321   1.404   6.354  0.00  0.00    +0.000 OA
ATOM     13  H   UNL     1      46.684   3.800   5.083  0.00  0.00    +0.000 HD
ATOM     14  H   UNL     1      47.964   2.857   4.340  0.00  0.00    +0.000 HD
ENDBRANCH   6  10
ENDBRANCH   1   2
BRANCH   1  17
ATOM     15  C   UNL     1      46.594   5.793  12.998  0.00  0.00    +0.000 A 
ATOM     16  C   UNL     1      45.723   5.116  12.159  0.00  0.00    +0.000 A 
ATOM     17  C   UNL     1      44.739   5.849  11.480  0.00  0.00    +0.000 A 
ATOM     18  C   UNL     1      44.717   7.234  11.646  0.00  0.00    +0.000 A 
ATOM     19  C   UNL     1      45.654   7.825  12.475  0.00  0.00    +0.000 A 
ATOM     20  N   UNL     1      46.583   7.134  13.162  0.00  0.00    +0.000 NA
BRANCH  15  21
ATOM     21  O   UNL     1      47.525   5.038  13.694  0.00  0.00    +0.000 OA
BRANCH  21  22
ATOM     22  C   UNL     1      46.925   4.392  14.828  0.00  0.00    +0.000 C 
BRANCH  22  23
ATOM     23  C   UNL     1      47.674   4.772  16.116  0.00  0.00    +0.000 C 
BRANCH  23  25
ATOM     24  C   UNL     1      47.500   2.917  17.653  0.00  0.00    +0.000 C 
ATOM     25  N   UNL     1      47.037   4.274  17.356  0.00  0.00    +0.000 NA
ATOM     26  C   UNL     1      47.293   5.146  18.505  0.00  0.00    +0.000 C 
ENDBRANCH  23  25
ENDBRANCH  22  23
ENDBRANCH  21  22
ENDBRANCH  15  21
ENDBRANCH   1  17
TORSDOF 7
ENDMDL
MODEL 2
REMARK VINA RESULT:    -7.120      2.549      8.584
REMARK INTER + INTRA:         -10.306
REMARK INTER:                  -9.874
REMARK INTRA:                  -0.433
REMARK UNBOUND:                -0.273
REMARK  Name = 
REMARK  9 active torsions:
REMARK  status: ('A' for Active; 'I' for Inactive)
REMARK    1  A    between atoms: C_1  and  N_2
REMARK    2  A    between atoms: N_2  and  C_3
REMARK    3  A    between atoms: N_2  and  C_4
REMARK    4  A    between atoms: C_4  and  C_5
REMARK    5  A    between atoms: C_5  and  O_6
REMARK    6  A    between atoms: O_6  and  C_7
REMARK    7  A    between atoms: C_9  and  C_10
REMARK    8  A    between atoms: C_10  and  N_11
REMARK    9  A    between atoms: C_15  and  C_16
REMARK                            x       y       z     vdW  Elec       q    Type
REMARK                         _______ _______ _______ _____ _____    ______ ____
ROOT
ATOM      1  C   UNL     1      46.606   4.742  13.675  0.00  0.00    +0.000 C 
ENDROOT
BRANCH   1   2
ATOM      2  N   UNL     1      46.717   3.768  14.757  0.00  0.00    +0.000 N 
ATOM      3  C   UNL     1      47.560   4.115  15.825  0.00  0.00    +0.000 A 
ATOM      4  C   UNL     1      47.725   3.225  16.899  0.00  0.00    +0.000 A 
ATOM      5  N   UNL     1      48.532   3.449  17.971  0.00  0.00    +0.000 NA
ATOM      6  C   UNL     1      49.171   4.649  17.943  0.00  0.00    +0.000 A 
ATOM      7  C   UNL     1      49.004   5.553  16.910  0.00  0.00    +0.000 A 
ATOM      8  N   UNL     1      48.203   5.302  15.842  0.00  0.00    +0.000 NA
ATOM      9  H   UNL     1      47.005   2.861  14.399  0.00  0.00    +0.000 HD
BRANCH   6  10
ATOM     10  C   UNL     1      50.102   4.977  19.057  0.00  0.00    +0.000 C 
ATOM     11  N   UNL     1      51.067   4.047  19.331  0.00  0.00    +0.000 N 
ATOM     12  O   UNL     1      50.023   6.025  19.684  0.00  0.00    +0.000 OA
ATOM     13  H   UNL     1      51.120   3.189  18.794  0.00  0.00    +0.000 HD
ATOM     14  H   UNL     1      51.736   4.232  20.064  0.00  0.00    +0.000 HD
ENDBRANCH   6  10
ENDBRANCH   1   2
BRANCH   1  17
ATOM     15  C   UNL     1      43.962   3.483  11.260  0.00  0.00    +0.000 A 
ATOM     16  C   UNL     1      45.155   3.552  11.965  0.00  0.00    +0.000 A 
ATOM     17  C   UNL     1      45.313   4.570  12.916  0.00  0.00    +0.000 A 
ATOM     18  C   UNL     1      44.243   5.436  13.141  0.00  0.00    +0.000 A 
ATOM     19  C   UNL     1      43.078   5.263  12.415  0.00  0.00    +0.000 A 
ATOM     20  N   UNL     1      42.920   4.314  11.473  0.00  0.00    +0.000 NA
BRANCH  15  21
ATOM     21  O   UNL     1      43.851   2.498  10.292  0.00  0.00    +0.000 OA
BRANCH  21  22
ATOM     22  C   UNL     1      44.527   2.880   9.082  0.00  0.00    +0.000 C 
BRANCH  22  23
ATOM     23  C   UNL     1      45.539   1.797   8.672  0.00  0.00    +0.000 C 
BRANCH  23  25
ATOM     24  C   UNL     1      47.309   1.182   7.151  0.00  0.00    +0.000 C 
ATOM     25  N   UNL     1      46.652   2.297   7.836  0.00  0.00    +0.000 NA
ATOM     26  C   UNL     1      46.211   3.289   6.852  0.00  0.00    +0.000 C 
ENDBRANCH  23  25
ENDBRANCH  22  23
ENDBRANCH  21  22
ENDBRANCH  15  21
ENDBRANCH   1  17
TORSDOF 7
ENDMDL
MODEL 3
REMARK VINA RESULT:    -6.763      2.069      3.009
REMARK INTER + INTRA:          -9.803
REMARK INTER:                  -9.251
REMARK INTRA:                  -0.552
REMARK UNBOUND:                -0.273
REMARK  Name = 
REMARK  9 active torsions:
REMARK  status: ('A' for Active; 'I' for Inactive)
REMARK    1  A    between atoms: C_1  and  N_2
REMARK    2  A    between atoms: N_2  and  C_3
REMARK    3  A    between atoms: N_2  and  C_4
REMARK    4  A    between atoms: C_4  and  C_5
REMARK    5  A    between atoms: C_5  and  O_6
REMARK    6  A    between atoms: O_6  and  C_7
REMARK    7  A    between atoms: C_9  and  C_10
REMARK    8  A    between atoms: C_10  and  N_11
REMARK    9  A    between atoms: C_15  and  C_16
REMARK                            x       y       z     vdW  Elec       q    Type
REMARK                         _______ _______ _______ _____ _____    ______ ____
ROOT
ATOM      1  C   UNL     1      43.498   4.721  10.866  0.00  0.00    +0.000 C 
ENDROOT
BRANCH   1   2
ATOM      2  N   UNL     1      43.801   3.332  10.535  0.00  0.00    +0.000 N 
ATOM      3  C   UNL     1      44.725   3.124   9.499  0.00  0.00    +0.000 A 
ATOM      4  C   UNL     1      45.059   1.815   9.117  0.00  0.00    +0.000 A 
ATOM      5  N   UNL     1      45.923   1.500   8.114  0.00  0.00    +0.000 NA
ATOM      6  C   UNL     1      46.481   2.578   7.503  0.00  0.00    +0.000 A 
ATOM      7  C   UNL     1      46.187   3.876   7.878  0.00  0.00    +0.000 A 
ATOM      8  N   UNL     1      45.310   4.168   8.874  0.00  0.00    +0.000 NA
ATOM      9  H   UNL     1      42.951   2.818  10.318  0.00  0.00    +0.000 HD
BRANCH   6  10
ATOM     10  C   UNL     1      47.417   2.340   6.370  0.00  0.00    +0.000 C 
ATOM     11  N   UNL     1      47.288   3.173   5.294  0.00  0.00    +0.000 N 
ATOM     12  O   UNL     1      48.267   1.460   6.403  0.00  0.00    +0.000 OA
ATOM     13  H   UNL     1      46.583   3.901   5.290  0.00  0.00    +0.000 HD
ATOM     14  H   UNL     1      47.913   3.065   4.508  0.00  0.00    +0.000 HD
ENDBRANCH   6  10
ENDBRANCH   1   2
BRANCH   1  17
ATOM     15  C   UNL     1      46.089   7.060  12.358  0.00  0.00    +0.000 A 
ATOM     16  C   UNL     1      45.075   6.597  11.534  0.00  0.00    +0.000 A 
ATOM     17  C   UNL     1      44.559   5.312  11.762  0.00  0.00    +0.000 A 
ATOM     18  C   UNL     1      45.060   4.582  12.840  0.00  0.00    +0.000 A 
ATOM     19  C   UNL     1      46.046   5.145  13.631  0.00  0.00    +0.000 A 
ATOM     20  N   UNL     1      46.577   6.362  13.406  0.00  0.00    +0.000 NA
BRANCH  15  21
ATOM     21  O   UNL     1      46.614   8.312  12.080  0.00  0.00    +0.000 OA
BRANCH  21  22
ATOM     22  C   UNL     1      46.969   9.005  13.288  0.00  0.00    +0.000 C 
BRANCH  22  23
ATOM     23  C   UNL     1      48.408   9.540  13.192  0.00  0.00    +0.000 C 
BRANCH  23  25
ATOM     24  C   UNL     1      48.604   8.589  15.402  0.00  0.00    +0.000 C 
ATOM     25  N   UNL     1      49.335   8.961  14.190  0.00  0.00    +0.000 NA
ATOM     26  C   UNL     1      50.058   7.797  13.672  0.00  0.00    +0.000 C 
ENDBRANCH  23  25
ENDBRANCH  22  23
ENDBRANCH  21  22
ENDBRANCH  15  21
ENDBRANCH   1  17
TORSDOF 7
ENDMDL
MODEL 4
REMARK VINA RESULT:    -6.277      3.200      7.444
REMARK INTER + INTRA:          -9.118
REMARK INTER:                  -8.486
REMARK INTRA:                  -0.632
REMARK UNBOUND:                -0.273
REMARK  Name = 
REMARK  9 active torsions:
REMARK  status: ('A' for Active; 'I' for Inactive)
REMARK    1  A    between atoms: C_1  and  N_2
REMARK    2  A    between atoms: N_2  and  C_3
REMARK    3  A    between atoms: N_2  and  C_4
REMARK    4  A    between atoms: C_4  and  C_5
REMARK    5  A    between atoms: C_5  and  O_6
REMARK    6  A    between atoms: O_6  and  C_7
REMARK    7  A    between atoms: C_9  and  C_10
REMARK    8  A    between atoms: C_10  and  N_11
REMARK    9  A    between atoms: C_15  and  C_16
REMARK                            x       y       z     vdW  Elec       q    Type
REMARK                         _______ _______ _______ _____ _____    ______ ____
ROOT
ATOM      1  C   UNL     1      45.055   7.079  11.346  0.00  0.00    +0.000 C 
ENDROOT
BRANCH   1   2
ATOM      2  N   UNL     1      45.484   7.760  12.564  0.00  0.00    +0.000 N 
ATOM      3  C   UNL     1      46.870   7.871  12.761  0.00  0.00    +0.000 A 
ATOM      4  C   UNL     1      47.359   8.505  13.915  0.00  0.00    +0.000 A 
ATOM      5  N   UNL     1      48.679   8.647  14.217  0.00  0.00    +0.000 NA
ATOM      6  C   UNL     1      49.520   8.138  13.278  0.00  0.00    +0.000 A 
ATOM      7  C   UNL     1      49.063   7.533  12.123  0.00  0.00    +0.000 A 
ATOM      8  N   UNL     1      47.739   7.390  11.848  0.00  0.00    +0.000 NA
ATOM      9  H   UNL     1      45.074   7.325  13.386  0.00  0.00    +0.000 HD
BRANCH   6  10
ATOM     10  C   UNL     1      50.986   8.216  13.530  0.00  0.00    +0.000 C 
ATOM     11  N   UNL     1      51.435   7.611  14.671  0.00  0.00    +0.000 N 
ATOM     12  O   UNL     1      51.750   8.775  12.755  0.00  0.00    +0.000 OA
ATOM     13  H   UNL     1      50.786   7.147  15.296  0.00  0.00    +0.000 HD
ATOM     14  H   UNL     1      52.424   7.618  14.877  0.00  0.00    +0.000 HD
ENDBRANCH   6  10
ENDBRANCH   1   2
BRANCH   1  17
ATOM     15  C   UNL     1      43.972   3.455  11.029  0.00  0.00    +0.000 A 
ATOM     16  C   UNL     1      44.550   4.674  10.707  0.00  0.00    +0.000 A 
ATOM     17  C   UNL     1      44.501   5.710  11.652  0.00  0.00    +0.000 A 
ATOM     18  C   UNL     1      43.914   5.446  12.890  0.00  0.00    +0.000 A 
ATOM     19  C   UNL     1      43.399   4.185  13.133  0.00  0.00    +0.000 A 
ATOM     20  N   UNL     1      43.406   3.190  12.226  0.00  0.00    +0.000 NA
BRANCH  15  21
ATOM     21  O   UNL     1      43.992   2.465  10.059  0.00  0.00    +0.000 OA
BRANCH  21  22
ATOM     22  C   UNL     1      44.638   2.926   8.861  0.00  0.00    +0.000 C 
BRANCH  22  23
ATOM     23  C   UNL     1      45.697   1.910   8.402  0.00  0.00    +0.000 C 
BRANCH  23  25
ATOM     24  C   UNL     1      46.683   3.779   7.235  0.00  0.00    +0.000 C 
ATOM     25  N   UNL     1      46.461   2.333   7.207  0.00  0.00    +0.000 NA
ATOM     26  C   UNL     1      47.746   1.639   7.091  0.00  0.00    +0.000 C 
ENDBRANCH  23  25
ENDBRANCH  22  23
ENDBRANCH  21  22
ENDBRANCH  15  21
ENDBRANCH   1  17
TORSDOF 7
ENDMDL
MODEL 5
REMARK VINA RESULT:    -6.268      2.830      8.609
REMARK INTER + INTRA:          -9.105
REMARK INTER:                  -8.465
REMARK INTRA:                  -0.640
REMARK UNBOUND:                -0.273
REMARK  Name = 
REMARK  9 active torsions:
REMARK  status: ('A' for Active; 'I' for Inactive)
REMARK    1  A    between atoms: C_1  and  N_2
REMARK    2  A    between atoms: N_2  and  C_3
REMARK    3  A    between atoms: N_2  and  C_4
REMARK    4  A    between atoms: C_4  and  C_5
REMARK    5  A    between atoms: C_5  and  O_6
REMARK    6  A    between atoms: O_6  and  C_7
REMARK    7  A    between atoms: C_9  and  C_10
REMARK    8  A    between atoms: C_10  and  N_11
REMARK    9  A    between atoms: C_15  and  C_16
REMARK                            x       y       z     vdW  Elec       q    Type
REMARK                         _______ _______ _______ _____ _____    ______ ____
ROOT
ATOM      1  C   UNL     1      48.198   6.191  13.784  0.00  0.00    +0.000 C 
ENDROOT
BRANCH   1   2
ATOM      2  N   UNL     1      48.293   7.018  14.984  0.00  0.00    +0.000 N 
ATOM      3  C   UNL     1      48.518   6.341  16.193  0.00  0.00    +0.000 A 
ATOM      4  C   UNL     1      48.612   7.069  17.390  0.00  0.00    +0.000 A 
ATOM      5  N   UNL     1      48.804   6.513  18.618  0.00  0.00    +0.000 NA
ATOM      6  C   UNL     1      48.930   5.160  18.601  0.00  0.00    +0.000 A 
ATOM      7  C   UNL     1      48.867   4.425  17.432  0.00  0.00    +0.000 A 
ATOM      8  N   UNL     1      48.660   4.999  16.218  0.00  0.00    +0.000 NA
ATOM      9  H   UNL     1      47.467   7.602  15.087  0.00  0.00    +0.000 HD
BRANCH   6  10
ATOM     10  C   UNL     1      49.113   4.454  19.899  0.00  0.00    +0.000 C 
ATOM     11  N   UNL     1      48.389   3.307  20.069  0.00  0.00    +0.000 N 
ATOM     12  O   UNL     1      49.879   4.864  20.760  0.00  0.00    +0.000 OA
ATOM     13  H   UNL     1      47.766   2.980  19.340  0.00  0.00    +0.000 HD
ATOM     14  H   UNL     1      48.493   2.780  20.924  0.00  0.00    +0.000 HD
ENDBRANCH   6  10
ENDBRANCH   1   2
BRANCH   1  17
ATOM     15  C   UNL     1      44.695   4.992  12.948  0.00  0.00    +0.000 A 
ATOM     16  C   UNL     1      45.970   5.008  13.494  0.00  0.00    +0.000 A 
ATOM     17  C   UNL     1      46.780   6.132  13.273  0.00  0.00    +0.000 A 
ATOM     18  C   UNL     1      46.243   7.200  12.555  0.00  0.00    +0.000 A 
ATOM     19  C   UNL     1      44.946   7.107  12.083  0.00  0.00    +0.000 A 
ATOM     20  N   UNL     1      44.166   6.023  12.255  0.00  0.00    +0.000 NA
BRANCH  15  21
ATOM     21  O   UNL     1      43.935   3.849  13.140  0.00  0.00    +0.000 OA
BRANCH  21  22
ATOM     22  C   UNL     1      43.425   3.349  11.893  0.00  0.00    +0.000 C 
BRANCH  22  23
ATOM     23  C   UNL     1      44.568   2.764  11.047  0.00  0.00    +0.000 C 
BRANCH  23  25
ATOM     24  C   UNL     1      44.417   4.146   9.073  0.00  0.00    +0.000 C 
ATOM     25  N   UNL     1      44.310   2.781   9.589  0.00  0.00    +0.000 NA
ATOM     26  C   UNL     1      45.219   1.901   8.851  0.00  0.00    +0.000 C 
ENDBRANCH  23  25
ENDBRANCH  22  23
ENDBRANCH  21  22
ENDBRANCH  15  21
ENDBRANCH   1  17
TORSDOF 7
ENDMDL
MODEL 6
REMARK VINA RESULT:    -5.960      2.324      3.492
REMARK INTER + INTRA:          -8.672
REMARK INTER:                  -8.070
REMARK INTRA:                  -0.602
REMARK UNBOUND:                -0.273
REMARK  Name = 
REMARK  9 active torsions:
REMARK  status: ('A' for Active; 'I' for Inactive)
REMARK    1  A    between atoms: C_1  and  N_2
REMARK    2  A    between atoms: N_2  and  C_3
REMARK    3  A    between atoms: N_2  and  C_4
REMARK    4  A    between atoms: C_4  and  C_5
REMARK    5  A    between atoms: C_5  and  O_6
REMARK    6  A    between atoms: O_6  and  C_7
REMARK    7  A    between atoms: C_9  and  C_10
REMARK    8  A    between atoms: C_10  and  N_11
REMARK    9  A    between atoms: C_15  and  C_16
REMARK                            x       y       z     vdW  Elec       q    Type
REMARK                         _______ _______ _______ _____ _____    ______ ____
ROOT
ATOM      1  C   UNL     1      45.895   7.783  12.870  0.00  0.00    +0.000 C 
ENDROOT
BRANCH   1   2
ATOM      2  N   UNL     1      45.306   6.475  13.138  0.00  0.00    +0.000 N 
ATOM      3  C   UNL     1      45.186   5.607  12.041  0.00  0.00    +0.000 A 
ATOM      4  C   UNL     1      44.619   4.335  12.219  0.00  0.00    +0.000 A 
ATOM      5  N   UNL     1      44.435   3.426  11.223  0.00  0.00    +0.000 NA
ATOM      6  C   UNL     1      44.876   3.839  10.006  0.00  0.00    +0.000 A 
ATOM      7  C   UNL     1      45.461   5.076   9.811  0.00  0.00    +0.000 A 
ATOM      8  N   UNL     1      45.623   5.974  10.818  0.00  0.00    +0.000 NA
ATOM      9  H   UNL     1      44.393   6.572  13.575  0.00  0.00    +0.000 HD
BRANCH   6  10
ATOM     10  C   UNL     1      44.692   2.927   8.844  0.00  0.00    +0.000 C 
ATOM     11  N   UNL     1      44.588   1.595   9.132  0.00  0.00    +0.000 N 
ATOM     12  O   UNL     1      44.619   3.344   7.696  0.00  0.00    +0.000 OA
ATOM     13  H   UNL     1      44.642   1.271  10.091  0.00  0.00    +0.000 HD
ATOM     14  H   UNL     1      44.441   0.937   8.380  0.00  0.00    +0.000 HD
ENDBRANCH   6  10
ENDBRANCH   1   2
BRANCH   1  17
ATOM     15  C   UNL     1      49.371   7.200  14.279  0.00  0.00    +0.000 A 
ATOM     16  C   UNL     1      47.991   7.144  14.153  0.00  0.00    +0.000 A 
ATOM     17  C   UNL     1      47.394   7.752  13.039  0.00  0.00    +0.000 A 
ATOM     18  C   UNL     1      48.225   8.342  12.086  0.00  0.00    +0.000 A 
ATOM     19  C   UNL     1      49.594   8.313  12.280  0.00  0.00    +0.000 A 
ATOM     20  N   UNL     1      50.183   7.765  13.360  0.00  0.00    +0.000 NA
BRANCH  15  21
ATOM     21  O   UNL     1      49.930   6.633  15.414  0.00  0.00    +0.000 OA
BRANCH  21  22
ATOM     22  C   UNL     1      48.917   6.082  16.272  0.00  0.00    +0.000 C 
BRANCH  22  23
ATOM     23  C   UNL     1      49.528   5.025  17.206  0.00  0.00    +0.000 C 
BRANCH  23  25
ATOM     24  C   UNL     1      47.196   4.633  17.692  0.00  0.00    +0.000 C 
ATOM     25  N   UNL     1      48.544   4.067  17.759  0.00  0.00    +0.000 NA
ATOM     26  C   UNL     1      48.572   2.776  17.067  0.00  0.00    +0.000 C 
ENDBRANCH  23  25
ENDBRANCH  22  23
ENDBRANCH  21  22
ENDBRANCH  15  21
ENDBRANCH   1  17
TORSDOF 7
ENDMDL
MODEL 7
REMARK VINA RESULT:    -5.817      3.553      8.279
REMARK INTER + INTRA:          -8.470
REMARK INTER:                  -7.722
REMARK INTRA:                  -0.749
REMARK UNBOUND:                -0.273
REMARK  Name = 
REMARK  9 active torsions:
REMARK  status: ('A' for Active; 'I' for Inactive)
REMARK    1  A    between atoms: C_1  and  N_2
REMARK    2  A    between atoms: N_2  and  C_3
REMARK    3  A    between atoms: N_2  and  C_4
REMARK    4  A    between atoms: C_4  and  C_5
REMARK    5  A    between atoms: C_5  and  O_6
REMARK    6  A    between atoms: O_6  and  C_7
REMARK    7  A    between atoms: C_9  and  C_10
REMARK    8  A    between atoms: C_10  and  N_11
REMARK    9  A    between atoms: C_15  and  C_16
REMARK                            x       y       z     vdW  Elec       q    Type
REMARK                         _______ _______ _______ _____ _____    ______ ____
ROOT
ATOM      1  C   UNL     1      48.860   7.049  13.625  0.00  0.00    +0.000 C 
ENDROOT
BRANCH   1   2
ATOM      2  N   UNL     1      49.001   7.659  14.944  0.00  0.00    +0.000 N 
ATOM      3  C   UNL     1      48.948   6.788  16.044  0.00  0.00    +0.000 A 
ATOM      4  C   UNL     1      49.067   7.303  17.345  0.00  0.00    +0.000 A 
ATOM      5  N   UNL     1      49.006   6.554  18.480  0.00  0.00    +0.000 NA
ATOM      6  C   UNL     1      48.844   5.223  18.258  0.00  0.00    +0.000 A 
ATOM      7  C   UNL     1      48.751   4.689  16.986  0.00  0.00    +0.000 A 
ATOM      8  N   UNL     1      48.800   5.458  15.866  0.00  0.00    +0.000 NA
ATOM      9  H   UNL     1      48.311   8.393  15.078  0.00  0.00    +0.000 HD
BRANCH   6  10
ATOM     10  C   UNL     1      48.735   4.321  19.437  0.00  0.00    +0.000 C 
ATOM     11  N   UNL     1      48.238   3.070  19.197  0.00  0.00    +0.000 N 
ATOM     12  O   UNL     1      49.085   4.670  20.557  0.00  0.00    +0.000 OA
ATOM     13  H   UNL     1      47.962   2.798  18.260  0.00  0.00    +0.000 HD
ATOM     14  H   UNL     1      48.164   2.413  19.961  0.00  0.00    +0.000 HD
ENDBRANCH   6  10
ENDBRANCH   1   2
BRANCH   1  17
ATOM     15  C   UNL     1      45.769   6.987  11.423  0.00  0.00    +0.000 A 
ATOM     16  C   UNL     1      46.973   6.593  11.988  0.00  0.00    +0.000 A 
ATOM     17  C   UNL     1      47.525   7.383  13.008  0.00  0.00    +0.000 A 
ATOM     18  C   UNL     1      46.809   8.501  13.437  0.00  0.00    +0.000 A 
ATOM     19  C   UNL     1      45.596   8.791  12.838  0.00  0.00    +0.000 A 
ATOM     20  N   UNL     1      45.068   8.065  11.834  0.00  0.00    +0.000 NA
BRANCH  15  21
ATOM     21  O   UNL     1      45.272   6.216  10.385  0.00  0.00    +0.000 OA
BRANCH  21  22
ATOM     22  C   UNL     1      45.214   4.827  10.751  0.00  0.00    +0.000 C 
BRANCH  22  23
ATOM     23  C   UNL     1      43.802   4.270  10.506  0.00  0.00    +0.000 C 
BRANCH  23  25
ATOM     24  C   UNL     1      43.659   4.088  12.910  0.00  0.00    +0.000 C 
ATOM     25  N   UNL     1      42.907   4.353  11.682  0.00  0.00    +0.000 NA
ATOM     26  C   UNL     1      42.239   5.653  11.785  0.00  0.00    +0.000 C 
ENDBRANCH  23  25
ENDBRANCH  22  23
ENDBRANCH  21  22
ENDBRANCH  15  21
ENDBRANCH   1  17
TORSDOF 7
ENDMDL
MODEL 8
REMARK VINA RESULT:    -5.715      3.135      5.057
REMARK INTER + INTRA:          -8.326
REMARK INTER:                  -7.654
REMARK INTRA:                  -0.672
REMARK UNBOUND:                -0.273
REMARK  Name = 
REMARK  9 active torsions:
REMARK  status: ('A' for Active; 'I' for Inactive)
REMARK    1  A    between atoms: C_1  and  N_2
REMARK    2  A    between atoms: N_2  and  C_3
REMARK    3  A    between atoms: N_2  and  C_4
REMARK    4  A    between atoms: C_4  and  C_5
REMARK    5  A    between atoms: C_5  and  O_6
REMARK    6  A    between atoms: O_6  and  C_7
REMARK    7  A    between atoms: C_9  and  C_10
REMARK    8  A    between atoms: C_10  and  N_11
REMARK    9  A    between atoms: C_15  and  C_16
REMARK                            x       y       z     vdW  Elec       q    Type
REMARK                         _______ _______ _______ _____ _____    ______ ____
ROOT
ATOM      1  C   UNL     1      48.037   7.375  13.959  0.00  0.00    +0.000 C 
ENDROOT
BRANCH   1   2
ATOM      2  N   UNL     1      47.255   6.202  14.338  0.00  0.00    +0.000 N 
ATOM      3  C   UNL     1      46.472   5.620  13.328  0.00  0.00    +0.000 A 
ATOM      4  C   UNL     1      45.686   4.494  13.620  0.00  0.00    +0.000 A 
ATOM      5  N   UNL     1      44.874   3.867  12.726  0.00  0.00    +0.000 NA
ATOM      6  C   UNL     1      44.898   4.409  11.480  0.00  0.00    +0.000 A 
ATOM      7  C   UNL     1      45.684   5.501  11.162  0.00  0.00    +0.000 A 
ATOM      8  N   UNL     1      46.477   6.121  12.075  0.00  0.00    +0.000 NA
ATOM      9  H   UNL     1      46.658   6.407  15.134  0.00  0.00    +0.000 HD
BRANCH   6  10
ATOM     10  C   UNL     1      44.019   3.813  10.436  0.00  0.00    +0.000 C 
ATOM     11  N   UNL     1      43.927   4.502   9.258  0.00  0.00    +0.000 N 
ATOM     12  O   UNL     1      43.425   2.758  10.611  0.00  0.00    +0.000 OA
ATOM     13  H   UNL     1      44.436   5.370   9.131  0.00  0.00    +0.000 HD
ATOM     14  H   UNL     1      43.360   4.129   8.511  0.00  0.00    +0.000 HD
ENDBRANCH   6  10
ENDBRANCH   1   2
BRANCH   1  17
ATOM     15  C   UNL     1      50.885   6.701  16.376  0.00  0.00    +0.000 A 
ATOM     16  C   UNL     1      49.633   6.622  15.785  0.00  0.00    +0.000 A 
ATOM     17  C   UNL     1      49.393   7.365  14.620  0.00  0.00    +0.000 A 
ATOM     18  C   UNL     1      50.445   8.110  14.084  0.00  0.00    +0.000 A 
ATOM     19  C   UNL     1      51.671   8.094  14.724  0.00  0.00    +0.000 A 
ATOM     20  N   UNL     1      51.909   7.416  15.863  0.00  0.00    +0.000 NA
BRANCH  15  21
ATOM     21  O   UNL     1      51.079   5.995  17.553  0.00  0.00    +0.000 OA
BRANCH  21  22
ATOM     22  C   UNL     1      50.578   4.653  17.441  0.00  0.00    +0.000 C 
BRANCH  22  23
ATOM     23  C   UNL     1      49.613   4.347  18.599  0.00  0.00    +0.000 C 
BRANCH  23  25
ATOM     24  C   UNL     1      47.324   4.730  17.933  0.00  0.00    +0.000 C 
ATOM     25  N   UNL     1      48.346   3.710  18.176  0.00  0.00    +0.000 NA
ATOM     26  C   UNL     1      48.510   2.881  16.979  0.00  0.00    +0.000 C 
ENDBRANCH  23  25
ENDBRANCH  22  23
ENDBRANCH  21  22
ENDBRANCH  15  21
ENDBRANCH   1  17
TORSDOF 7
ENDMDL
MODEL 9
REMARK VINA RESULT:    -5.557      3.824      8.804
REMARK INTER + INTRA:          -8.103
REMARK INTER:                  -7.587
REMARK INTRA:                  -0.516
REMARK UNBOUND:                -0.273
REMARK  Name = 
REMARK  9 active torsions:
REMARK  status: ('A' for Active; 'I' for Inactive)
REMARK    1  A    between atoms: C_1  and  N_2
REMARK    2  A    between atoms: N_2  and  C_3
REMARK    3  A    between atoms: N_2  and  C_4
REMARK    4  A    between atoms: C_4  and  C_5
REMARK    5  A    between atoms: C_5  and  O_6
REMARK    6  A    between atoms: O_6  and  C_7
REMARK    7  A    between atoms: C_9  and  C_10
REMARK    8  A    between atoms: C_10  and  N_11
REMARK    9  A    between atoms: C_15  and  C_16
REMARK                            x       y       z     vdW  Elec       q    Type
REMARK                         _______ _______ _______ _____ _____    ______ ____
ROOT
ATOM      1  C   UNL     1      48.486   5.359  17.331  0.00  0.00    +0.000 C 
ENDROOT
BRANCH   1   2
ATOM      2  N   UNL     1      49.913   5.626  17.493  0.00  0.00    +0.000 N 
ATOM      3  C   UNL     1      50.753   4.505  17.571  0.00  0.00    +0.000 A 
ATOM      4  C   UNL     1      52.136   4.683  17.736  0.00  0.00    +0.000 A 
ATOM      5  N   UNL     1      53.038   3.669  17.846  0.00  0.00    +0.000 NA
ATOM      6  C   UNL     1      52.490   2.428  17.755  0.00  0.00    +0.000 A 
ATOM      7  C   UNL     1      51.135   2.228  17.566  0.00  0.00    +0.000 A 
ATOM      8  N   UNL     1      50.251   3.256  17.473  0.00  0.00    +0.000 NA
ATOM      9  H   UNL     1      50.080   6.214  18.305  0.00  0.00    +0.000 HD
BRANCH   6  10
ATOM     10  C   UNL     1      53.390   1.250  17.895  0.00  0.00    +0.000 C 
ATOM     11  N   UNL     1      52.789   0.023  17.849  0.00  0.00    +0.000 N 
ATOM     12  O   UNL     1      54.600   1.368  18.027  0.00  0.00    +0.000 OA
ATOM     13  H   UNL     1      51.785  -0.053  17.730  0.00  0.00    +0.000 HD
ATOM     14  H   UNL     1      53.358  -0.809  17.918  0.00  0.00    +0.000 HD
ENDBRANCH   6  10
ENDBRANCH   1   2
BRANCH   1  17
ATOM     15  C   UNL     1      46.848   4.680  13.975  0.00  0.00    +0.000 A 
ATOM     16  C   UNL     1      47.143   4.570  15.325  0.00  0.00    +0.000 A 
ATOM     17  C   UNL     1      48.072   5.461  15.884  0.00  0.00    +0.000 A 
ATOM     18  C   UNL     1      48.617   6.447  15.062  0.00  0.00    +0.000 A 
ATOM     19  C   UNL     1      48.230   6.502  13.735  0.00  0.00    +0.000 A 
ATOM     20  N   UNL     1      47.367   5.634  13.173  0.00  0.00    +0.000 NA
BRANCH  15  21
ATOM     21  O   UNL     1      45.965   3.757  13.439  0.00  0.00    +0.000 OA
BRANCH  21  22
ATOM     22  C   UNL     1      44.708   4.371  13.110  0.00  0.00    +0.000 C 
BRANCH  22  23
ATOM     23  C   UNL     1      43.785   3.357  12.413  0.00  0.00    +0.000 C 
BRANCH  23  25
ATOM     24  C   UNL     1      42.583   5.221  11.460  0.00  0.00    +0.000 C 
ATOM     25  N   UNL     1      43.117   3.882  11.202  0.00  0.00    +0.000 NA
ATOM     26  C   UNL     1      44.012   3.923  10.043  0.00  0.00    +0.000 C 
ENDBRANCH  23  25
ENDBRANCH  22  23
ENDBRANCH  21  22
ENDBRANCH  15  21
ENDBRANCH   1  17
TORSDOF 7
ENDMDL
