MODEL 1
REMARK VINA RESULT:    -7.716      0.000      0.000
REMARK INTER + INTRA:         -10.332
REMARK INTER:                  -9.746
REMARK INTRA:                  -0.586
REMARK UNBOUND:                -0.586
REMARK  Name = 
REMARK  5 active torsions:
REMARK  status: ('A' for Active; 'I' for Inactive)
REMARK    1  A    between atoms: N_1  and  C_2
REMARK    2  A    between atoms: C_2  and  C_3
REMARK    3  A    between atoms: C_3  and  C_4
REMARK    4  A    between atoms: C_7  and  C_8
REMARK    5  A    between atoms: C_8  and  N_9
REMARK                            x       y       z     vdW  Elec       q    Type
REMARK                         _______ _______ _______ _____ _____    ______ ____
ROOT
ATOM      1  C   UNL     1      45.987   2.375   8.104  0.00  0.00    +0.000 A 
ATOM      2  C   UNL     1      45.136   1.774   9.038  0.00  0.00    +0.000 A 
ATOM      3  C   UNL     1      44.319   2.559   9.860  0.00  0.00    +0.000 A 
ATOM      4  C   UNL     1      44.346   3.958   9.766  0.00  0.00    +0.000 A 
ATOM      5  C   UNL     1      45.191   4.557   8.829  0.00  0.00    +0.000 A 
ATOM      6  C   UNL     1      45.999   3.771   7.996  0.00  0.00    +0.000 A 
ENDROOT
BRANCH   1   7
ATOM      7  C   UNL     1      46.891   1.535   7.231  0.00  0.00    +0.000 C 
BRANCH   7   8
ATOM      8  C   UNL     1      48.135   2.293   6.754  0.00  0.00    +0.000 C 
BRANCH   8   9
ATOM      9  N   UNL     1      48.474   1.923   5.379  0.00  0.00    +0.000 NA
ATOM     10  H   UNL     1      49.196   1.205   5.389  0.00  0.00    +0.000 HD
ATOM     11  H   UNL     1      48.875   2.726   4.894  0.00  0.00    +0.000 HD
ENDBRANCH   8   9
ENDBRANCH   7   8
ENDBRANCH   1   7
BRANCH   4  12
ATOM     12  C   UNL     1      43.433   4.800  10.623  0.00  0.00    +0.000 C 
BRANCH  12  13
ATOM     13  N   UNL     1      44.104   5.749  11.505  0.00  0.00    +0.000 N 
ATOM     14  C   UNL     1      44.168   7.105  11.321  0.00  0.00    +0.000 A 
ATOM     15  N   UNL     1      45.200   7.634  11.940  0.00  0.00    +0.000 NA
ATOM     16  C   UNL     1      45.809   6.587  12.583  0.00  0.00    +0.000 A 
ATOM     17  C   UNL     1      47.005   6.563  13.318  0.00  0.00    +0.000 A 
ATOM     18  C   UNL     1      47.426   5.355  13.886  0.00  0.00    +0.000 A 
ATOM     19  C   UNL     1      46.650   4.201  13.760  0.00  0.00    +0.000 A 
ATOM     20  C   UNL     1      45.462   4.201  13.020  0.00  0.00    +0.000 A 
ATOM     21  C   UNL     1      45.089   5.406  12.411  0.00  0.00    +0.000 A 
ENDBRANCH  12  13
ENDBRANCH   4  12
TORSDOF 5
ENDMDL
MODEL 2
REMARK VINA RESULT:    -6.753      2.059      6.228
REMARK INTER + INTRA:          -9.116
REMARK INTER:                  -8.595
REMARK INTRA:                  -0.521
REMARK UNBOUND:                -0.586
REMARK  Name = 
REMARK  5 active torsions:
REMARK  status: ('A' for Active; 'I' for Inactive)
REMARK    1  A    between atoms: N_1  and  C_2
REMARK    2  A    between atoms: C_2  and  C_3
REMARK    3  A    between atoms: C_3  and  C_4
REMARK    4  A    between atoms: C_7  and  C_8
REMARK    5  A    between atoms: C_8  and  N_9
REMARK                            x       y       z     vdW  Elec       q    Type
REMARK                         _______ _______ _______ _____ _____    ______ ____
ROOT
ATOM      1  C   UNL     1      46.687   5.621  12.844  0.00  0.00    +0.000 A 
ATOM      2  C   UNL     1      46.592   6.401  11.686  0.00  0.00    +0.000 A 
ATOM      3  C   UNL     1      45.808   5.975  10.608  0.00  0.00    +0.000 A 
ATOM      4  C   UNL     1      45.111   4.759  10.668  0.00  0.00    +0.000 A 
ATOM      5  C   UNL     1      45.201   3.985  11.827  0.00  0.00    +0.000 A 
ATOM      6  C   UNL     1      45.975   4.417  12.912  0.00  0.00    +0.000 A 
ENDROOT
BRANCH   1   7
ATOM      7  C   UNL     1      47.552   6.061  14.002  0.00  0.00    +0.000 C 
BRANCH   7   8
ATOM      8  C   UNL     1      48.392   7.303  13.682  0.00  0.00    +0.000 C 
BRANCH   8   9
ATOM      9  N   UNL     1      49.809   6.956  13.561  0.00  0.00    +0.000 NA
ATOM     10  H   UNL     1      50.010   6.680  12.601  0.00  0.00    +0.000 HD
ATOM     11  H   UNL     1      50.017   6.144  14.141  0.00  0.00    +0.000 HD
ENDBRANCH   8   9
ENDBRANCH   7   8
ENDBRANCH   1   7
BRANCH   4  12
ATOM     12  C   UNL     1      44.231   4.323   9.522  0.00  0.00    +0.000 C 
BRANCH  12  13
ATOM     13  N   UNL     1      44.649   3.101   8.843  0.00  0.00    +0.000 N 
ATOM     14  C   UNL     1      44.357   1.824   9.244  0.00  0.00    +0.000 A 
ATOM     15  N   UNL     1      45.227   0.955   8.780  0.00  0.00    +0.000 NA
ATOM     16  C   UNL     1      46.097   1.690   8.017  0.00  0.00    +0.000 A 
ATOM     17  C   UNL     1      47.271   1.287   7.362  0.00  0.00    +0.000 A 
ATOM     18  C   UNL     1      48.001   2.236   6.635  0.00  0.00    +0.000 A 
ATOM     19  C   UNL     1      47.548   3.552   6.529  0.00  0.00    +0.000 A 
ATOM     20  C   UNL     1      46.388   3.977   7.186  0.00  0.00    +0.000 A 
ATOM     21  C   UNL     1      45.705   3.026   7.956  0.00  0.00    +0.000 A 
ENDBRANCH  12  13
ENDBRANCH   4  12
TORSDOF 5
ENDMDL
MODEL 3
REMARK VINA RESULT:    -6.701      1.605      2.599
REMARK INTER + INTRA:          -9.049
REMARK INTER:                  -8.616
REMARK INTRA:                  -0.433
REMARK UNBOUND:                -0.586
REMARK  Name = 
REMARK  5 active torsions:
REMARK  status: ('A' for Active; 'I' for Inactive)
REMARK    1  A    between atoms: N_1  and  C_2
REMARK    2  A    between atoms: C_2  and  C_3
REMARK    3  A    between atoms: C_3  and  C_4
REMARK    4  A    between atoms: C_7  and  C_8
REMARK    5  A    between atoms: C_8  and  N_9
REMARK                            x       y       z     vdW  Elec       q    Type
REMARK                         _______ _______ _______ _____ _____    ______ ____
ROOT
ATOM      1  C   UNL     1      45.970   3.274   7.740  0.00  0.00    +0.000 A 
ATOM      2  C   UNL     1      46.111   4.646   7.978  0.00  0.00    +0.000 A 
ATOM      3  C   UNL     1      45.763   5.188   9.220  0.00  0.00    +0.000 A 
ATOM      4  C   UNL     1      45.263   4.368  10.243  0.00  0.00    +0.000 A 
ATOM      5  C   UNL     1      45.129   2.999  10.006  0.00  0.00    +0.000 A 
ATOM      6  C   UNL     1      45.490   2.453   8.767  0.00  0.00    +0.000 A 
ENDROOT
BRANCH   1   7
ATOM      7  C   UNL     1      46.318   2.686   6.392  0.00  0.00    +0.000 C 
BRANCH   7   8
ATOM      8  C   UNL     1      47.314   1.524   6.486  0.00  0.00    +0.000 C 
BRANCH   8   9
ATOM      9  N   UNL     1      48.553   1.842   5.773  0.00  0.00    +0.000 NA
ATOM     10  H   UNL     1      48.451   2.737   5.298  0.00  0.00    +0.000 HD
ATOM     11  H   UNL     1      48.719   1.148   5.044  0.00  0.00    +0.000 HD
ENDBRANCH   8   9
ENDBRANCH   7   8
ENDBRANCH   1   7
BRANCH   4  12
ATOM     12  C   UNL     1      44.930   4.949  11.595  0.00  0.00    +0.000 C 
BRANCH  12  13
ATOM     13  N   UNL     1      46.030   4.970  12.553  0.00  0.00    +0.000 N 
ATOM     14  C   UNL     1      46.080   4.271  13.730  0.00  0.00    +0.000 A 
ATOM     15  N   UNL     1      46.897   4.828  14.596  0.00  0.00    +0.000 NA
ATOM     16  C   UNL     1      47.430   5.910  13.943  0.00  0.00    +0.000 A 
ATOM     17  C   UNL     1      48.289   6.910  14.424  0.00  0.00    +0.000 A 
ATOM     18  C   UNL     1      48.698   7.927  13.552  0.00  0.00    +0.000 A 
ATOM     19  C   UNL     1      48.293   7.925  12.217  0.00  0.00    +0.000 A 
ATOM     20  C   UNL     1      47.425   6.945  11.722  0.00  0.00    +0.000 A 
ATOM     21  C   UNL     1      46.980   5.970  12.625  0.00  0.00    +0.000 A 
ENDBRANCH  12  13
ENDBRANCH   4  12
TORSDOF 5
ENDMDL
MODEL 4
REMARK VINA RESULT:    -6.477      1.194      2.079
REMARK INTER + INTRA:          -8.767
REMARK INTER:                  -8.487
REMARK INTRA:                  -0.281
REMARK UNBOUND:                -0.586
REMARK  Name = 
REMARK  5 active torsions:
REMARK  status: ('A' for Active; 'I' for Inactive)
REMARK    1  A    between atoms: N_1  and  C_2
REMARK    2  A    between atoms: C_2  and  C_3
REMARK    3  A    between atoms: C_3  and  C_4
REMARK    4  A    between atoms: C_7  and  C_8
REMARK    5  A    between atoms: C_8  and  N_9
REMARK                            x       y       z     vdW  Elec       q    Type
REMARK                         _______ _______ _______ _____ _____    ______ ____
ROOT
ATOM      1  C   UNL     1      45.842   3.085   7.802  0.00  0.00    +0.000 A 
ATOM      2  C   UNL     1      45.967   4.398   8.272  0.00  0.00    +0.000 A 
ATOM      3  C   UNL     1      45.445   4.756   9.520  0.00  0.00    +0.000 A 
ATOM      4  C   UNL     1      44.782   3.810  10.315  0.00  0.00    +0.000 A 
ATOM      5  C   UNL     1      44.663   2.499   9.848  0.00  0.00    +0.000 A 
ATOM      6  C   UNL     1      45.198   2.136   8.605  0.00  0.00    +0.000 A 
ENDROOT
BRANCH   1   7
ATOM      7  C   UNL     1      46.380   2.697   6.445  0.00  0.00    +0.000 C 
BRANCH   7   8
ATOM      8  C   UNL     1      47.417   1.571   6.513  0.00  0.00    +0.000 C 
BRANCH   8   9
ATOM      9  N   UNL     1      48.561   1.864   5.647  0.00  0.00    +0.000 NA
ATOM     10  H   UNL     1      48.296   1.719   4.674  0.00  0.00    +0.000 HD
ATOM     11  H   UNL     1      49.317   1.207   5.839  0.00  0.00    +0.000 HD
ENDBRANCH   8   9
ENDBRANCH   7   8
ENDBRANCH   1   7
BRANCH   4  12
ATOM     12  C   UNL     1      44.258   4.188  11.679  0.00  0.00    +0.000 C 
BRANCH  12  13
ATOM     13  N   UNL     1      44.021   5.613  11.884  0.00  0.00    +0.000 N 
ATOM     14  C   UNL     1      42.990   6.337  11.348  0.00  0.00    +0.000 A 
ATOM     15  N   UNL     1      43.279   7.617  11.273  0.00  0.00    +0.000 NA
ATOM     16  C   UNL     1      44.532   7.736  11.817  0.00  0.00    +0.000 A 
ATOM     17  C   UNL     1      45.364   8.862  11.909  0.00  0.00    +0.000 A 
ATOM     18  C   UNL     1      46.619   8.729  12.515  0.00  0.00    +0.000 A 
ATOM     19  C   UNL     1      47.022   7.507  13.056  0.00  0.00    +0.000 A 
ATOM     20  C   UNL     1      46.213   6.369  12.962  0.00  0.00    +0.000 A 
ATOM     21  C   UNL     1      44.986   6.510  12.300  0.00  0.00    +0.000 A 
ENDBRANCH  12  13
ENDBRANCH   4  12
TORSDOF 5
ENDMDL
MODEL 5
REMARK VINA RESULT:    -6.358      2.210      5.985
REMARK INTER + INTRA:          -8.617
REMARK INTER:                  -8.197
REMARK INTRA:                  -0.420
REMARK UNBOUND:                -0.586
REMARK  Name = 
REMARK  5 active torsions:
REMARK  status: ('A' for Active; 'I' for Inactive)
REMARK    1  A    between atoms: N_1  and  C_2
REMARK    2  A    between atoms: C_2  and  C_3
REMARK    3  A    between atoms: C_3  and  C_4
REMARK    4  A    between atoms: C_7  and  C_8
REMARK    5  A    between atoms: C_8  and  N_9
REMARK                            x       y       z     vdW  Elec       q    Type
REMARK                         _______ _______ _______ _____ _____    ______ ____
ROOT
ATOM      1  C   UNL     1      47.838   6.759  12.976  0.00  0.00    +0.000 A 
ATOM      2  C   UNL     1      47.228   5.509  13.135  0.00  0.00    +0.000 A 
ATOM      3  C   UNL     1      45.940   5.281  12.639  0.00  0.00    +0.000 A 
ATOM      4  C   UNL     1      45.238   6.301  11.981  0.00  0.00    +0.000 A 
ATOM      5  C   UNL     1      45.849   7.546  11.816  0.00  0.00    +0.000 A 
ATOM      6  C   UNL     1      47.145   7.771  12.301  0.00  0.00    +0.000 A 
ENDROOT
BRANCH   1   7
ATOM      7  C   UNL     1      49.218   7.020  13.532  0.00  0.00    +0.000 C 
BRANCH   7   8
ATOM      8  C   UNL     1      49.253   7.032  15.064  0.00  0.00    +0.000 C 
BRANCH   8   9
ATOM      9  N   UNL     1      50.572   6.633  15.558  0.00  0.00    +0.000 NA
ATOM     10  H   UNL     1      50.974   7.393  16.106  0.00  0.00    +0.000 HD
ATOM     11  H   UNL     1      51.204   6.482  14.772  0.00  0.00    +0.000 HD
ENDBRANCH   8   9
ENDBRANCH   7   8
ENDBRANCH   1   7
BRANCH   4  12
ATOM     12  C   UNL     1      43.866   6.040  11.408  0.00  0.00    +0.000 C 
BRANCH  12  13
ATOM     13  N   UNL     1      43.655   4.696  10.881  0.00  0.00    +0.000 N 
ATOM     14  C   UNL     1      43.062   3.658  11.549  0.00  0.00    +0.000 A 
ATOM     15  N   UNL     1      43.435   2.492  11.072  0.00  0.00    +0.000 NA
ATOM     16  C   UNL     1      44.275   2.783  10.027  0.00  0.00    +0.000 A 
ATOM     17  C   UNL     1      45.032   1.919   9.221  0.00  0.00    +0.000 A 
ATOM     18  C   UNL     1      45.826   2.463   8.205  0.00  0.00    +0.000 A 
ATOM     19  C   UNL     1      45.834   3.839   7.968  0.00  0.00    +0.000 A 
ATOM     20  C   UNL     1      45.097   4.718   8.770  0.00  0.00    +0.000 A 
ATOM     21  C   UNL     1      44.356   4.159   9.819  0.00  0.00    +0.000 A 
ENDBRANCH  12  13
ENDBRANCH   4  12
TORSDOF 5
ENDMDL
MODEL 6
REMARK VINA RESULT:    -5.697      1.714      2.715
REMARK INTER + INTRA:          -7.782
REMARK INTER:                  -7.495
REMARK INTRA:                  -0.288
REMARK UNBOUND:                -0.586
REMARK  Name = 
REMARK  5 active torsions:
REMARK  status: ('A' for Active; 'I' for Inactive)
REMARK    1  A    between atoms: N_1  and  C_2
REMARK    2  A    between atoms: C_2  and  C_3
REMARK    3  A    between atoms: C_3  and  C_4
REMARK    4  A    between atoms: C_7  and  C_8
REMARK    5  A    between atoms: C_8  and  N_9
REMARK                            x       y       z     vdW  Elec       q    Type
REMARK                         _______ _______ _______ _____ _____    ______ ____
ROOT
ATOM      1  C   UNL     1      45.426   3.581   9.074  0.00  0.00    +0.000 A 
ATOM      2  C   UNL     1      45.704   4.952   9.109  0.00  0.00    +0.000 A 
ATOM      3  C   UNL     1      45.502   5.685  10.284  0.00  0.00    +0.000 A 
ATOM      4  C   UNL     1      45.012   5.061  11.440  0.00  0.00    +0.000 A 
ATOM      5  C   UNL     1      44.741   3.692  11.406  0.00  0.00    +0.000 A 
ATOM      6  C   UNL     1      44.957   2.953  10.235  0.00  0.00    +0.000 A 
ENDROOT
BRANCH   1   7
ATOM      7  C   UNL     1      45.617   2.787   7.803  0.00  0.00    +0.000 C 
BRANCH   7   8
ATOM      8  C   UNL     1      46.341   1.455   8.032  0.00  0.00    +0.000 C 
BRANCH   8   9
ATOM      9  N   UNL     1      47.422   1.277   7.061  0.00  0.00    +0.000 NA
ATOM     10  H   UNL     1      47.025   1.106   6.138  0.00  0.00    +0.000 HD
ATOM     11  H   UNL     1      47.964   0.446   7.297  0.00  0.00    +0.000 HD
ENDBRANCH   8   9
ENDBRANCH   7   8
ENDBRANCH   1   7
BRANCH   4  12
ATOM     12  C   UNL     1      44.836   5.845  12.718  0.00  0.00    +0.000 C 
BRANCH  12  13
ATOM     13  N   UNL     1      45.518   7.134  12.758  0.00  0.00    +0.000 N 
ATOM     14  C   UNL     1      44.960   8.345  12.444  0.00  0.00    +0.000 A 
ATOM     15  N   UNL     1      45.868   9.225  12.088  0.00  0.00    +0.000 NA
ATOM     16  C   UNL     1      47.069   8.573  12.212  0.00  0.00    +0.000 A 
ATOM     17  C   UNL     1      48.361   9.007  11.877  0.00  0.00    +0.000 A 
ATOM     18  C   UNL     1      49.442   8.147  12.099  0.00  0.00    +0.000 A 
ATOM     19  C   UNL     1      49.247   6.894  12.682  0.00  0.00    +0.000 A 
ATOM     20  C   UNL     1      47.965   6.437  13.010  0.00  0.00    +0.000 A 
ATOM     21  C   UNL     1      46.890   7.290  12.725  0.00  0.00    +0.000 A 
ENDBRANCH  12  13
ENDBRANCH   4  12
TORSDOF 5
ENDMDL
MODEL 7
REMARK VINA RESULT:    -5.362      2.990      4.705
REMARK INTER + INTRA:          -7.359
REMARK INTER:                  -6.872
REMARK INTRA:                  -0.487
REMARK UNBOUND:                -0.586
REMARK  Name = 
REMARK  5 active torsions:
REMARK  status: ('A' for Active; 'I' for Inactive)
REMARK    1  A    between atoms: N_1  and  C_2
REMARK    2  A    between atoms: C_2  and  C_3
REMARK    3  A    between atoms: C_3  and  C_4
REMARK    4  A    between atoms: C_7  and  C_8
REMARK    5  A    between atoms: C_8  and  N_9
REMARK                            x       y       z     vdW  Elec       q    Type
REMARK                         _______ _______ _______ _____ _____    ______ ____
ROOT
ATOM      1  C   UNL     1      44.806   3.969  10.959  0.00  0.00    +0.000 A 
ATOM      2  C   UNL     1      45.291   5.096  10.286  0.00  0.00    +0.000 A 
ATOM      3  C   UNL     1      45.854   6.159  11.000  0.00  0.00    +0.000 A 
ATOM      4  C   UNL     1      45.935   6.116  12.400  0.00  0.00    +0.000 A 
ATOM      5  C   UNL     1      45.457   4.988  13.070  0.00  0.00    +0.000 A 
ATOM      6  C   UNL     1      44.906   3.916  12.354  0.00  0.00    +0.000 A 
ENDROOT
BRANCH   1   7
ATOM      7  C   UNL     1      44.173   2.828  10.196  0.00  0.00    +0.000 C 
BRANCH   7   8
ATOM      8  C   UNL     1      44.826   2.586   8.831  0.00  0.00    +0.000 C 
BRANCH   8   9
ATOM      9  N   UNL     1      45.552   1.315   8.819  0.00  0.00    +0.000 NA
ATOM     10  H   UNL     1      46.520   1.473   9.095  0.00  0.00    +0.000 HD
ATOM     11  H   UNL     1      45.582   0.943   7.870  0.00  0.00    +0.000 HD
ENDBRANCH   8   9
ENDBRANCH   7   8
ENDBRANCH   1   7
BRANCH   4  12
ATOM     12  C   UNL     1      46.582   7.245  13.164  0.00  0.00    +0.000 C 
BRANCH  12  13
ATOM     13  N   UNL     1      47.989   7.048  13.497  0.00  0.00    +0.000 N 
ATOM     14  C   UNL     1      48.469   6.554  14.681  0.00  0.00    +0.000 A 
ATOM     15  N   UNL     1      49.707   6.935  14.904  0.00  0.00    +0.000 NA
ATOM     16  C   UNL     1      50.059   7.674  13.804  0.00  0.00    +0.000 A 
ATOM     17  C   UNL     1      51.235   8.398  13.553  0.00  0.00    +0.000 A 
ATOM     18  C   UNL     1      51.360   9.084  12.339  0.00  0.00    +0.000 A 
ATOM     19  C   UNL     1      50.352   9.017  11.376  0.00  0.00    +0.000 A 
ATOM     20  C   UNL     1      49.167   8.312  11.613  0.00  0.00    +0.000 A 
ATOM     21  C   UNL     1      49.036   7.682  12.858  0.00  0.00    +0.000 A 
ENDBRANCH  12  13
ENDBRANCH   4  12
TORSDOF 5
ENDMDL
MODEL 8
REMARK VINA RESULT:    -5.137      4.792      7.806
REMARK INTER + INTRA:          -7.074
REMARK INTER:                  -6.710
REMARK INTRA:                  -0.364
REMARK UNBOUND:                -0.586
REMARK  Name = 
REMARK  5 active torsions:
REMARK  status: ('A' for Active; 'I' for Inactive)
REMARK    1  A    between atoms: N_1  and  C_2
REMARK    2  A    between atoms: C_2  and  C_3
REMARK    3  A    between atoms: C_3  and  C_4
REMARK    4  A    between atoms: C_7  and  C_8
REMARK    5  A    between atoms: C_8  and  N_9
REMARK                            x       y       z     vdW  Elec       q    Type
REMARK                         _______ _______ _______ _____ _____    ______ ____
ROOT
ATOM      1  C   UNL     1      51.036   2.780  17.595  0.00  0.00    +0.000 A 
ATOM      2  C   UNL     1      50.775   4.152  17.675  0.00  0.00    +0.000 A 
ATOM      3  C   UNL     1      49.586   4.678  17.157  0.00  0.00    +0.000 A 
ATOM      4  C   UNL     1      48.641   3.840  16.546  0.00  0.00    +0.000 A 
ATOM      5  C   UNL     1      48.900   2.470  16.472  0.00  0.00    +0.000 A 
ATOM      6  C   UNL     1      50.085   1.941  17.003  0.00  0.00    +0.000 A 
ENDROOT
BRANCH   1   7
ATOM      7  C   UNL     1      52.330   2.208  18.128  0.00  0.00    +0.000 C 
BRANCH   7   8
ATOM      8  C   UNL     1      52.730   0.896  17.444  0.00  0.00    +0.000 C 
BRANCH   8   9
ATOM      9  N   UNL     1      52.515  -0.243  18.337  0.00  0.00    +0.000 NA
ATOM     10  H   UNL     1      51.802  -0.855  17.942  0.00  0.00    +0.000 HD
ATOM     11  H   UNL     1      52.149   0.083  19.231  0.00  0.00    +0.000 HD
ENDBRANCH   8   9
ENDBRANCH   7   8
ENDBRANCH   1   7
BRANCH   4  12
ATOM     12  C   UNL     1      47.340   4.403  16.028  0.00  0.00    +0.000 C 
BRANCH  12  13
ATOM     13  N   UNL     1      47.413   5.038  14.716  0.00  0.00    +0.000 N 
ATOM     14  C   UNL     1      47.851   6.312  14.467  0.00  0.00    +0.000 A 
ATOM     15  N   UNL     1      47.363   6.786  13.343  0.00  0.00    +0.000 NA
ATOM     16  C   UNL     1      46.608   5.767  12.821  0.00  0.00    +0.000 A 
ATOM     17  C   UNL     1      45.789   5.755  11.681  0.00  0.00    +0.000 A 
ATOM     18  C   UNL     1      45.108   4.577  11.350  0.00  0.00    +0.000 A 
ATOM     19  C   UNL     1      45.272   3.421  12.115  0.00  0.00    +0.000 A 
ATOM     20  C   UNL     1      46.073   3.417  13.263  0.00  0.00    +0.000 A 
ATOM     21  C   UNL     1      46.699   4.622  13.610  0.00  0.00    +0.000 A 
ENDBRANCH  12  13
ENDBRANCH   4  12
TORSDOF 5
ENDMDL
MODEL 9
REMARK VINA RESULT:    -4.822      3.837      6.083
REMARK INTER + INTRA:          -6.676
REMARK INTER:                  -6.253
REMARK INTRA:                  -0.423
REMARK UNBOUND:                -0.586
REMARK  Name = 
REMARK  5 active torsions:
REMARK  status: ('A' for Active; 'I' for Inactive)
REMARK    1  A    between atoms: N_1  and  C_2
REMARK    2  A    between atoms: C_2  and  C_3
REMARK    3  A    between atoms: C_3  and  C_4
REMARK    4  A    between atoms: C_7  and  C_8
REMARK    5  A    between atoms: C_8  and  N_9
REMARK                            x       y       z     vdW  Elec       q    Type
REMARK                         _______ _______ _______ _____ _____    ______ ____
ROOT
ATOM      1  C   UNL     1      45.197   4.988  12.055  0.00  0.00    +0.000 A 
ATOM      2  C   UNL     1      45.735   6.148  11.487  0.00  0.00    +0.000 A 
ATOM      3  C   UNL     1      46.864   6.755  12.049  0.00  0.00    +0.000 A 
ATOM      4  C   UNL     1      47.470   6.215  13.193  0.00  0.00    +0.000 A 
ATOM      5  C   UNL     1      46.937   5.053  13.756  0.00  0.00    +0.000 A 
ATOM      6  C   UNL     1      45.814   4.437  13.185  0.00  0.00    +0.000 A 
ENDROOT
BRANCH   1   7
ATOM      7  C   UNL     1      43.963   4.342  11.470  0.00  0.00    +0.000 C 
BRANCH   7   8
ATOM      8  C   UNL     1      42.674   5.100  11.807  0.00  0.00    +0.000 C 
BRANCH   8   9
ATOM      9  N   UNL     1      42.614   5.414  13.236  0.00  0.00    +0.000 NA
ATOM     10  H   UNL     1      42.605   4.549  13.774  0.00  0.00    +0.000 HD
ATOM     11  H   UNL     1      41.738   5.892  13.448  0.00  0.00    +0.000 HD
ENDBRANCH   8   9
ENDBRANCH   7   8
ENDBRANCH   1   7
BRANCH   4  12
ATOM     12  C   UNL     1      48.712   6.846  13.771  0.00  0.00    +0.000 C 
BRANCH  12  13
ATOM     13  N   UNL     1      48.536   7.507  15.059  0.00  0.00    +0.000 N 
ATOM     14  C   UNL     1      48.374   8.854  15.252  0.00  0.00    +0.000 A 
ATOM     15  N   UNL     1      48.728   9.220  16.463  0.00  0.00    +0.000 NA
ATOM     16  C   UNL     1      49.100   8.061  17.096  0.00  0.00    +0.000 A 
ATOM     17  C   UNL     1      49.650   7.877  18.374  0.00  0.00    +0.000 A 
ATOM     18  C   UNL     1      49.951   6.578  18.800  0.00  0.00    +0.000 A 
ATOM     19  C   UNL     1      49.671   5.480  17.986  0.00  0.00    +0.000 A 
ATOM     20  C   UNL     1      49.135   5.643  16.703  0.00  0.00    +0.000 A 
ATOM     21  C   UNL     1      48.897   6.955  16.273  0.00  0.00    +0.000 A 
ENDBRANCH  12  13
ENDBRANCH   4  12
TORSDOF 5
ENDMDL
