MODEL 1
REMARK VINA RESULT:    -8.358      0.000      0.000
REMARK INTER + INTRA:         -14.229
REMARK INTER:                 -13.000
REMARK INTRA:                  -1.229
REMARK UNBOUND:                -1.229
REMARK  Name = 
REMARK  13 active torsions:
REMARK  status: ('A' for Active; 'I' for Inactive)
REMARK    1  A    between atoms: C_1  and  C_2
REMARK    2  A    between atoms: C_2  and  C_3
REMARK    3  A    between atoms: C_2  and  C_4
REMARK    4  A    between atoms: N_6  and  C_7
REMARK    5  A    between atoms: C_9  and  O_10
REMARK    6  A    between atoms: O_10  and  C_11
REMARK    7  A    between atoms: C_11  and  C_12
REMARK    8  A    between atoms: C_12  and  C_13
REMARK    9  A    between atoms: C_13  and  C_14
REMARK   10  A    between atoms: C_13  and  O_15
REMARK   11  A    between atoms: C_13  and  C_16
REMARK   12  A    between atoms: C_19  and  C_20
REMARK   13  A    between atoms: C_26  and  C_27
REMARK                            x       y       z     vdW  Elec       q    Type
REMARK                         _______ _______ _______ _____ _____    ______ ____
ROOT
ATOM      1  C   UNL     1      48.102   5.080  16.113  0.00  0.00    +0.000 A 
ATOM      2  C   UNL     1      47.181   4.309  15.394  0.00  0.00    +0.000 A 
ATOM      3  C   UNL     1      46.767   4.653  14.101  0.00  0.00    +0.000 A 
ATOM      4  C   UNL     1      47.289   5.784  13.496  0.00  0.00    +0.000 A 
ATOM      5  C   UNL     1      48.202   6.594  14.180  0.00  0.00    +0.000 A 
ATOM      6  C   UNL     1      48.613   6.213  15.470  0.00  0.00    +0.000 A 
ENDROOT
BRANCH   1   9
ATOM      7  C   UNL     1      49.141   5.968  19.469  0.00  0.00    +0.000 C 
ATOM      8  C   UNL     1      47.960   5.461  18.598  0.00  0.00    +0.000 C 
ATOM      9  N   UNL     1      48.462   4.760  17.404  0.00  0.00    +0.000 N 
ATOM     10  C   UNL     1      49.467   3.727  17.693  0.00  0.00    +0.000 C 
ATOM     11  C   UNL     1      50.593   4.345  18.531  0.00  0.00    +0.000 C 
ATOM     12  O   UNL     1      50.080   4.907  19.747  0.00  0.00    +0.000 OA
BRANCH   7  14
ATOM     13  C   UNL     1      48.795   8.087  20.875  0.00  0.00    +0.000 C 
ATOM     14  C   UNL     1      48.658   6.561  20.814  0.00  0.00    +0.000 C 
ATOM     15  C   UNL     1      47.195   6.187  21.078  0.00  0.00    +0.000 C 
ENDBRANCH   7  14
ENDBRANCH   1   9
BRANCH   5  16
ATOM     16  C   UNL     1      48.710   7.879  13.589  0.00  0.00    +0.000 C 
ATOM     17  F   UNL     1      47.943   8.358  12.570  0.00  0.00    +0.000 F 
ATOM     18  F   UNL     1      48.764   8.882  14.513  0.00  0.00    +0.000 F 
ATOM     19  F   UNL     1      49.973   7.770  13.089  0.00  0.00    +0.000 F 
ENDBRANCH   5  16
BRANCH   3  20
ATOM     20  O   UNL     1      45.835   3.966  13.367  0.00  0.00    +0.000 OA
BRANCH  20  21
ATOM     21  C   UNL     1      44.622   4.671  13.093  0.00  0.00    +0.000 C 
BRANCH  21  22
ATOM     22  C   UNL     1      43.963   4.069  11.857  0.00  0.00    +0.000 C 
BRANCH  22  23
ATOM     23  C   UNL     1      44.333   4.818  10.560  0.00  0.00    +0.000 C 
ATOM     24  C   UNL     1      45.124   6.081  10.911  0.00  0.00    +0.000 C 
BRANCH  23  25
ATOM     25  C   UNL     1      45.113   3.988   9.525  0.00  0.00    +0.000 A 
ATOM     26  C   UNL     1      45.117   2.592   9.551  0.00  0.00    +0.000 A 
ATOM     27  C   UNL     1      45.839   1.885   8.587  0.00  0.00    +0.000 A 
ATOM     28  C   UNL     1      46.561   2.571   7.614  0.00  0.00    +0.000 A 
ATOM     29  C   UNL     1      46.507   3.956   7.653  0.00  0.00    +0.000 A 
ATOM     30  N   UNL     1      45.808   4.679   8.580  0.00  0.00    +0.000 NA
BRANCH  28  31
ATOM     31  C   UNL     1      47.343   1.783   6.624  0.00  0.00    +0.000 C 
ATOM     32  N   UNL     1      48.309   2.407   5.883  0.00  0.00    +0.000 N 
ATOM     33  O   UNL     1      47.138   0.591   6.470  0.00  0.00    +0.000 OA
ATOM     34  H   UNL     1      48.571   3.379   5.935  0.00  0.00    +0.000 HD
ATOM     35  H   UNL     1      48.828   1.818   5.242  0.00  0.00    +0.000 HD
ENDBRANCH  28  31
ENDBRANCH  23  25
BRANCH  23  36
ATOM     36  O   UNL     1      43.106   5.282   9.967  0.00  0.00    +0.000 OA
ATOM     37  H   UNL     1      42.706   5.871  10.637  0.00  0.00    +0.000 HD
ENDBRANCH  23  36
ENDBRANCH  22  23
ENDBRANCH  21  22
ENDBRANCH  20  21
ENDBRANCH   3  20
TORSDOF 10
ENDMDL
MODEL 2
REMARK VINA RESULT:    -8.281      1.190      2.167
REMARK INTER + INTRA:         -14.109
REMARK INTER:                 -13.125
REMARK INTRA:                  -0.984
REMARK UNBOUND:                -1.229
REMARK  Name = 
REMARK  13 active torsions:
REMARK  status: ('A' for Active; 'I' for Inactive)
REMARK    1  A    between atoms: C_1  and  C_2
REMARK    2  A    between atoms: C_2  and  C_3
REMARK    3  A    between atoms: C_2  and  C_4
REMARK    4  A    between atoms: N_6  and  C_7
REMARK    5  A    between atoms: C_9  and  O_10
REMARK    6  A    between atoms: O_10  and  C_11
REMARK    7  A    between atoms: C_11  and  C_12
REMARK    8  A    between atoms: C_12  and  C_13
REMARK    9  A    between atoms: C_13  and  C_14
REMARK   10  A    between atoms: C_13  and  O_15
REMARK   11  A    between atoms: C_13  and  C_16
REMARK   12  A    between atoms: C_19  and  C_20
REMARK   13  A    between atoms: C_26  and  C_27
REMARK                            x       y       z     vdW  Elec       q    Type
REMARK                         _______ _______ _______ _____ _____    ______ ____
ROOT
ATOM      1  C   UNL     1      48.322   5.645  15.623  0.00  0.00    +0.000 A 
ATOM      2  C   UNL     1      47.333   4.740  15.222  0.00  0.00    +0.000 A 
ATOM      3  C   UNL     1      46.712   4.819  13.969  0.00  0.00    +0.000 A 
ATOM      4  C   UNL     1      47.091   5.812  13.082  0.00  0.00    +0.000 A 
ATOM      5  C   UNL     1      48.067   6.748  13.442  0.00  0.00    +0.000 A 
ATOM      6  C   UNL     1      48.685   6.632  14.700  0.00  0.00    +0.000 A 
ENDROOT
BRANCH   1   9
ATOM      7  C   UNL     1      50.538   4.168  18.081  0.00  0.00    +0.000 C 
ATOM      8  C   UNL     1      50.324   5.373  17.126  0.00  0.00    +0.000 C 
ATOM      9  N   UNL     1      48.889   5.588  16.878  0.00  0.00    +0.000 N 
ATOM     10  C   UNL     1      48.071   5.650  18.099  0.00  0.00    +0.000 C 
ATOM     11  C   UNL     1      48.343   4.401  18.947  0.00  0.00    +0.000 C 
ATOM     12  O   UNL     1      49.735   4.296  19.275  0.00  0.00    +0.000 OA
BRANCH   7  14
ATOM     13  C   UNL     1      52.604   2.647  18.125  0.00  0.00    +0.000 C 
ATOM     14  C   UNL     1      52.019   4.014  18.500  0.00  0.00    +0.000 C 
ATOM     15  C   UNL     1      52.881   5.109  17.861  0.00  0.00    +0.000 C 
ENDBRANCH   7  14
ENDBRANCH   1   9
BRANCH   5  16
ATOM     16  C   UNL     1      48.428   7.895  12.541  0.00  0.00    +0.000 C 
ATOM     17  F   UNL     1      47.383   8.720  12.254  0.00  0.00    +0.000 F 
ATOM     18  F   UNL     1      49.389   8.694  13.088  0.00  0.00    +0.000 F 
ATOM     19  F   UNL     1      48.925   7.489  11.339  0.00  0.00    +0.000 F 
ENDBRANCH   5  16
BRANCH   3  20
ATOM     20  O   UNL     1      45.706   3.993  13.539  0.00  0.00    +0.000 OA
BRANCH  20  21
ATOM     21  C   UNL     1      44.539   4.650  13.038  0.00  0.00    +0.000 C 
BRANCH  21  22
ATOM     22  C   UNL     1      44.081   3.952  11.762  0.00  0.00    +0.000 C 
BRANCH  22  23
ATOM     23  C   UNL     1      44.364   4.782  10.494  0.00  0.00    +0.000 C 
ATOM     24  C   UNL     1      45.065   6.086  10.887  0.00  0.00    +0.000 C 
BRANCH  23  25
ATOM     25  C   UNL     1      45.181   4.061   9.408  0.00  0.00    +0.000 A 
ATOM     26  C   UNL     1      45.236   2.668   9.330  0.00  0.00    +0.000 A 
ATOM     27  C   UNL     1      45.988   2.060   8.323  0.00  0.00    +0.000 A 
ATOM     28  C   UNL     1      46.692   2.843   7.410  0.00  0.00    +0.000 A 
ATOM     29  C   UNL     1      46.588   4.219   7.551  0.00  0.00    +0.000 A 
ATOM     30  N   UNL     1      45.857   4.844   8.523  0.00  0.00    +0.000 NA
BRANCH  28  31
ATOM     31  C   UNL     1      47.509   2.160   6.372  0.00  0.00    +0.000 C 
ATOM     32  N   UNL     1      47.875   2.846   5.247  0.00  0.00    +0.000 N 
ATOM     33  O   UNL     1      47.859   1.000   6.514  0.00  0.00    +0.000 OA
ATOM     34  H   UNL     1      47.654   3.806   5.032  0.00  0.00    +0.000 HD
ATOM     35  H   UNL     1      48.452   2.341   4.584  0.00  0.00    +0.000 HD
ENDBRANCH  28  31
ENDBRANCH  23  25
BRANCH  23  36
ATOM     36  O   UNL     1      43.092   5.177   9.946  0.00  0.00    +0.000 OA
ATOM     37  H   UNL     1      43.310   5.721   9.162  0.00  0.00    +0.000 HD
ENDBRANCH  23  36
ENDBRANCH  22  23
ENDBRANCH  21  22
ENDBRANCH  20  21
ENDBRANCH   3  20
TORSDOF 10
ENDMDL
MODEL 3
REMARK VINA RESULT:    -8.065      1.803      2.655
REMARK INTER + INTRA:         -13.773
REMARK INTER:                 -12.498
REMARK INTRA:                  -1.276
REMARK UNBOUND:                -1.229
REMARK  Name = 
REMARK  13 active torsions:
REMARK  status: ('A' for Active; 'I' for Inactive)
REMARK    1  A    between atoms: C_1  and  C_2
REMARK    2  A    between atoms: C_2  and  C_3
REMARK    3  A    between atoms: C_2  and  C_4
REMARK    4  A    between atoms: N_6  and  C_7
REMARK    5  A    between atoms: C_9  and  O_10
REMARK    6  A    between atoms: O_10  and  C_11
REMARK    7  A    between atoms: C_11  and  C_12
REMARK    8  A    between atoms: C_12  and  C_13
REMARK    9  A    between atoms: C_13  and  C_14
REMARK   10  A    between atoms: C_13  and  O_15
REMARK   11  A    between atoms: C_13  and  C_16
REMARK   12  A    between atoms: C_19  and  C_20
REMARK   13  A    between atoms: C_26  and  C_27
REMARK                            x       y       z     vdW  Elec       q    Type
REMARK                         _______ _______ _______ _____ _____    ______ ____
ROOT
ATOM      1  C   UNL     1      48.552   7.144  14.682  0.00  0.00    +0.000 A 
ATOM      2  C   UNL     1      47.717   6.244  14.012  0.00  0.00    +0.000 A 
ATOM      3  C   UNL     1      47.288   6.460  12.695  0.00  0.00    +0.000 A 
ATOM      4  C   UNL     1      47.711   7.592  12.019  0.00  0.00    +0.000 A 
ATOM      5  C   UNL     1      48.536   8.528  12.652  0.00  0.00    +0.000 A 
ATOM      6  C   UNL     1      48.964   8.274  13.967  0.00  0.00    +0.000 A 
ENDROOT
BRANCH   1   9
ATOM      7  C   UNL     1      48.123   5.628  17.946  0.00  0.00    +0.000 C 
ATOM      8  C   UNL     1      48.974   5.627  16.647  0.00  0.00    +0.000 C 
ATOM      9  N   UNL     1      48.924   6.946  15.995  0.00  0.00    +0.000 N 
ATOM     10  C   UNL     1      49.221   8.071  16.893  0.00  0.00    +0.000 C 
ATOM     11  C   UNL     1      48.306   7.985  18.122  0.00  0.00    +0.000 C 
ATOM     12  O   UNL     1      48.477   6.735  18.803  0.00  0.00    +0.000 OA
BRANCH   7  14
ATOM     13  C   UNL     1      48.814   3.158  17.894  0.00  0.00    +0.000 C 
ATOM     14  C   UNL     1      48.284   4.315  18.748  0.00  0.00    +0.000 C 
ATOM     15  C   UNL     1      49.227   4.520  19.940  0.00  0.00    +0.000 C 
ENDBRANCH   7  14
ENDBRANCH   1   9
BRANCH   5  16
ATOM     16  C   UNL     1      48.930   9.813  11.978  0.00  0.00    +0.000 C 
ATOM     17  F   UNL     1      49.562  10.695  12.802  0.00  0.00    +0.000 F 
ATOM     18  F   UNL     1      49.785   9.603  10.936  0.00  0.00    +0.000 F 
ATOM     19  F   UNL     1      47.867  10.485  11.455  0.00  0.00    +0.000 F 
ENDBRANCH   5  16
BRANCH   3  20
ATOM     20  O   UNL     1      46.434   5.642  12.004  0.00  0.00    +0.000 OA
BRANCH  20  21
ATOM     21  C   UNL     1      45.217   5.309  12.676  0.00  0.00    +0.000 C 
BRANCH  21  22
ATOM     22  C   UNL     1      44.838   3.871  12.340  0.00  0.00    +0.000 C 
BRANCH  22  23
ATOM     23  C   UNL     1      44.047   3.755  11.022  0.00  0.00    +0.000 C 
ATOM     24  C   UNL     1      43.277   5.056  10.776  0.00  0.00    +0.000 C 
BRANCH  23  25
ATOM     25  C   UNL     1      44.889   3.409   9.781  0.00  0.00    +0.000 A 
ATOM     26  C   UNL     1      45.388   4.396   8.930  0.00  0.00    +0.000 A 
ATOM     27  C   UNL     1      46.150   4.031   7.818  0.00  0.00    +0.000 A 
ATOM     28  C   UNL     1      46.398   2.686   7.554  0.00  0.00    +0.000 A 
ATOM     29  C   UNL     1      45.870   1.764   8.446  0.00  0.00    +0.000 A 
ATOM     30  N   UNL     1      45.124   2.089   9.545  0.00  0.00    +0.000 NA
BRANCH  28  31
ATOM     31  C   UNL     1      47.186   2.334   6.344  0.00  0.00    +0.000 C 
ATOM     32  N   UNL     1      47.009   3.054   5.194  0.00  0.00    +0.000 N 
ATOM     33  O   UNL     1      47.991   1.417   6.365  0.00  0.00    +0.000 OA
ATOM     34  H   UNL     1      46.384   3.835   5.067  0.00  0.00    +0.000 HD
ATOM     35  H   UNL     1      47.589   2.788   4.408  0.00  0.00    +0.000 HD
ENDBRANCH  28  31
ENDBRANCH  23  25
BRANCH  23  36
ATOM     36  O   UNL     1      43.043   2.741  11.210  0.00  0.00    +0.000 OA
ATOM     37  H   UNL     1      42.584   2.987  12.038  0.00  0.00    +0.000 HD
ENDBRANCH  23  36
ENDBRANCH  22  23
ENDBRANCH  21  22
ENDBRANCH  20  21
ENDBRANCH   3  20
TORSDOF 10
ENDMDL
MODEL 4
REMARK VINA RESULT:    -8.010      2.820      4.925
REMARK INTER + INTRA:         -13.688
REMARK INTER:                 -12.448
REMARK INTRA:                  -1.240
REMARK UNBOUND:                -1.229
REMARK  Name = 
REMARK  13 active torsions:
REMARK  status: ('A' for Active; 'I' for Inactive)
REMARK    1  A    between atoms: C_1  and  C_2
REMARK    2  A    between atoms: C_2  and  C_3
REMARK    3  A    between atoms: C_2  and  C_4
REMARK    4  A    between atoms: N_6  and  C_7
REMARK    5  A    between atoms: C_9  and  O_10
REMARK    6  A    between atoms: O_10  and  C_11
REMARK    7  A    between atoms: C_11  and  C_12
REMARK    8  A    between atoms: C_12  and  C_13
REMARK    9  A    between atoms: C_13  and  C_14
REMARK   10  A    between atoms: C_13  and  O_15
REMARK   11  A    between atoms: C_13  and  C_16
REMARK   12  A    between atoms: C_19  and  C_20
REMARK   13  A    between atoms: C_26  and  C_27
REMARK                            x       y       z     vdW  Elec       q    Type
REMARK                         _______ _______ _______ _____ _____    ______ ____
ROOT
ATOM      1  C   UNL     1      48.517   6.761  14.887  0.00  0.00    +0.000 A 
ATOM      2  C   UNL     1      47.680   5.919  14.146  0.00  0.00    +0.000 A 
ATOM      3  C   UNL     1      47.197   4.708  14.658  0.00  0.00    +0.000 A 
ATOM      4  C   UNL     1      47.540   4.326  15.943  0.00  0.00    +0.000 A 
ATOM      5  C   UNL     1      48.386   5.128  16.719  0.00  0.00    +0.000 A 
ATOM      6  C   UNL     1      48.839   6.347  16.184  0.00  0.00    +0.000 A 
ENDROOT
BRANCH   1   9
ATOM      7  C   UNL     1      48.554   9.415  12.420  0.00  0.00    +0.000 C 
ATOM      8  C   UNL     1      48.200   9.050  13.887  0.00  0.00    +0.000 C 
ATOM      9  N   UNL     1      49.028   7.925  14.354  0.00  0.00    +0.000 N 
ATOM     10  C   UNL     1      50.468   8.103  14.121  0.00  0.00    +0.000 C 
ATOM     11  C   UNL     1      50.699   8.430  12.640  0.00  0.00    +0.000 C 
ATOM     12  O   UNL     1      49.976   9.607  12.255  0.00  0.00    +0.000 OA
BRANCH   7  14
ATOM     13  C   UNL     1      48.385  11.246  10.630  0.00  0.00    +0.000 C 
ATOM     14  C   UNL     1      47.828  10.697  11.948  0.00  0.00    +0.000 C 
ATOM     15  C   UNL     1      46.326  10.438  11.777  0.00  0.00    +0.000 C 
ENDBRANCH   7  14
ENDBRANCH   1   9
BRANCH   5  16
ATOM     16  C   UNL     1      48.855   4.693  18.078  0.00  0.00    +0.000 C 
ATOM     17  F   UNL     1      48.828   5.684  19.013  0.00  0.00    +0.000 F 
ATOM     18  F   UNL     1      48.087   3.686  18.587  0.00  0.00    +0.000 F 
ATOM     19  F   UNL     1      50.132   4.218  18.072  0.00  0.00    +0.000 F 
ENDBRANCH   5  16
BRANCH   3  20
ATOM     20  O   UNL     1      46.415   3.820  13.965  0.00  0.00    +0.000 OA
BRANCH  20  21
ATOM     21  C   UNL     1      45.805   4.330  12.777  0.00  0.00    +0.000 C 
BRANCH  21  22
ATOM     22  C   UNL     1      44.572   3.494  12.451  0.00  0.00    +0.000 C 
BRANCH  22  23
ATOM     23  C   UNL     1      43.961   3.844  11.079  0.00  0.00    +0.000 C 
ATOM     24  C   UNL     1      43.615   5.335  11.042  0.00  0.00    +0.000 C 
BRANCH  23  25
ATOM     25  C   UNL     1      44.833   3.483   9.863  0.00  0.00    +0.000 A 
ATOM     26  C   UNL     1      45.386   4.462   9.036  0.00  0.00    +0.000 A 
ATOM     27  C   UNL     1      46.174   4.084   7.947  0.00  0.00    +0.000 A 
ATOM     28  C   UNL     1      46.393   2.735   7.680  0.00  0.00    +0.000 A 
ATOM     29  C   UNL     1      45.812   1.821   8.547  0.00  0.00    +0.000 A 
ATOM     30  N   UNL     1      45.039   2.158   9.624  0.00  0.00    +0.000 NA
BRANCH  28  31
ATOM     31  C   UNL     1      47.210   2.370   6.493  0.00  0.00    +0.000 C 
ATOM     32  N   UNL     1      47.173   3.167   5.382  0.00  0.00    +0.000 N 
ATOM     33  O   UNL     1      47.915   1.374   6.500  0.00  0.00    +0.000 OA
ATOM     34  H   UNL     1      46.640   4.015   5.270  0.00  0.00    +0.000 HD
ATOM     35  H   UNL     1      47.768   2.886   4.611  0.00  0.00    +0.000 HD
ENDBRANCH  28  31
ENDBRANCH  23  25
BRANCH  23  36
ATOM     36  O   UNL     1      42.702   3.152  10.980  0.00  0.00    +0.000 OA
ATOM     37  H   UNL     1      42.703   2.747  10.089  0.00  0.00    +0.000 HD
ENDBRANCH  23  36
ENDBRANCH  22  23
ENDBRANCH  21  22
ENDBRANCH  20  21
ENDBRANCH   3  20
TORSDOF 10
ENDMDL
MODEL 5
REMARK VINA RESULT:    -7.870      3.254      8.826
REMARK INTER + INTRA:         -13.470
REMARK INTER:                 -12.010
REMARK INTRA:                  -1.460
REMARK UNBOUND:                -1.229
REMARK  Name = 
REMARK  13 active torsions:
REMARK  status: ('A' for Active; 'I' for Inactive)
REMARK    1  A    between atoms: C_1  and  C_2
REMARK    2  A    between atoms: C_2  and  C_3
REMARK    3  A    between atoms: C_2  and  C_4
REMARK    4  A    between atoms: N_6  and  C_7
REMARK    5  A    between atoms: C_9  and  O_10
REMARK    6  A    between atoms: O_10  and  C_11
REMARK    7  A    between atoms: C_11  and  C_12
REMARK    8  A    between atoms: C_12  and  C_13
REMARK    9  A    between atoms: C_13  and  C_14
REMARK   10  A    between atoms: C_13  and  O_15
REMARK   11  A    between atoms: C_13  and  C_16
REMARK   12  A    between atoms: C_19  and  C_20
REMARK   13  A    between atoms: C_26  and  C_27
REMARK                            x       y       z     vdW  Elec       q    Type
REMARK                         _______ _______ _______ _____ _____    ______ ____
ROOT
ATOM      1  C   UNL     1      45.070   6.652  11.864  0.00  0.00    +0.000 A 
ATOM      2  C   UNL     1      45.975   7.122  12.822  0.00  0.00    +0.000 A 
ATOM      3  C   UNL     1      46.116   8.486  13.111  0.00  0.00    +0.000 A 
ATOM      4  C   UNL     1      45.327   9.408  12.445  0.00  0.00    +0.000 A 
ATOM      5  C   UNL     1      44.416   8.987  11.469  0.00  0.00    +0.000 A 
ATOM      6  C   UNL     1      44.285   7.610  11.214  0.00  0.00    +0.000 A 
ENDROOT
BRANCH   1   9
ATOM      7  C   UNL     1      44.347   3.930   9.583  0.00  0.00    +0.000 C 
ATOM      8  C   UNL     1      45.474   4.723  10.297  0.00  0.00    +0.000 C 
ATOM      9  N   UNL     1      44.978   5.312  11.552  0.00  0.00    +0.000 N 
ATOM     10  C   UNL     1      44.282   4.359  12.428  0.00  0.00    +0.000 C 
ATOM     11  C   UNL     1      43.177   3.659  11.627  0.00  0.00    +0.000 C 
ATOM     12  O   UNL     1      43.718   2.989  10.480  0.00  0.00    +0.000 OA
BRANCH   7  14
ATOM     13  C   UNL     1      46.012   3.886   7.631  0.00  0.00    +0.000 C 
ATOM     14  C   UNL     1      44.870   3.157   8.349  0.00  0.00    +0.000 C 
ATOM     15  C   UNL     1      45.355   1.759   8.750  0.00  0.00    +0.000 C 
ENDBRANCH   7  14
ENDBRANCH   1   9
BRANCH   5  16
ATOM     16  C   UNL     1      43.619   9.971  10.660  0.00  0.00    +0.000 C 
ATOM     17  F   UNL     1      43.506  11.198  11.241  0.00  0.00    +0.000 F 
ATOM     18  F   UNL     1      44.173  10.194   9.433  0.00  0.00    +0.000 F 
ATOM     19  F   UNL     1      42.345   9.552  10.419  0.00  0.00    +0.000 F 
ENDBRANCH   5  16
BRANCH   3  20
ATOM     20  O   UNL     1      47.016   9.010  14.002  0.00  0.00    +0.000 OA
BRANCH  20  21
ATOM     21  C   UNL     1      48.381   9.006  13.576  0.00  0.00    +0.000 C 
BRANCH  21  22
ATOM     22  C   UNL     1      49.284   8.857  14.795  0.00  0.00    +0.000 C 
BRANCH  22  23
ATOM     23  C   UNL     1      50.063   7.526  14.800  0.00  0.00    +0.000 C 
ATOM     24  C   UNL     1      51.511   7.787  15.224  0.00  0.00    +0.000 C 
BRANCH  23  25
ATOM     25  C   UNL     1      49.458   6.417  15.678  0.00  0.00    +0.000 A 
ATOM     26  C   UNL     1      50.059   6.009  16.870  0.00  0.00    +0.000 A 
ATOM     27  C   UNL     1      49.468   5.000  17.633  0.00  0.00    +0.000 A 
ATOM     28  C   UNL     1      48.292   4.394  17.198  0.00  0.00    +0.000 A 
ATOM     29  C   UNL     1      47.754   4.854  16.004  0.00  0.00    +0.000 A 
ATOM     30  N   UNL     1      48.305   5.842  15.236  0.00  0.00    +0.000 NA
BRANCH  28  31
ATOM     31  C   UNL     1      47.710   3.301  18.020  0.00  0.00    +0.000 C 
ATOM     32  N   UNL     1      48.228   3.045  19.260  0.00  0.00    +0.000 N 
ATOM     33  O   UNL     1      46.775   2.636  17.606  0.00  0.00    +0.000 OA
ATOM     34  H   UNL     1      48.988   3.536  19.705  0.00  0.00    +0.000 HD
ATOM     35  H   UNL     1      47.778   2.306  19.787  0.00  0.00    +0.000 HD
ENDBRANCH  28  31
ENDBRANCH  23  25
BRANCH  23  36
ATOM     36  O   UNL     1      50.136   7.065  13.438  0.00  0.00    +0.000 OA
ATOM     37  H   UNL     1      50.965   7.445  13.084  0.00  0.00    +0.000 HD
ENDBRANCH  23  36
ENDBRANCH  22  23
ENDBRANCH  21  22
ENDBRANCH  20  21
ENDBRANCH   3  20
TORSDOF 10
ENDMDL
MODEL 6
REMARK VINA RESULT:    -7.680      2.880      4.788
REMARK INTER + INTRA:         -13.175
REMARK INTER:                 -11.938
REMARK INTRA:                  -1.237
REMARK UNBOUND:                -1.229
REMARK  Name = 
REMARK  13 active torsions:
REMARK  status: ('A' for Active; 'I' for Inactive)
REMARK    1  A    between atoms: C_1  and  C_2
REMARK    2  A    between atoms: C_2  and  C_3
REMARK    3  A    between atoms: C_2  and  C_4
REMARK    4  A    between atoms: N_6  and  C_7
REMARK    5  A    between atoms: C_9  and  O_10
REMARK    6  A    between atoms: O_10  and  C_11
REMARK    7  A    between atoms: C_11  and  C_12
REMARK    8  A    between atoms: C_12  and  C_13
REMARK    9  A    between atoms: C_13  and  C_14
REMARK   10  A    between atoms: C_13  and  O_15
REMARK   11  A    between atoms: C_13  and  C_16
REMARK   12  A    between atoms: C_19  and  C_20
REMARK   13  A    between atoms: C_26  and  C_27
REMARK                            x       y       z     vdW  Elec       q    Type
REMARK                         _______ _______ _______ _____ _____    ______ ____
ROOT
ATOM      1  C   UNL     1      48.496   6.450  15.041  0.00  0.00    +0.000 A 
ATOM      2  C   UNL     1      47.589   5.738  14.248  0.00  0.00    +0.000 A 
ATOM      3  C   UNL     1      46.951   4.576  14.702  0.00  0.00    +0.000 A 
ATOM      4  C   UNL     1      47.207   4.115  15.983  0.00  0.00    +0.000 A 
ATOM      5  C   UNL     1      48.117   4.786  16.808  0.00  0.00    +0.000 A 
ATOM      6  C   UNL     1      48.727   5.960  16.330  0.00  0.00    +0.000 A 
ENDROOT
BRANCH   1   9
ATOM      7  C   UNL     1      50.775   8.093  12.752  0.00  0.00    +0.000 C 
ATOM      8  C   UNL     1      49.284   7.894  13.134  0.00  0.00    +0.000 C 
ATOM      9  N   UNL     1      49.156   7.562  14.563  0.00  0.00    +0.000 N 
ATOM     10  C   UNL     1      49.878   8.478  15.459  0.00  0.00    +0.000 C 
ATOM     11  C   UNL     1      51.340   8.574  15.003  0.00  0.00    +0.000 C 
ATOM     12  O   UNL     1      51.426   9.023  13.644  0.00  0.00    +0.000 OA
BRANCH   7  14
ATOM     13  C   UNL     1      51.683   9.946  11.226  0.00  0.00    +0.000 C 
ATOM     14  C   UNL     1      50.940   8.607  11.302  0.00  0.00    +0.000 C 
ATOM     15  C   UNL     1      51.689   7.580  10.444  0.00  0.00    +0.000 C 
ENDBRANCH   7  14
ENDBRANCH   1   9
BRANCH   5  16
ATOM     16  C   UNL     1      48.489   4.255  18.164  0.00  0.00    +0.000 C 
ATOM     17  F   UNL     1      49.822   4.324  18.435  0.00  0.00    +0.000 F 
ATOM     18  F   UNL     1      47.872   4.940  19.170  0.00  0.00    +0.000 F 
ATOM     19  F   UNL     1      48.139   2.950  18.337  0.00  0.00    +0.000 F 
ENDBRANCH   5  16
BRANCH   3  20
ATOM     20  O   UNL     1      46.092   3.810  13.958  0.00  0.00    +0.000 OA
BRANCH  20  21
ATOM     21  C   UNL     1      45.088   4.530  13.239  0.00  0.00    +0.000 C 
BRANCH  21  22
ATOM     22  C   UNL     1      44.607   3.680  12.068  0.00  0.00    +0.000 C 
BRANCH  22  23
ATOM     23  C   UNL     1      44.414   4.501  10.776  0.00  0.00    +0.000 C 
ATOM     24  C   UNL     1      44.817   5.955  11.034  0.00  0.00    +0.000 C 
BRANCH  23  25
ATOM     25  C   UNL     1      45.162   3.965   9.543  0.00  0.00    +0.000 A 
ATOM     26  C   UNL     1      45.222   2.602   9.251  0.00  0.00    +0.000 A 
ATOM     27  C   UNL     1      45.911   2.166   8.117  0.00  0.00    +0.000 A 
ATOM     28  C   UNL     1      46.547   3.089   7.290  0.00  0.00    +0.000 A 
ATOM     29  C   UNL     1      46.443   4.426   7.645  0.00  0.00    +0.000 A 
ATOM     30  N   UNL     1      45.773   4.885   8.745  0.00  0.00    +0.000 NA
BRANCH  28  31
ATOM     31  C   UNL     1      47.299   2.585   6.110  0.00  0.00    +0.000 C 
ATOM     32  N   UNL     1      48.556   2.075   6.283  0.00  0.00    +0.000 N 
ATOM     33  O   UNL     1      46.806   2.617   4.995  0.00  0.00    +0.000 OA
ATOM     34  H   UNL     1      49.054   1.989   7.155  0.00  0.00    +0.000 HD
ATOM     35  H   UNL     1      49.012   1.723   5.450  0.00  0.00    +0.000 HD
ENDBRANCH  28  31
ENDBRANCH  23  25
BRANCH  23  36
ATOM     36  O   UNL     1      43.002   4.534  10.495  0.00  0.00    +0.000 OA
ATOM     37  H   UNL     1      42.666   5.319  10.974  0.00  0.00    +0.000 HD
ENDBRANCH  23  36
ENDBRANCH  22  23
ENDBRANCH  21  22
ENDBRANCH  20  21
ENDBRANCH   3  20
TORSDOF 10
ENDMDL
MODEL 7
REMARK VINA RESULT:    -7.413      4.150      8.792
REMARK INTER + INTRA:         -12.759
REMARK INTER:                 -11.438
REMARK INTRA:                  -1.321
REMARK UNBOUND:                -1.229
REMARK  Name = 
REMARK  13 active torsions:
REMARK  status: ('A' for Active; 'I' for Inactive)
REMARK    1  A    between atoms: C_1  and  C_2
REMARK    2  A    between atoms: C_2  and  C_3
REMARK    3  A    between atoms: C_2  and  C_4
REMARK    4  A    between atoms: N_6  and  C_7
REMARK    5  A    between atoms: C_9  and  O_10
REMARK    6  A    between atoms: O_10  and  C_11
REMARK    7  A    between atoms: C_11  and  C_12
REMARK    8  A    between atoms: C_12  and  C_13
REMARK    9  A    between atoms: C_13  and  C_14
REMARK   10  A    between atoms: C_13  and  O_15
REMARK   11  A    between atoms: C_13  and  C_16
REMARK   12  A    between atoms: C_19  and  C_20
REMARK   13  A    between atoms: C_26  and  C_27
REMARK                            x       y       z     vdW  Elec       q    Type
REMARK                         _______ _______ _______ _____ _____    ______ ____
ROOT
ATOM      1  C   UNL     1      46.237   5.903  12.190  0.00  0.00    +0.000 A 
ATOM      2  C   UNL     1      46.999   5.275  13.182  0.00  0.00    +0.000 A 
ATOM      3  C   UNL     1      46.782   3.944  13.560  0.00  0.00    +0.000 A 
ATOM      4  C   UNL     1      45.794   3.208  12.928  0.00  0.00    +0.000 A 
ATOM      5  C   UNL     1      44.997   3.796  11.939  0.00  0.00    +0.000 A 
ATOM      6  C   UNL     1      45.251   5.129  11.569  0.00  0.00    +0.000 A 
ENDROOT
BRANCH   1   9
ATOM      7  C   UNL     1      47.807   9.134  12.668  0.00  0.00    +0.000 C 
ATOM      8  C   UNL     1      47.746   7.873  11.764  0.00  0.00    +0.000 C 
ATOM      9  N   UNL     1      46.426   7.229  11.864  0.00  0.00    +0.000 N 
ATOM     10  C   UNL     1      45.294   8.147  11.673  0.00  0.00    +0.000 C 
ATOM     11  C   UNL     1      45.445   9.334  12.633  0.00  0.00    +0.000 C 
ATOM     12  O   UNL     1      46.690  10.013  12.418  0.00  0.00    +0.000 OA
BRANCH   7  14
ATOM     13  C   UNL     1      50.366   9.046  12.495  0.00  0.00    +0.000 C 
ATOM     14  C   UNL     1      49.116   9.933  12.464  0.00  0.00    +0.000 C 
ATOM     15  C   UNL     1      49.085  10.694  11.134  0.00  0.00    +0.000 C 
ENDBRANCH   7  14
ENDBRANCH   1   9
BRANCH   5  16
ATOM     16  C   UNL     1      43.853   3.055  11.306  0.00  0.00    +0.000 C 
ATOM     17  F   UNL     1      43.334   2.071  12.091  0.00  0.00    +0.000 F 
ATOM     18  F   UNL     1      42.808   3.881  11.011  0.00  0.00    +0.000 F 
ATOM     19  F   UNL     1      44.195   2.457  10.130  0.00  0.00    +0.000 F 
ENDBRANCH   5  16
BRANCH   3  20
ATOM     20  O   UNL     1      47.462   3.290  14.555  0.00  0.00    +0.000 OA
BRANCH  20  21
ATOM     21  C   UNL     1      47.148   3.698  15.889  0.00  0.00    +0.000 C 
BRANCH  21  22
ATOM     22  C   UNL     1      48.048   2.948  16.865  0.00  0.00    +0.000 C 
BRANCH  22  23
ATOM     23  C   UNL     1      49.218   3.811  17.381  0.00  0.00    +0.000 C 
ATOM     24  C   UNL     1      48.799   4.511  18.676  0.00  0.00    +0.000 C 
BRANCH  23  25
ATOM     25  C   UNL     1      50.539   3.055  17.603  0.00  0.00    +0.000 A 
ATOM     26  C   UNL     1      51.654   3.672  18.174  0.00  0.00    +0.000 A 
ATOM     27  C   UNL     1      52.830   2.942  18.358  0.00  0.00    +0.000 A 
ATOM     28  C   UNL     1      52.893   1.609  17.959  0.00  0.00    +0.000 A 
ATOM     29  C   UNL     1      51.745   1.066  17.401  0.00  0.00    +0.000 A 
ATOM     30  N   UNL     1      50.578   1.752  17.210  0.00  0.00    +0.000 NA
BRANCH  28  31
ATOM     31  C   UNL     1      54.173   0.873  18.141  0.00  0.00    +0.000 C 
ATOM     32  N   UNL     1      55.097   0.875  17.134  0.00  0.00    +0.000 N 
ATOM     33  O   UNL     1      54.408   0.274  19.178  0.00  0.00    +0.000 OA
ATOM     34  H   UNL     1      55.015   1.344  16.245  0.00  0.00    +0.000 HD
ATOM     35  H   UNL     1      55.961   0.380  17.320  0.00  0.00    +0.000 HD
ENDBRANCH  28  31
ENDBRANCH  23  25
BRANCH  23  36
ATOM     36  O   UNL     1      49.430   4.864  16.422  0.00  0.00    +0.000 OA
ATOM     37  H   UNL     1      48.534   5.118  16.121  0.00  0.00    +0.000 HD
ENDBRANCH  23  36
ENDBRANCH  22  23
ENDBRANCH  21  22
ENDBRANCH  20  21
ENDBRANCH   3  20
TORSDOF 10
ENDMDL
MODEL 8
REMARK VINA RESULT:    -7.168      4.059      8.413
REMARK INTER + INTRA:         -12.379
REMARK INTER:                 -10.300
REMARK INTRA:                  -2.079
REMARK UNBOUND:                -1.229
REMARK  Name = 
REMARK  13 active torsions:
REMARK  status: ('A' for Active; 'I' for Inactive)
REMARK    1  A    between atoms: C_1  and  C_2
REMARK    2  A    between atoms: C_2  and  C_3
REMARK    3  A    between atoms: C_2  and  C_4
REMARK    4  A    between atoms: N_6  and  C_7
REMARK    5  A    between atoms: C_9  and  O_10
REMARK    6  A    between atoms: O_10  and  C_11
REMARK    7  A    between atoms: C_11  and  C_12
REMARK    8  A    between atoms: C_12  and  C_13
REMARK    9  A    between atoms: C_13  and  C_14
REMARK   10  A    between atoms: C_13  and  O_15
REMARK   11  A    between atoms: C_13  and  C_16
REMARK   12  A    between atoms: C_19  and  C_20
REMARK   13  A    between atoms: C_26  and  C_27
REMARK                            x       y       z     vdW  Elec       q    Type
REMARK                         _______ _______ _______ _____ _____    ______ ____
ROOT
ATOM      1  C   UNL     1      46.458   5.870  12.227  0.00  0.00    +0.000 A 
ATOM      2  C   UNL     1      47.151   5.166  13.218  0.00  0.00    +0.000 A 
ATOM      3  C   UNL     1      46.809   3.857  13.583  0.00  0.00    +0.000 A 
ATOM      4  C   UNL     1      45.759   3.223  12.939  0.00  0.00    +0.000 A 
ATOM      5  C   UNL     1      45.027   3.891  11.951  0.00  0.00    +0.000 A 
ATOM      6  C   UNL     1      45.407   5.197  11.594  0.00  0.00    +0.000 A 
ENDROOT
BRANCH   1   9
ATOM      7  C   UNL     1      48.567   8.808  12.457  0.00  0.00    +0.000 C 
ATOM      8  C   UNL     1      48.122   7.632  11.546  0.00  0.00    +0.000 C 
ATOM      9  N   UNL     1      46.772   7.175  11.913  0.00  0.00    +0.000 N 
ATOM     10  C   UNL     1      45.778   8.254  12.011  0.00  0.00    +0.000 C 
ATOM     11  C   UNL     1      46.310   9.341  12.954  0.00  0.00    +0.000 C 
ATOM     12  O   UNL     1      47.568   9.851  12.492  0.00  0.00    +0.000 OA
BRANCH   7  14
ATOM     13  C   UNL     1      50.831   8.408  11.318  0.00  0.00    +0.000 C 
ATOM     14  C   UNL     1      49.907   9.427  11.995  0.00  0.00    +0.000 C 
ATOM     15  C   UNL     1      49.663  10.590  11.025  0.00  0.00    +0.000 C 
ENDBRANCH   7  14
ENDBRANCH   1   9
BRANCH   5  16
ATOM     16  C   UNL     1      43.823   3.265  11.306  0.00  0.00    +0.000 C 
ATOM     17  F   UNL     1      42.826   4.150  11.028  0.00  0.00    +0.000 F 
ATOM     18  F   UNL     1      44.130   2.670  10.117  0.00  0.00    +0.000 F 
ATOM     19  F   UNL     1      43.257   2.290  12.071  0.00  0.00    +0.000 F 
ENDBRANCH   5  16
BRANCH   3  20
ATOM     20  O   UNL     1      47.417   3.135  14.576  0.00  0.00    +0.000 OA
BRANCH  20  21
ATOM     21  C   UNL     1      47.055   3.493  15.912  0.00  0.00    +0.000 C 
BRANCH  21  22
ATOM     22  C   UNL     1      48.302   3.475  16.789  0.00  0.00    +0.000 C 
BRANCH  22  23
ATOM     23  C   UNL     1      48.304   4.600  17.844  0.00  0.00    +0.000 C 
ATOM     24  C   UNL     1      49.266   4.231  18.977  0.00  0.00    +0.000 C 
BRANCH  23  25
ATOM     25  C   UNL     1      48.646   6.000  17.307  0.00  0.00    +0.000 A 
ATOM     26  C   UNL     1      48.244   7.162  17.968  0.00  0.00    +0.000 A 
ATOM     27  C   UNL     1      48.583   8.410  17.442  0.00  0.00    +0.000 A 
ATOM     28  C   UNL     1      49.307   8.493  16.255  0.00  0.00    +0.000 A 
ATOM     29  C   UNL     1      49.672   7.296  15.657  0.00  0.00    +0.000 A 
ATOM     30  N   UNL     1      49.359   6.058  16.148  0.00  0.00    +0.000 NA
BRANCH  28  31
ATOM     31  C   UNL     1      49.622   9.840  15.708  0.00  0.00    +0.000 C 
ATOM     32  N   UNL     1      48.604  10.723  15.474  0.00  0.00    +0.000 N 
ATOM     33  O   UNL     1      50.773  10.166  15.472  0.00  0.00    +0.000 OA
ATOM     34  H   UNL     1      47.623  10.566  15.642  0.00  0.00    +0.000 HD
ATOM     35  H   UNL     1      48.877  11.635  15.125  0.00  0.00    +0.000 HD
ENDBRANCH  28  31
ENDBRANCH  23  25
BRANCH  23  36
ATOM     36  O   UNL     1      46.994   4.629  18.443  0.00  0.00    +0.000 OA
ATOM     37  H   UNL     1      46.540   3.833  18.102  0.00  0.00    +0.000 HD
ENDBRANCH  23  36
ENDBRANCH  22  23
ENDBRANCH  21  22
ENDBRANCH  20  21
ENDBRANCH   3  20
TORSDOF 10
ENDMDL
MODEL 9
REMARK VINA RESULT:    -7.155      1.839      2.223
REMARK INTER + INTRA:         -12.359
REMARK INTER:                 -11.224
REMARK INTRA:                  -1.135
REMARK UNBOUND:                -1.229
REMARK  Name = 
REMARK  13 active torsions:
REMARK  status: ('A' for Active; 'I' for Inactive)
REMARK    1  A    between atoms: C_1  and  C_2
REMARK    2  A    between atoms: C_2  and  C_3
REMARK    3  A    between atoms: C_2  and  C_4
REMARK    4  A    between atoms: N_6  and  C_7
REMARK    5  A    between atoms: C_9  and  O_10
REMARK    6  A    between atoms: O_10  and  C_11
REMARK    7  A    between atoms: C_11  and  C_12
REMARK    8  A    between atoms: C_12  and  C_13
REMARK    9  A    between atoms: C_13  and  C_14
REMARK   10  A    between atoms: C_13  and  O_15
REMARK   11  A    between atoms: C_13  and  C_16
REMARK   12  A    between atoms: C_19  and  C_20
REMARK   13  A    between atoms: C_26  and  C_27
REMARK                            x       y       z     vdW  Elec       q    Type
REMARK                         _______ _______ _______ _____ _____    ______ ____
ROOT
ATOM      1  C   UNL     1      48.844   6.711  15.125  0.00  0.00    +0.000 A 
ATOM      2  C   UNL     1      47.622   6.219  14.654  0.00  0.00    +0.000 A 
ATOM      3  C   UNL     1      47.245   6.318  13.308  0.00  0.00    +0.000 A 
ATOM      4  C   UNL     1      48.109   6.908  12.401  0.00  0.00    +0.000 A 
ATOM      5  C   UNL     1      49.337   7.427  12.827  0.00  0.00    +0.000 A 
ATOM      6  C   UNL     1      49.694   7.295  14.181  0.00  0.00    +0.000 A 
ENDROOT
BRANCH   1   9
ATOM      7  C   UNL     1      51.237   6.872  17.842  0.00  0.00    +0.000 C 
ATOM      8  C   UNL     1      50.076   7.614  17.127  0.00  0.00    +0.000 C 
ATOM      9  N   UNL     1      49.181   6.654  16.461  0.00  0.00    +0.000 N 
ATOM     10  C   UNL     1      48.733   5.552  17.325  0.00  0.00    +0.000 C 
ATOM     11  C   UNL     1      49.959   4.878  17.952  0.00  0.00    +0.000 C 
ATOM     12  O   UNL     1      50.739   5.822  18.699  0.00  0.00    +0.000 OA
BRANCH   7  14
ATOM     13  C   UNL     1      51.453   9.205  18.888  0.00  0.00    +0.000 C 
ATOM     14  C   UNL     1      52.103   7.831  18.693  0.00  0.00    +0.000 C 
ATOM     15  C   UNL     1      52.391   7.223  20.072  0.00  0.00    +0.000 C 
ENDBRANCH   7  14
ENDBRANCH   1   9
BRANCH   5  16
ATOM     16  C   UNL     1      50.251   8.159  11.885  0.00  0.00    +0.000 C 
ATOM     17  F   UNL     1      49.692   9.270  11.330  0.00  0.00    +0.000 F 
ATOM     18  F   UNL     1      51.388   8.589  12.505  0.00  0.00    +0.000 F 
ATOM     19  F   UNL     1      50.667   7.388  10.842  0.00  0.00    +0.000 F 
ENDBRANCH   5  16
BRANCH   3  20
ATOM     20  O   UNL     1      46.044   5.899  12.797  0.00  0.00    +0.000 OA
BRANCH  20  21
ATOM     21  C   UNL     1      46.031   4.575  12.257  0.00  0.00    +0.000 C 
BRANCH  21  22
ATOM     22  C   UNL     1      44.632   3.988  12.409  0.00  0.00    +0.000 C 
BRANCH  22  23
ATOM     23  C   UNL     1      43.886   3.869  11.064  0.00  0.00    +0.000 C 
ATOM     24  C   UNL     1      43.188   5.195  10.752  0.00  0.00    +0.000 C 
BRANCH  23  25
ATOM     25  C   UNL     1      44.757   3.446   9.868  0.00  0.00    +0.000 A 
ATOM     26  C   UNL     1      45.050   2.107   9.606  0.00  0.00    +0.000 A 
ATOM     27  C   UNL     1      45.843   1.775   8.505  0.00  0.00    +0.000 A 
ATOM     28  C   UNL     1      46.349   2.778   7.682  0.00  0.00    +0.000 A 
ATOM     29  C   UNL     1      46.013   4.084   8.006  0.00  0.00    +0.000 A 
ATOM     30  N   UNL     1      45.237   4.443   9.073  0.00  0.00    +0.000 NA
BRANCH  28  31
ATOM     31  C   UNL     1      47.215   2.388   6.538  0.00  0.00    +0.000 C 
ATOM     32  N   UNL     1      47.188   3.132   5.391  0.00  0.00    +0.000 N 
ATOM     33  O   UNL     1      47.951   1.418   6.613  0.00  0.00    +0.000 OA
ATOM     34  H   UNL     1      46.631   3.955   5.224  0.00  0.00    +0.000 HD
ATOM     35  H   UNL     1      47.816   2.837   4.653  0.00  0.00    +0.000 HD
ENDBRANCH  28  31
ENDBRANCH  23  25
BRANCH  23  36
ATOM     36  O   UNL     1      42.829   2.907  11.243  0.00  0.00    +0.000 OA
ATOM     37  H   UNL     1      42.892   2.631  12.180  0.00  0.00    +0.000 HD
ENDBRANCH  23  36
ENDBRANCH  22  23
ENDBRANCH  21  22
ENDBRANCH  20  21
ENDBRANCH   3  20
TORSDOF 10
ENDMDL
