MODEL 1
REMARK VINA RESULT:    -6.519      0.000      0.000
REMARK INTER + INTRA:          -8.742
REMARK INTER:                  -8.043
REMARK INTRA:                  -0.699
REMARK UNBOUND:                -0.699
REMARK  Name = 
REMARK  7 active torsions:
REMARK  status: ('A' for Active; 'I' for Inactive)
REMARK    1  A    between atoms: C_1  and  C_2
REMARK    2  A    between atoms: C_2  and  C_3
REMARK    3  A    between atoms: C_2  and  C_4
REMARK    4  A    between atoms: C_2  and  C_5
REMARK    5  A    between atoms: C_9  and  C_10
REMARK    6  A    between atoms: N_16  and  C_17
REMARK    7  A    between atoms: C_17  and  C_18
REMARK                            x       y       z     vdW  Elec       q    Type
REMARK                         _______ _______ _______ _____ _____    ______ ____
ROOT
ATOM      1  C   UNL     1      44.580   4.049  11.090  0.00  0.00    +0.000 A 
ATOM      2  N   UNL     1      44.853   2.856  10.566  0.00  0.00    +0.000 NA
ATOM      3  C   UNL     1      45.540   3.076   9.408  0.00  0.00    +0.000 A 
ATOM      4  C   UNL     1      46.036   2.178   8.451  0.00  0.00    +0.000 A 
ATOM      5  C   UNL     1      46.685   2.731   7.344  0.00  0.00    +0.000 A 
ATOM      6  C   UNL     1      46.810   4.122   7.260  0.00  0.00    +0.000 A 
ATOM      7  N   UNL     1      46.337   5.025   8.164  0.00  0.00    +0.000 NA
ATOM      8  C   UNL     1      45.721   4.433   9.202  0.00  0.00    +0.000 A 
ATOM      9  N   UNL     1      45.070   5.048  10.254  0.00  0.00    +0.000 N 
ENDROOT
BRANCH   5  10
ATOM     10  C   UNL     1      47.245   1.919   6.232  0.00  0.00    +0.000 C 
ATOM     11  N   UNL     1      47.953   2.549   5.250  0.00  0.00    +0.000 N 
ATOM     12  O   UNL     1      47.086   0.705   6.196  0.00  0.00    +0.000 OA
ATOM     13  H   UNL     1      48.143   3.538   5.203  0.00  0.00    +0.000 HD
ATOM     14  H   UNL     1      48.331   1.965   4.513  0.00  0.00    +0.000 HD
ENDBRANCH   5  10
BRANCH   1  16
ATOM     15  C   UNL     1      43.305   2.826  12.866  0.00  0.00    +0.000 C 
ATOM     16  C   UNL     1      43.861   4.208  12.431  0.00  0.00    +0.000 C 
ATOM     17  C   UNL     1      42.653   5.148  12.365  0.00  0.00    +0.000 C 
ATOM     18  C   UNL     1      44.835   4.672  13.527  0.00  0.00    +0.000 C 
ENDBRANCH   1  16
BRANCH   9  19
ATOM     19  C   UNL     1      44.933   6.496  10.330  0.00  0.00    +0.000 C 
BRANCH  19  20
ATOM     20  C   UNL     1      45.831   7.107  11.383  0.00  0.00    +0.000 A 
ATOM     21  C   UNL     1      45.392   8.118  12.238  0.00  0.00    +0.000 A 
ATOM     22  C   UNL     1      46.203   8.505  13.300  0.00  0.00    +0.000 A 
ATOM     23  C   UNL     1      47.446   7.910  13.461  0.00  0.00    +0.000 A 
ATOM     24  C   UNL     1      47.846   6.974  12.525  0.00  0.00    +0.000 A 
ATOM     25  N   UNL     1      47.075   6.570  11.491  0.00  0.00    +0.000 NA
ENDBRANCH  19  20
ENDBRANCH   9  19
TORSDOF 4
ENDMDL
MODEL 2
REMARK VINA RESULT:    -5.851      2.844      5.816
REMARK INTER + INTRA:          -7.918
REMARK INTER:                  -7.760
REMARK INTRA:                  -0.158
REMARK UNBOUND:                -0.699
REMARK  Name = 
REMARK  7 active torsions:
REMARK  status: ('A' for Active; 'I' for Inactive)
REMARK    1  A    between atoms: C_1  and  C_2
REMARK    2  A    between atoms: C_2  and  C_3
REMARK    3  A    between atoms: C_2  and  C_4
REMARK    4  A    between atoms: C_2  and  C_5
REMARK    5  A    between atoms: C_9  and  C_10
REMARK    6  A    between atoms: N_16  and  C_17
REMARK    7  A    between atoms: C_17  and  C_18
REMARK                            x       y       z     vdW  Elec       q    Type
REMARK                         _______ _______ _______ _____ _____    ______ ____
ROOT
ATOM      1  C   UNL     1      44.762   5.051  12.389  0.00  0.00    +0.000 A 
ATOM      2  N   UNL     1      45.516   5.166  13.481  0.00  0.00    +0.000 NA
ATOM      3  C   UNL     1      46.624   5.877  13.128  0.00  0.00    +0.000 A 
ATOM      4  C   UNL     1      47.750   6.252  13.877  0.00  0.00    +0.000 A 
ATOM      5  C   UNL     1      48.744   6.971  13.206  0.00  0.00    +0.000 A 
ATOM      6  C   UNL     1      48.556   7.279  11.854  0.00  0.00    +0.000 A 
ATOM      7  N   UNL     1      47.483   6.928  11.093  0.00  0.00    +0.000 NA
ATOM      8  C   UNL     1      46.566   6.236  11.793  0.00  0.00    +0.000 A 
ATOM      9  N   UNL     1      45.399   5.671  11.318  0.00  0.00    +0.000 N 
ENDROOT
BRANCH   5  10
ATOM     10  C   UNL     1      50.006   7.421  13.848  0.00  0.00    +0.000 C 
ATOM     11  N   UNL     1      50.991   7.947  13.064  0.00  0.00    +0.000 N 
ATOM     12  O   UNL     1      50.163   7.334  15.060  0.00  0.00    +0.000 OA
ATOM     13  H   UNL     1      50.947   8.068  12.065  0.00  0.00    +0.000 HD
ATOM     14  H   UNL     1      51.834   8.255  13.535  0.00  0.00    +0.000 HD
ENDBRANCH   5  10
BRANCH   1  16
ATOM     15  C   UNL     1      42.959   4.157  13.881  0.00  0.00    +0.000 C 
ATOM     16  C   UNL     1      43.399   4.357  12.406  0.00  0.00    +0.000 C 
ATOM     17  C   UNL     1      43.422   2.959  11.779  0.00  0.00    +0.000 C 
ATOM     18  C   UNL     1      42.329   5.226  11.726  0.00  0.00    +0.000 C 
ENDBRANCH   1  16
BRANCH   9  19
ATOM     19  C   UNL     1      45.037   5.726   9.908  0.00  0.00    +0.000 C 
BRANCH  19  20
ATOM     20  C   UNL     1      45.589   4.557   9.123  0.00  0.00    +0.000 A 
ATOM     21  C   UNL     1      45.245   3.237   9.415  0.00  0.00    +0.000 A 
ATOM     22  C   UNL     1      45.637   2.226   8.543  0.00  0.00    +0.000 A 
ATOM     23  C   UNL     1      46.397   2.546   7.427  0.00  0.00    +0.000 A 
ATOM     24  C   UNL     1      46.768   3.866   7.249  0.00  0.00    +0.000 A 
ATOM     25  N   UNL     1      46.392   4.870   8.072  0.00  0.00    +0.000 NA
ENDBRANCH  19  20
ENDBRANCH   9  19
TORSDOF 4
ENDMDL
MODEL 3
REMARK VINA RESULT:    -5.791      3.825      6.024
REMARK INTER + INTRA:          -7.845
REMARK INTER:                  -7.487
REMARK INTRA:                  -0.358
REMARK UNBOUND:                -0.699
REMARK  Name = 
REMARK  7 active torsions:
REMARK  status: ('A' for Active; 'I' for Inactive)
REMARK    1  A    between atoms: C_1  and  C_2
REMARK    2  A    between atoms: C_2  and  C_3
REMARK    3  A    between atoms: C_2  and  C_4
REMARK    4  A    between atoms: C_2  and  C_5
REMARK    5  A    between atoms: C_9  and  C_10
REMARK    6  A    between atoms: N_16  and  C_17
REMARK    7  A    between atoms: C_17  and  C_18
REMARK                            x       y       z     vdW  Elec       q    Type
REMARK                         _______ _______ _______ _____ _____    ______ ____
ROOT
ATOM      1  C   UNL     1      45.068   4.701  12.534  0.00  0.00    +0.000 A 
ATOM      2  N   UNL     1      45.303   4.031  13.661  0.00  0.00    +0.000 NA
ATOM      3  C   UNL     1      46.352   4.644  14.279  0.00  0.00    +0.000 A 
ATOM      4  C   UNL     1      47.025   4.331  15.469  0.00  0.00    +0.000 A 
ATOM      5  C   UNL     1      48.096   5.157  15.825  0.00  0.00    +0.000 A 
ATOM      6  C   UNL     1      48.422   6.234  14.993  0.00  0.00    +0.000 A 
ATOM      7  N   UNL     1      47.798   6.565  13.829  0.00  0.00    +0.000 NA
ATOM      8  C   UNL     1      46.781   5.733  13.540  0.00  0.00    +0.000 A 
ATOM      9  N   UNL     1      45.988   5.738  12.410  0.00  0.00    +0.000 N 
ENDROOT
BRANCH   5  10
ATOM     10  C   UNL     1      48.925   4.947  17.040  0.00  0.00    +0.000 C 
ATOM     11  N   UNL     1      48.466   5.414  18.237  0.00  0.00    +0.000 N 
ATOM     12  O   UNL     1      49.998   4.357  16.978  0.00  0.00    +0.000 OA
ATOM     13  H   UNL     1      47.595   5.898  18.385  0.00  0.00    +0.000 HD
ATOM     14  H   UNL     1      49.050   5.244  19.048  0.00  0.00    +0.000 HD
ENDBRANCH   5  10
BRANCH   1  16
ATOM     15  C   UNL     1      43.475   2.881  11.883  0.00  0.00    +0.000 C 
ATOM     16  C   UNL     1      43.919   4.339  11.592  0.00  0.00    +0.000 C 
ATOM     17  C   UNL     1      44.313   4.372  10.112  0.00  0.00    +0.000 C 
ATOM     18  C   UNL     1      42.700   5.243  11.836  0.00  0.00    +0.000 C 
ENDBRANCH   1  16
BRANCH   9  19
ATOM     19  C   UNL     1      46.212   6.675  11.318  0.00  0.00    +0.000 C 
BRANCH  19  20
ATOM     20  C   UNL     1      45.506   7.995  11.533  0.00  0.00    +0.000 A 
ATOM     21  C   UNL     1      46.132   9.083  12.142  0.00  0.00    +0.000 A 
ATOM     22  C   UNL     1      45.493  10.319  12.142  0.00  0.00    +0.000 A 
ATOM     23  C   UNL     1      44.231  10.433  11.576  0.00  0.00    +0.000 A 
ATOM     24  C   UNL     1      43.641   9.293  11.064  0.00  0.00    +0.000 A 
ATOM     25  N   UNL     1      44.242   8.082  11.040  0.00  0.00    +0.000 NA
ENDBRANCH  19  20
ENDBRANCH   9  19
TORSDOF 4
ENDMDL
MODEL 4
REMARK VINA RESULT:    -5.661      3.248      5.395
REMARK INTER + INTRA:          -7.684
REMARK INTER:                  -7.058
REMARK INTRA:                  -0.626
REMARK UNBOUND:                -0.699
REMARK  Name = 
REMARK  7 active torsions:
REMARK  status: ('A' for Active; 'I' for Inactive)
REMARK    1  A    between atoms: C_1  and  C_2
REMARK    2  A    between atoms: C_2  and  C_3
REMARK    3  A    between atoms: C_2  and  C_4
REMARK    4  A    between atoms: C_2  and  C_5
REMARK    5  A    between atoms: C_9  and  C_10
REMARK    6  A    between atoms: N_16  and  C_17
REMARK    7  A    between atoms: C_17  and  C_18
REMARK                            x       y       z     vdW  Elec       q    Type
REMARK                         _______ _______ _______ _____ _____    ______ ____
ROOT
ATOM      1  C   UNL     1      48.045   6.696  14.396  0.00  0.00    +0.000 A 
ATOM      2  N   UNL     1      47.544   5.472  14.548  0.00  0.00    +0.000 NA
ATOM      3  C   UNL     1      46.760   5.223  13.460  0.00  0.00    +0.000 A 
ATOM      4  C   UNL     1      45.975   4.107  13.131  0.00  0.00    +0.000 A 
ATOM      5  C   UNL     1      45.258   4.171  11.933  0.00  0.00    +0.000 A 
ATOM      6  C   UNL     1      45.370   5.319  11.140  0.00  0.00    +0.000 A 
ATOM      7  N   UNL     1      46.115   6.422  11.428  0.00  0.00    +0.000 NA
ATOM      8  C   UNL     1      46.778   6.301  12.593  0.00  0.00    +0.000 A 
ATOM      9  N   UNL     1      47.562   7.252  13.214  0.00  0.00    +0.000 N 
ENDROOT
BRANCH   5  10
ATOM     10  C   UNL     1      44.363   3.086  11.454  0.00  0.00    +0.000 C 
ATOM     11  N   UNL     1      43.797   2.248  12.371  0.00  0.00    +0.000 N 
ATOM     12  O   UNL     1      44.125   2.945  10.260  0.00  0.00    +0.000 OA
ATOM     13  H   UNL     1      43.925   2.295  13.369  0.00  0.00    +0.000 HD
ATOM     14  H   UNL     1      43.182   1.526  12.012  0.00  0.00    +0.000 HD
ENDBRANCH   5  10
BRANCH   1  16
ATOM     15  C   UNL     1      49.083   6.403  16.657  0.00  0.00    +0.000 C 
ATOM     16  C   UNL     1      49.023   7.309  15.398  0.00  0.00    +0.000 C 
ATOM     17  C   UNL     1      48.595   8.694  15.896  0.00  0.00    +0.000 C 
ATOM     18  C   UNL     1      50.445   7.371  14.815  0.00  0.00    +0.000 C 
ENDBRANCH   1  16
BRANCH   9  19
ATOM     19  C   UNL     1      47.729   8.590  12.663  0.00  0.00    +0.000 C 
BRANCH  19  20
ATOM     20  C   UNL     1      49.070   8.774  11.988  0.00  0.00    +0.000 A 
ATOM     21  C   UNL     1      49.749   9.993  12.005  0.00  0.00    +0.000 A 
ATOM     22  C   UNL     1      51.055  10.046  11.529  0.00  0.00    +0.000 A 
ATOM     23  C   UNL     1      51.639   8.900  11.009  0.00  0.00    +0.000 A 
ATOM     24  C   UNL     1      50.874   7.750  10.951  0.00  0.00    +0.000 A 
ATOM     25  N   UNL     1      49.608   7.665  11.416  0.00  0.00    +0.000 NA
ENDBRANCH  19  20
ENDBRANCH   9  19
TORSDOF 4
ENDMDL
MODEL 5
REMARK VINA RESULT:    -5.536      4.320      6.510
REMARK INTER + INTRA:          -7.530
REMARK INTER:                  -7.017
REMARK INTRA:                  -0.513
REMARK UNBOUND:                -0.699
REMARK  Name = 
REMARK  7 active torsions:
REMARK  status: ('A' for Active; 'I' for Inactive)
REMARK    1  A    between atoms: C_1  and  C_2
REMARK    2  A    between atoms: C_2  and  C_3
REMARK    3  A    between atoms: C_2  and  C_4
REMARK    4  A    between atoms: C_2  and  C_5
REMARK    5  A    between atoms: C_9  and  C_10
REMARK    6  A    between atoms: N_16  and  C_17
REMARK    7  A    between atoms: C_17  and  C_18
REMARK                            x       y       z     vdW  Elec       q    Type
REMARK                         _______ _______ _______ _____ _____    ______ ____
ROOT
ATOM      1  C   UNL     1      47.639   8.683  12.560  0.00  0.00    +0.000 A 
ATOM      2  N   UNL     1      46.396   8.414  12.164  0.00  0.00    +0.000 NA
ATOM      3  C   UNL     1      46.083   7.175  12.642  0.00  0.00    +0.000 A 
ATOM      4  C   UNL     1      44.925   6.400  12.491  0.00  0.00    +0.000 A 
ATOM      5  C   UNL     1      44.925   5.139  13.095  0.00  0.00    +0.000 A 
ATOM      6  C   UNL     1      46.057   4.736  13.812  0.00  0.00    +0.000 A 
ATOM      7  N   UNL     1      47.201   5.456  13.976  0.00  0.00    +0.000 NA
ATOM      8  C   UNL     1      47.140   6.656  13.369  0.00  0.00    +0.000 A 
ATOM      9  N   UNL     1      48.142   7.601  13.277  0.00  0.00    +0.000 N 
ENDROOT
BRANCH   5  10
ATOM     10  C   UNL     1      43.787   4.187  13.008  0.00  0.00    +0.000 C 
ATOM     11  N   UNL     1      44.040   2.890  12.670  0.00  0.00    +0.000 N 
ATOM     12  O   UNL     1      42.641   4.551  13.244  0.00  0.00    +0.000 OA
ATOM     13  H   UNL     1      44.947   2.499  12.470  0.00  0.00    +0.000 HD
ATOM     14  H   UNL     1      43.243   2.264  12.631  0.00  0.00    +0.000 HD
ENDBRANCH   5  10
BRANCH   1  16
ATOM     15  C   UNL     1      47.335  10.917  11.469  0.00  0.00    +0.000 C 
ATOM     16  C   UNL     1      48.322  10.017  12.259  0.00  0.00    +0.000 C 
ATOM     17  C   UNL     1      49.565   9.877  11.373  0.00  0.00    +0.000 C 
ATOM     18  C   UNL     1      48.677  10.761  13.557  0.00  0.00    +0.000 C 
ENDBRANCH   1  16
BRANCH   9  19
ATOM     19  C   UNL     1      49.472   7.366  13.822  0.00  0.00    +0.000 C 
BRANCH  19  20
ATOM     20  C   UNL     1      49.481   7.334  15.334  0.00  0.00    +0.000 A 
ATOM     21  C   UNL     1      48.846   8.309  16.102  0.00  0.00    +0.000 A 
ATOM     22  C   UNL     1      48.733   8.122  17.476  0.00  0.00    +0.000 A 
ATOM     23  C   UNL     1      49.291   6.993  18.057  0.00  0.00    +0.000 A 
ATOM     24  C   UNL     1      49.977   6.112  17.242  0.00  0.00    +0.000 A 
ATOM     25  N   UNL     1      50.092   6.262  15.904  0.00  0.00    +0.000 NA
ENDBRANCH  19  20
ENDBRANCH   9  19
TORSDOF 4
ENDMDL
MODEL 6
REMARK VINA RESULT:    -5.509      4.219      6.220
REMARK INTER + INTRA:          -7.496
REMARK INTER:                  -6.943
REMARK INTRA:                  -0.553
REMARK UNBOUND:                -0.699
REMARK  Name = 
REMARK  7 active torsions:
REMARK  status: ('A' for Active; 'I' for Inactive)
REMARK    1  A    between atoms: C_1  and  C_2
REMARK    2  A    between atoms: C_2  and  C_3
REMARK    3  A    between atoms: C_2  and  C_4
REMARK    4  A    between atoms: C_2  and  C_5
REMARK    5  A    between atoms: C_9  and  C_10
REMARK    6  A    between atoms: N_16  and  C_17
REMARK    7  A    between atoms: C_17  and  C_18
REMARK                            x       y       z     vdW  Elec       q    Type
REMARK                         _______ _______ _______ _____ _____    ______ ____
ROOT
ATOM      1  C   UNL     1      47.833   4.804  16.115  0.00  0.00    +0.000 A 
ATOM      2  N   UNL     1      46.815   4.377  15.372  0.00  0.00    +0.000 NA
ATOM      3  C   UNL     1      46.848   5.080  14.204  0.00  0.00    +0.000 A 
ATOM      4  C   UNL     1      45.994   5.054  13.092  0.00  0.00    +0.000 A 
ATOM      5  C   UNL     1      46.292   5.931  12.045  0.00  0.00    +0.000 A 
ATOM      6  C   UNL     1      47.412   6.763  12.161  0.00  0.00    +0.000 A 
ATOM      7  N   UNL     1      48.260   6.822  13.225  0.00  0.00    +0.000 NA
ATOM      8  C   UNL     1      47.918   5.959  14.198  0.00  0.00    +0.000 A 
ATOM      9  N   UNL     1      48.515   5.808  15.434  0.00  0.00    +0.000 N 
ENDROOT
BRANCH   5  10
ATOM     10  C   UNL     1      45.473   6.043  10.810  0.00  0.00    +0.000 C 
ATOM     11  N   UNL     1      44.271   6.685  10.875  0.00  0.00    +0.000 N 
ATOM     12  O   UNL     1      45.869   5.579   9.747  0.00  0.00    +0.000 OA
ATOM     13  H   UNL     1      43.872   7.106  11.699  0.00  0.00    +0.000 HD
ATOM     14  H   UNL     1      43.743   6.754  10.012  0.00  0.00    +0.000 HD
ENDBRANCH   5  10
BRANCH   1  16
ATOM     15  C   UNL     1      47.447   2.828  17.605  0.00  0.00    +0.000 C 
ATOM     16  C   UNL     1      48.154   4.204  17.484  0.00  0.00    +0.000 C 
ATOM     17  C   UNL     1      47.638   5.048  18.654  0.00  0.00    +0.000 C 
ATOM     18  C   UNL     1      49.664   3.954  17.636  0.00  0.00    +0.000 C 
ENDBRANCH   1  16
BRANCH   9  19
ATOM     19  C   UNL     1      49.620   6.656  15.862  0.00  0.00    +0.000 C 
BRANCH  19  20
ATOM     20  C   UNL     1      49.177   7.752  16.805  0.00  0.00    +0.000 A 
ATOM     21  C   UNL     1      48.311   8.771  16.408  0.00  0.00    +0.000 A 
ATOM     22  C   UNL     1      47.798   9.636  17.368  0.00  0.00    +0.000 A 
ATOM     23  C   UNL     1      48.191   9.496  18.692  0.00  0.00    +0.000 A 
ATOM     24  C   UNL     1      49.116   8.515  18.995  0.00  0.00    +0.000 A 
ATOM     25  N   UNL     1      49.622   7.652  18.086  0.00  0.00    +0.000 NA
ENDBRANCH  19  20
ENDBRANCH   9  19
TORSDOF 4
ENDMDL
MODEL 7
REMARK VINA RESULT:    -5.423      4.428      6.376
REMARK INTER + INTRA:          -7.391
REMARK INTER:                  -7.085
REMARK INTRA:                  -0.306
REMARK UNBOUND:                -0.699
REMARK  Name = 
REMARK  7 active torsions:
REMARK  status: ('A' for Active; 'I' for Inactive)
REMARK    1  A    between atoms: C_1  and  C_2
REMARK    2  A    between atoms: C_2  and  C_3
REMARK    3  A    between atoms: C_2  and  C_4
REMARK    4  A    between atoms: C_2  and  C_5
REMARK    5  A    between atoms: C_9  and  C_10
REMARK    6  A    between atoms: N_16  and  C_17
REMARK    7  A    between atoms: C_17  and  C_18
REMARK                            x       y       z     vdW  Elec       q    Type
REMARK                         _______ _______ _______ _____ _____    ______ ____
ROOT
ATOM      1  C   UNL     1      47.860   4.316  16.160  0.00  0.00    +0.000 A 
ATOM      2  N   UNL     1      47.092   3.742  15.236  0.00  0.00    +0.000 NA
ATOM      3  C   UNL     1      46.914   4.655  14.240  0.00  0.00    +0.000 A 
ATOM      4  C   UNL     1      46.169   4.585  13.053  0.00  0.00    +0.000 A 
ATOM      5  C   UNL     1      46.171   5.721  12.238  0.00  0.00    +0.000 A 
ATOM      6  C   UNL     1      46.912   6.838  12.640  0.00  0.00    +0.000 A 
ATOM      7  N   UNL     1      47.641   6.946  13.785  0.00  0.00    +0.000 NA
ATOM      8  C   UNL     1      47.596   5.825  14.527  0.00  0.00    +0.000 A 
ATOM      9  N   UNL     1      48.161   5.618  15.770  0.00  0.00    +0.000 N 
ENDROOT
BRANCH   5  10
ATOM     10  C   UNL     1      45.414   5.817  10.963  0.00  0.00    +0.000 C 
ATOM     11  N   UNL     1      44.576   6.878  10.774  0.00  0.00    +0.000 N 
ATOM     12  O   UNL     1      45.541   4.968  10.088  0.00  0.00    +0.000 OA
ATOM     13  H   UNL     1      44.418   7.627  11.429  0.00  0.00    +0.000 HD
ATOM     14  H   UNL     1      44.084   6.919   9.889  0.00  0.00    +0.000 HD
ENDBRANCH   5  10
BRANCH   1  16
ATOM     15  C   UNL     1      47.255   2.514  17.792  0.00  0.00    +0.000 C 
ATOM     16  C   UNL     1      48.324   3.574  17.414  0.00  0.00    +0.000 C 
ATOM     17  C   UNL     1      48.468   4.483  18.639  0.00  0.00    +0.000 C 
ATOM     18  C   UNL     1      49.639   2.821  17.154  0.00  0.00    +0.000 C 
ENDBRANCH   1  16
BRANCH   9  19
ATOM     19  C   UNL     1      48.870   6.675  16.477  0.00  0.00    +0.000 C 
BRANCH  19  20
ATOM     20  C   UNL     1      50.344   6.709  16.139  0.00  0.00    +0.000 A 
ATOM     21  C   UNL     1      50.876   7.616  15.222  0.00  0.00    +0.000 A 
ATOM     22  C   UNL     1      52.258   7.719  15.096  0.00  0.00    +0.000 A 
ATOM     23  C   UNL     1      53.075   6.890  15.852  0.00  0.00    +0.000 A 
ATOM     24  C   UNL     1      52.473   5.960  16.678  0.00  0.00    +0.000 A 
ATOM     25  N   UNL     1      51.134   5.845  16.830  0.00  0.00    +0.000 NA
ENDBRANCH  19  20
ENDBRANCH   9  19
TORSDOF 4
ENDMDL
MODEL 8
REMARK VINA RESULT:    -5.421      4.825      7.807
REMARK INTER + INTRA:          -7.388
REMARK INTER:                  -6.964
REMARK INTRA:                  -0.424
REMARK UNBOUND:                -0.699
REMARK  Name = 
REMARK  7 active torsions:
REMARK  status: ('A' for Active; 'I' for Inactive)
REMARK    1  A    between atoms: C_1  and  C_2
REMARK    2  A    between atoms: C_2  and  C_3
REMARK    3  A    between atoms: C_2  and  C_4
REMARK    4  A    between atoms: C_2  and  C_5
REMARK    5  A    between atoms: C_9  and  C_10
REMARK    6  A    between atoms: N_16  and  C_17
REMARK    7  A    between atoms: C_17  and  C_18
REMARK                            x       y       z     vdW  Elec       q    Type
REMARK                         _______ _______ _______ _____ _____    ______ ____
ROOT
ATOM      1  C   UNL     1      47.981   7.014  13.896  0.00  0.00    +0.000 A 
ATOM      2  N   UNL     1      48.377   7.288  15.138  0.00  0.00    +0.000 NA
ATOM      3  C   UNL     1      48.226   6.146  15.867  0.00  0.00    +0.000 A 
ATOM      4  C   UNL     1      48.458   5.887  17.226  0.00  0.00    +0.000 A 
ATOM      5  C   UNL     1      48.177   4.595  17.680  0.00  0.00    +0.000 A 
ATOM      6  C   UNL     1      47.700   3.649  16.767  0.00  0.00    +0.000 A 
ATOM      7  N   UNL     1      47.456   3.862  15.444  0.00  0.00    +0.000 NA
ATOM      8  C   UNL     1      47.742   5.123  15.070  0.00  0.00    +0.000 A 
ATOM      9  N   UNL     1      47.548   5.693  13.828  0.00  0.00    +0.000 N 
ENDROOT
BRANCH   5  10
ATOM     10  C   UNL     1      48.346   4.168  19.094  0.00  0.00    +0.000 C 
ATOM     11  N   UNL     1      48.317   2.835  19.385  0.00  0.00    +0.000 N 
ATOM     12  O   UNL     1      48.518   4.991  19.985  0.00  0.00    +0.000 OA
ATOM     13  H   UNL     1      48.193   2.090  18.719  0.00  0.00    +0.000 HD
ATOM     14  H   UNL     1      48.447   2.578  20.357  0.00  0.00    +0.000 HD
ENDBRANCH   5  10
BRANCH   1  16
ATOM     15  C   UNL     1      46.689   8.767  12.658  0.00  0.00    +0.000 C 
ATOM     16  C   UNL     1      48.057   8.044  12.768  0.00  0.00    +0.000 C 
ATOM     17  C   UNL     1      48.317   7.420  11.393  0.00  0.00    +0.000 C 
ATOM     18  C   UNL     1      49.116   9.117  13.072  0.00  0.00    +0.000 C 
ENDBRANCH   1  16
BRANCH   9  19
ATOM     19  C   UNL     1      46.929   4.958  12.733  0.00  0.00    +0.000 C 
BRANCH  19  20
ATOM     20  C   UNL     1      45.438   5.194  12.647  0.00  0.00    +0.000 A 
ATOM     21  C   UNL     1      44.881   6.119  11.764  0.00  0.00    +0.000 A 
ATOM     22  C   UNL     1      43.500   6.155  11.602  0.00  0.00    +0.000 A 
ATOM     23  C   UNL     1      42.704   5.301  12.352  0.00  0.00    +0.000 A 
ATOM     24  C   UNL     1      43.323   4.469  13.266  0.00  0.00    +0.000 A 
ATOM     25  N   UNL     1      44.663   4.405  13.437  0.00  0.00    +0.000 NA
ENDBRANCH  19  20
ENDBRANCH   9  19
TORSDOF 4
ENDMDL
MODEL 9
REMARK VINA RESULT:    -5.369      4.516      7.130
REMARK INTER + INTRA:          -7.324
REMARK INTER:                  -7.004
REMARK INTRA:                  -0.320
REMARK UNBOUND:                -0.699
REMARK  Name = 
REMARK  7 active torsions:
REMARK  status: ('A' for Active; 'I' for Inactive)
REMARK    1  A    between atoms: C_1  and  C_2
REMARK    2  A    between atoms: C_2  and  C_3
REMARK    3  A    between atoms: C_2  and  C_4
REMARK    4  A    between atoms: C_2  and  C_5
REMARK    5  A    between atoms: C_9  and  C_10
REMARK    6  A    between atoms: N_16  and  C_17
REMARK    7  A    between atoms: C_17  and  C_18
REMARK                            x       y       z     vdW  Elec       q    Type
REMARK                         _______ _______ _______ _____ _____    ______ ____
ROOT
ATOM      1  C   UNL     1      49.058   6.900  15.273  0.00  0.00    +0.000 A 
ATOM      2  N   UNL     1      48.748   7.158  14.004  0.00  0.00    +0.000 NA
ATOM      3  C   UNL     1      47.743   6.305  13.656  0.00  0.00    +0.000 A 
ATOM      4  C   UNL     1      47.071   6.127  12.437  0.00  0.00    +0.000 A 
ATOM      5  C   UNL     1      46.087   5.135  12.397  0.00  0.00    +0.000 A 
ATOM      6  C   UNL     1      45.826   4.398  13.557  0.00  0.00    +0.000 A 
ATOM      7  N   UNL     1      46.459   4.536  14.755  0.00  0.00    +0.000 NA
ATOM      8  C   UNL     1      47.396   5.502  14.728  0.00  0.00    +0.000 A 
ATOM      9  N   UNL     1      48.265   5.856  15.741  0.00  0.00    +0.000 N 
ENDROOT
BRANCH   5  10
ATOM     10  C   UNL     1      45.304   4.806  11.178  0.00  0.00    +0.000 C 
ATOM     11  N   UNL     1      45.103   5.780  10.243  0.00  0.00    +0.000 N 
ATOM     12  O   UNL     1      44.852   3.681  11.003  0.00  0.00    +0.000 OA
ATOM     13  H   UNL     1      45.446   6.726  10.296  0.00  0.00    +0.000 HD
ATOM     14  H   UNL     1      44.575   5.519   9.418  0.00  0.00    +0.000 HD
ENDBRANCH   5  10
BRANCH   1  16
ATOM     15  C   UNL     1      49.682   7.809  17.522  0.00  0.00    +0.000 C 
ATOM     16  C   UNL     1      50.114   7.700  16.036  0.00  0.00    +0.000 C 
ATOM     17  C   UNL     1      50.265   9.140  15.534  0.00  0.00    +0.000 C 
ATOM     18  C   UNL     1      51.474   6.984  16.009  0.00  0.00    +0.000 C 
ENDBRANCH   1  16
BRANCH   9  19
ATOM     19  C   UNL     1      48.295   5.143  17.011  0.00  0.00    +0.000 C 
BRANCH  19  20
ATOM     20  C   UNL     1      49.334   4.044  17.034  0.00  0.00    +0.000 A 
ATOM     21  C   UNL     1      50.582   4.215  17.633  0.00  0.00    +0.000 A 
ATOM     22  C   UNL     1      51.417   3.111  17.783  0.00  0.00    +0.000 A 
ATOM     23  C   UNL     1      51.009   1.877  17.298  0.00  0.00    +0.000 A 
ATOM     24  C   UNL     1      49.793   1.804  16.644  0.00  0.00    +0.000 A 
ATOM     25  N   UNL     1      48.957   2.856  16.493  0.00  0.00    +0.000 NA
ENDBRANCH  19  20
ENDBRANCH   9  19
TORSDOF 4
ENDMDL
