MODEL 1
REMARK VINA RESULT:    -7.916      0.000      0.000
REMARK INTER + INTRA:         -11.524
REMARK INTER:                 -10.692
REMARK INTRA:                  -0.832
REMARK UNBOUND:                -0.832
REMARK  Name = 
REMARK  6 active torsions:
REMARK  status: ('A' for Active; 'I' for Inactive)
REMARK    1  A    between atoms: C_2  and  C_18
REMARK    2  A    between atoms: N_3  and  C_4
REMARK    3  A    between atoms: C_4  and  C_5
REMARK    4  A    between atoms: C_8  and  O_9
REMARK    5  A    between atoms: O_9  and  C_10
REMARK    6  A    between atoms: C_10  and  C_11
REMARK                            x       y       z     vdW  Elec       q    Type
REMARK                         _______ _______ _______ _____ _____    ______ ____
ROOT
ATOM      1  O   UNL     1      48.987   6.755  13.103  0.00  0.00    +0.000 OA
ATOM      2  C   UNL     1      48.245   6.723  14.079  0.00  0.00    +0.000 C 
ATOM      3  N   UNL     1      46.923   7.082  14.011  0.00  0.00    +0.000 N 
ATOM      4  H   UNL     1      46.388   7.182  14.866  0.00  0.00    +0.000 HD
ENDROOT
BRANCH   2   5
ATOM      5  C   UNL     1      48.718   6.244  15.384  0.00  0.00    +0.000 A 
ATOM      6  C   UNL     1      49.718   6.938  16.055  0.00  0.00    +0.000 A 
ATOM      7  S   UNL     1      50.137   6.252  17.558  0.00  0.00    +0.000 S 
ATOM      8  C   UNL     1      48.970   5.026  17.388  0.00  0.00    +0.000 A 
ATOM      9  N   UNL     1      48.772   4.103  18.368  0.00  0.00    +0.000 NA
ATOM     10  C   UNL     1      47.825   3.261  18.125  0.00  0.00    +0.000 A 
ATOM     11  N   UNL     1      47.068   3.244  16.984  0.00  0.00    +0.000 N 
ATOM     12  C   UNL     1      47.295   4.097  15.931  0.00  0.00    +0.000 A 
ATOM     13  O   UNL     1      46.711   3.949  14.863  0.00  0.00    +0.000 OA
ATOM     14  C   UNL     1      48.299   5.112  16.180  0.00  0.00    +0.000 A 
ATOM     15  H   UNL     1      46.370   2.532  16.836  0.00  0.00    +0.000 HD
ENDBRANCH   2   5
BRANCH   3  16
ATOM     16  C   UNL     1      46.310   7.598  12.815  0.00  0.00    +0.000 C 
BRANCH  16  17
ATOM     17  C   UNL     1      45.737   6.501  11.955  0.00  0.00    +0.000 A 
ATOM     18  C   UNL     1      46.112   6.394  10.610  0.00  0.00    +0.000 A 
ATOM     19  C   UNL     1      45.627   5.353   9.811  0.00  0.00    +0.000 A 
ATOM     20  C   UNL     1      44.748   4.407  10.337  0.00  0.00    +0.000 A 
ATOM     21  C   UNL     1      44.344   4.527  11.671  0.00  0.00    +0.000 A 
ATOM     22  C   UNL     1      44.828   5.570  12.473  0.00  0.00    +0.000 A 
BRANCH  20  23
ATOM     23  O   UNL     1      44.219   3.337   9.661  0.00  0.00    +0.000 OA
BRANCH  23  24
ATOM     24  C   UNL     1      44.559   3.237   8.273  0.00  0.00    +0.000 C 
BRANCH  24  25
ATOM     25  C   UNL     1      45.949   2.607   8.109  0.00  0.00    +0.000 C 
ATOM     26  C   UNL     1      46.545   2.775   6.719  0.00  0.00    +0.000 C 
ATOM     27  C   UNL     1      47.631   1.712   6.698  0.00  0.00    +0.000 C 
ATOM     28  C   UNL     1      47.102   0.605   7.600  0.00  0.00    +0.000 C 
ATOM     29  N   UNL     1      45.916   1.144   8.270  0.00  0.00    +0.000 NA
ATOM     30  H   UNL     1      45.908   0.887   9.256  0.00  0.00    +0.000 HD
ENDBRANCH  24  25
ENDBRANCH  23  24
ENDBRANCH  20  23
ENDBRANCH  16  17
ENDBRANCH   3  16
TORSDOF 6
ENDMDL
MODEL 2
REMARK VINA RESULT:    -7.405      1.284      1.747
REMARK INTER + INTRA:         -10.834
REMARK INTER:                  -9.932
REMARK INTRA:                  -0.901
REMARK UNBOUND:                -0.832
REMARK  Name = 
REMARK  6 active torsions:
REMARK  status: ('A' for Active; 'I' for Inactive)
REMARK    1  A    between atoms: C_2  and  C_18
REMARK    2  A    between atoms: N_3  and  C_4
REMARK    3  A    between atoms: C_4  and  C_5
REMARK    4  A    between atoms: C_8  and  O_9
REMARK    5  A    between atoms: O_9  and  C_10
REMARK    6  A    between atoms: C_10  and  C_11
REMARK                            x       y       z     vdW  Elec       q    Type
REMARK                         _______ _______ _______ _____ _____    ______ ____
ROOT
ATOM      1  O   UNL     1      50.101   7.031  14.567  0.00  0.00    +0.000 OA
ATOM      2  C   UNL     1      49.120   6.890  15.289  0.00  0.00    +0.000 C 
ATOM      3  N   UNL     1      47.840   7.098  14.843  0.00  0.00    +0.000 N 
ATOM      4  H   UNL     1      47.075   7.114  15.509  0.00  0.00    +0.000 HD
ENDROOT
BRANCH   2   5
ATOM      5  C   UNL     1      49.253   6.432  16.679  0.00  0.00    +0.000 A 
ATOM      6  C   UNL     1      49.855   7.256  17.623  0.00  0.00    +0.000 A 
ATOM      7  S   UNL     1      49.916   6.575  19.185  0.00  0.00    +0.000 S 
ATOM      8  C   UNL     1      49.104   5.173  18.667  0.00  0.00    +0.000 A 
ATOM      9  N   UNL     1      48.792   4.178  19.542  0.00  0.00    +0.000 NA
ATOM     10  C   UNL     1      48.136   3.196  19.022  0.00  0.00    +0.000 A 
ATOM     11  N   UNL     1      47.778   3.107  17.703  0.00  0.00    +0.000 N 
ATOM     12  C   UNL     1      48.153   4.042  16.768  0.00  0.00    +0.000 A 
ATOM     13  O   UNL     1      47.960   3.850  15.571  0.00  0.00    +0.000 OA
ATOM     14  C   UNL     1      48.829   5.203  17.310  0.00  0.00    +0.000 A 
ATOM     15  H   UNL     1      47.303   2.292  17.348  0.00  0.00    +0.000 HD
ENDBRANCH   2   5
BRANCH   3  16
ATOM     16  C   UNL     1      47.537   7.573  13.518  0.00  0.00    +0.000 C 
BRANCH  16  17
ATOM     17  C   UNL     1      46.740   6.569  12.726  0.00  0.00    +0.000 A 
ATOM     18  C   UNL     1      46.453   5.312  13.272  0.00  0.00    +0.000 A 
ATOM     19  C   UNL     1      45.672   4.386  12.570  0.00  0.00    +0.000 A 
ATOM     20  C   UNL     1      45.175   4.695  11.304  0.00  0.00    +0.000 A 
ATOM     21  C   UNL     1      45.485   5.937  10.740  0.00  0.00    +0.000 A 
ATOM     22  C   UNL     1      46.268   6.865  11.441  0.00  0.00    +0.000 A 
BRANCH  20  23
ATOM     23  O   UNL     1      44.389   3.881  10.529  0.00  0.00    +0.000 OA
BRANCH  23  24
ATOM     24  C   UNL     1      44.209   4.290   9.168  0.00  0.00    +0.000 C 
BRANCH  24  25
ATOM     25  C   UNL     1      44.893   3.296   8.219  0.00  0.00    +0.000 C 
ATOM     26  C   UNL     1      45.479   2.077   8.916  0.00  0.00    +0.000 C 
ATOM     27  C   UNL     1      46.450   1.541   7.878  0.00  0.00    +0.000 C 
ATOM     28  C   UNL     1      46.923   2.775   7.122  0.00  0.00    +0.000 C 
ATOM     29  N   UNL     1      46.069   3.884   7.557  0.00  0.00    +0.000 NA
ATOM     30  H   UNL     1      45.790   4.460   6.764  0.00  0.00    +0.000 HD
ENDBRANCH  24  25
ENDBRANCH  23  24
ENDBRANCH  20  23
ENDBRANCH  16  17
ENDBRANCH   3  16
TORSDOF 6
ENDMDL
MODEL 3
REMARK VINA RESULT:    -7.388      1.776      2.328
REMARK INTER + INTRA:         -10.812
REMARK INTER:                 -10.159
REMARK INTRA:                  -0.652
REMARK UNBOUND:                -0.832
REMARK  Name = 
REMARK  6 active torsions:
REMARK  status: ('A' for Active; 'I' for Inactive)
REMARK    1  A    between atoms: C_2  and  C_18
REMARK    2  A    between atoms: N_3  and  C_4
REMARK    3  A    between atoms: C_4  and  C_5
REMARK    4  A    between atoms: C_8  and  O_9
REMARK    5  A    between atoms: O_9  and  C_10
REMARK    6  A    between atoms: C_10  and  C_11
REMARK                            x       y       z     vdW  Elec       q    Type
REMARK                         _______ _______ _______ _____ _____    ______ ____
ROOT
ATOM      1  O   UNL     1      50.394   6.751  15.287  0.00  0.00    +0.000 OA
ATOM      2  C   UNL     1      49.239   6.788  15.696  0.00  0.00    +0.000 C 
ATOM      3  N   UNL     1      48.157   6.739  14.855  0.00  0.00    +0.000 N 
ATOM      4  H   UNL     1      47.230   6.921  15.222  0.00  0.00    +0.000 HD
ENDROOT
BRANCH   2   5
ATOM      5  C   UNL     1      48.937   6.836  17.133  0.00  0.00    +0.000 A 
ATOM      6  C   UNL     1      48.533   8.031  17.716  0.00  0.00    +0.000 A 
ATOM      7  S   UNL     1      48.214   7.905  19.385  0.00  0.00    +0.000 S 
ATOM      8  C   UNL     1      48.564   6.241  19.384  0.00  0.00    +0.000 A 
ATOM      9  N   UNL     1      48.442   5.496  20.517  0.00  0.00    +0.000 NA
ATOM     10  C   UNL     1      48.695   4.241  20.361  0.00  0.00    +0.000 A 
ATOM     11  N   UNL     1      49.077   3.662  19.179  0.00  0.00    +0.000 N 
ATOM     12  C   UNL     1      49.302   4.390  18.036  0.00  0.00    +0.000 A 
ATOM     13  O   UNL     1      49.801   3.867  17.044  0.00  0.00    +0.000 OA
ATOM     14  C   UNL     1      48.962   5.795  18.136  0.00  0.00    +0.000 A 
ATOM     15  H   UNL     1      49.302   2.681  19.132  0.00  0.00    +0.000 HD
ENDBRANCH   2   5
BRANCH   3  16
ATOM     16  C   UNL     1      48.278   6.717  13.420  0.00  0.00    +0.000 C 
BRANCH  16  17
ATOM     17  C   UNL     1      47.120   6.010  12.765  0.00  0.00    +0.000 A 
ATOM     18  C   UNL     1      46.640   4.808  13.298  0.00  0.00    +0.000 A 
ATOM     19  C   UNL     1      45.535   4.163  12.732  0.00  0.00    +0.000 A 
ATOM     20  C   UNL     1      44.897   4.700  11.614  0.00  0.00    +0.000 A 
ATOM     21  C   UNL     1      45.393   5.885  11.057  0.00  0.00    +0.000 A 
ATOM     22  C   UNL     1      46.501   6.531  11.623  0.00  0.00    +0.000 A 
BRANCH  20  23
ATOM     23  O   UNL     1      43.801   4.172  10.981  0.00  0.00    +0.000 OA
BRANCH  23  24
ATOM     24  C   UNL     1      43.987   2.899  10.354  0.00  0.00    +0.000 C 
BRANCH  24  25
ATOM     25  C   UNL     1      45.201   2.940   9.415  0.00  0.00    +0.000 C 
ATOM     26  C   UNL     1      44.920   3.588   8.068  0.00  0.00    +0.000 C 
ATOM     27  C   UNL     1      46.078   3.093   7.218  0.00  0.00    +0.000 C 
ATOM     28  C   UNL     1      46.415   1.723   7.790  0.00  0.00    +0.000 C 
ATOM     29  N   UNL     1      45.653   1.592   9.035  0.00  0.00    +0.000 NA
ATOM     30  H   UNL     1      46.227   1.180   9.770  0.00  0.00    +0.000 HD
ENDBRANCH  24  25
ENDBRANCH  23  24
ENDBRANCH  20  23
ENDBRANCH  16  17
ENDBRANCH   3  16
TORSDOF 6
ENDMDL
MODEL 4
REMARK VINA RESULT:    -7.219      4.081      8.669
REMARK INTER + INTRA:         -10.583
REMARK INTER:                  -9.726
REMARK INTRA:                  -0.857
REMARK UNBOUND:                -0.832
REMARK  Name = 
REMARK  6 active torsions:
REMARK  status: ('A' for Active; 'I' for Inactive)
REMARK    1  A    between atoms: C_2  and  C_18
REMARK    2  A    between atoms: N_3  and  C_4
REMARK    3  A    between atoms: C_4  and  C_5
REMARK    4  A    between atoms: C_8  and  O_9
REMARK    5  A    between atoms: O_9  and  C_10
REMARK    6  A    between atoms: C_10  and  C_11
REMARK                            x       y       z     vdW  Elec       q    Type
REMARK                         _______ _______ _______ _____ _____    ______ ____
ROOT
ATOM      1  O   UNL     1      47.380   3.222  14.014  0.00  0.00    +0.000 OA
ATOM      2  C   UNL     1      46.884   4.243  14.477  0.00  0.00    +0.000 C 
ATOM      3  N   UNL     1      46.815   4.483  15.826  0.00  0.00    +0.000 N 
ATOM      4  H   UNL     1      46.269   5.266  16.167  0.00  0.00    +0.000 HD
ENDROOT
BRANCH   2   5
ATOM      5  C   UNL     1      46.375   5.310  13.606  0.00  0.00    +0.000 A 
ATOM      6  C   UNL     1      47.170   6.415  13.328  0.00  0.00    +0.000 A 
ATOM      7  S   UNL     1      46.429   7.549  12.293  0.00  0.00    +0.000 S 
ATOM      8  C   UNL     1      45.035   6.587  12.144  0.00  0.00    +0.000 A 
ATOM      9  N   UNL     1      44.001   6.967  11.346  0.00  0.00    +0.000 NA
ATOM     10  C   UNL     1      43.029   6.120  11.291  0.00  0.00    +0.000 A 
ATOM     11  N   UNL     1      42.986   4.935  11.977  0.00  0.00    +0.000 N 
ATOM     12  C   UNL     1      43.963   4.557  12.865  0.00  0.00    +0.000 A 
ATOM     13  O   UNL     1      43.815   3.573  13.584  0.00  0.00    +0.000 OA
ATOM     14  C   UNL     1      45.114   5.436  12.909  0.00  0.00    +0.000 A 
ATOM     15  H   UNL     1      42.176   4.336  11.926  0.00  0.00    +0.000 HD
ENDBRANCH   2   5
BRANCH   3  16
ATOM     16  C   UNL     1      47.246   3.530  16.816  0.00  0.00    +0.000 C 
BRANCH  16  17
ATOM     17  C   UNL     1      48.732   3.596  17.056  0.00  0.00    +0.000 A 
ATOM     18  C   UNL     1      49.358   4.833  17.247  0.00  0.00    +0.000 A 
ATOM     19  C   UNL     1      50.729   4.909  17.519  0.00  0.00    +0.000 A 
ATOM     20  C   UNL     1      51.502   3.751  17.592  0.00  0.00    +0.000 A 
ATOM     21  C   UNL     1      50.887   2.513  17.369  0.00  0.00    +0.000 A 
ATOM     22  C   UNL     1      49.515   2.436  17.095  0.00  0.00    +0.000 A 
BRANCH  20  23
ATOM     23  O   UNL     1      52.844   3.695  17.866  0.00  0.00    +0.000 OA
BRANCH  23  24
ATOM     24  C   UNL     1      53.224   2.914  19.005  0.00  0.00    +0.000 C 
BRANCH  24  25
ATOM     25  C   UNL     1      54.232   1.832  18.596  0.00  0.00    +0.000 C 
ATOM     26  C   UNL     1      54.716   1.948  17.158  0.00  0.00    +0.000 C 
ATOM     27  C   UNL     1      55.289   0.566  16.892  0.00  0.00    +0.000 C 
ATOM     28  C   UNL     1      54.453  -0.369  17.755  0.00  0.00    +0.000 C 
ATOM     29  N   UNL     1      53.642   0.484  18.628  0.00  0.00    +0.000 NA
ATOM     30  H   UNL     1      53.623   0.117  19.578  0.00  0.00    +0.000 HD
ENDBRANCH  24  25
ENDBRANCH  23  24
ENDBRANCH  20  23
ENDBRANCH  16  17
ENDBRANCH   3  16
TORSDOF 6
ENDMDL
MODEL 5
REMARK VINA RESULT:    -6.873      2.446      3.179
REMARK INTER + INTRA:         -10.115
REMARK INTER:                  -9.361
REMARK INTRA:                  -0.754
REMARK UNBOUND:                -0.832
REMARK  Name = 
REMARK  6 active torsions:
REMARK  status: ('A' for Active; 'I' for Inactive)
REMARK    1  A    between atoms: C_2  and  C_18
REMARK    2  A    between atoms: N_3  and  C_4
REMARK    3  A    between atoms: C_4  and  C_5
REMARK    4  A    between atoms: C_8  and  O_9
REMARK    5  A    between atoms: O_9  and  C_10
REMARK    6  A    between atoms: C_10  and  C_11
REMARK                            x       y       z     vdW  Elec       q    Type
REMARK                         _______ _______ _______ _____ _____    ______ ____
ROOT
ATOM      1  O   UNL     1      50.429   6.631  15.688  0.00  0.00    +0.000 OA
ATOM      2  C   UNL     1      49.268   6.465  16.043  0.00  0.00    +0.000 C 
ATOM      3  N   UNL     1      48.210   6.564  15.176  0.00  0.00    +0.000 N 
ATOM      4  H   UNL     1      47.264   6.565  15.539  0.00  0.00    +0.000 HD
ENDROOT
BRANCH   2   5
ATOM      5  C   UNL     1      48.936   6.095  17.425  0.00  0.00    +0.000 A 
ATOM      6  C   UNL     1      49.200   4.807  17.879  0.00  0.00    +0.000 A 
ATOM      7  S   UNL     1      48.763   4.553  19.507  0.00  0.00    +0.000 S 
ATOM      8  C   UNL     1      48.245   6.163  19.679  0.00  0.00    +0.000 A 
ATOM      9  N   UNL     1      47.783   6.629  20.871  0.00  0.00    +0.000 NA
ATOM     10  C   UNL     1      47.468   7.880  20.870  0.00  0.00    +0.000 A 
ATOM     11  N   UNL     1      47.554   8.706  19.781  0.00  0.00    +0.000 N 
ATOM     12  C   UNL     1      47.925   8.256  18.537  0.00  0.00    +0.000 A 
ATOM     13  O   UNL     1      47.833   8.982  17.551  0.00  0.00    +0.000 OA
ATOM     14  C   UNL     1      48.361   6.875  18.498  0.00  0.00    +0.000 A 
ATOM     15  H   UNL     1      47.251   9.666  19.833  0.00  0.00    +0.000 HD
ENDBRANCH   2   5
BRANCH   3  16
ATOM     16  C   UNL     1      48.360   6.944  13.795  0.00  0.00    +0.000 C 
BRANCH  16  17
ATOM     17  C   UNL     1      47.281   6.352  12.925  0.00  0.00    +0.000 A 
ATOM     18  C   UNL     1      46.643   5.165  13.307  0.00  0.00    +0.000 A 
ATOM     19  C   UNL     1      45.606   4.628  12.536  0.00  0.00    +0.000 A 
ATOM     20  C   UNL     1      45.196   5.260  11.362  0.00  0.00    +0.000 A 
ATOM     21  C   UNL     1      45.852   6.429  10.959  0.00  0.00    +0.000 A 
ATOM     22  C   UNL     1      46.891   6.967  11.729  0.00  0.00    +0.000 A 
BRANCH  20  23
ATOM     23  O   UNL     1      44.186   4.842  10.534  0.00  0.00    +0.000 OA
BRANCH  23  24
ATOM     24  C   UNL     1      44.074   3.427  10.341  0.00  0.00    +0.000 C 
BRANCH  24  25
ATOM     25  C   UNL     1      44.580   3.039   8.945  0.00  0.00    +0.000 C 
ATOM     26  C   UNL     1      45.706   2.015   8.958  0.00  0.00    +0.000 C 
ATOM     27  C   UNL     1      46.303   2.166   7.569  0.00  0.00    +0.000 C 
ATOM     28  C   UNL     1      46.079   3.629   7.213  0.00  0.00    +0.000 C 
ATOM     29  N   UNL     1      45.190   4.178   8.241  0.00  0.00    +0.000 NA
ATOM     30  H   UNL     1      44.476   4.772   7.823  0.00  0.00    +0.000 HD
ENDBRANCH  24  25
ENDBRANCH  23  24
ENDBRANCH  20  23
ENDBRANCH  16  17
ENDBRANCH   3  16
TORSDOF 6
ENDMDL
MODEL 6
REMARK VINA RESULT:    -6.761      2.579      3.511
REMARK INTER + INTRA:          -9.964
REMARK INTER:                  -9.364
REMARK INTRA:                  -0.600
REMARK UNBOUND:                -0.832
REMARK  Name = 
REMARK  6 active torsions:
REMARK  status: ('A' for Active; 'I' for Inactive)
REMARK    1  A    between atoms: C_2  and  C_18
REMARK    2  A    between atoms: N_3  and  C_4
REMARK    3  A    between atoms: C_4  and  C_5
REMARK    4  A    between atoms: C_8  and  O_9
REMARK    5  A    between atoms: O_9  and  C_10
REMARK    6  A    between atoms: C_10  and  C_11
REMARK                            x       y       z     vdW  Elec       q    Type
REMARK                         _______ _______ _______ _____ _____    ______ ____
ROOT
ATOM      1  O   UNL     1      48.033   4.945  13.505  0.00  0.00    +0.000 OA
ATOM      2  C   UNL     1      47.758   6.129  13.347  0.00  0.00    +0.000 C 
ATOM      3  N   UNL     1      46.467   6.594  13.365  0.00  0.00    +0.000 N 
ATOM      4  H   UNL     1      46.277   7.550  13.085  0.00  0.00    +0.000 HD
ENDROOT
BRANCH   2   5
ATOM      5  C   UNL     1      48.807   7.143  13.179  0.00  0.00    +0.000 A 
ATOM      6  C   UNL     1      48.867   7.888  12.007  0.00  0.00    +0.000 A 
ATOM      7  S   UNL     1      50.137   9.025  11.983  0.00  0.00    +0.000 S 
ATOM      8  C   UNL     1      50.629   8.593  13.553  0.00  0.00    +0.000 A 
ATOM      9  N   UNL     1      51.663   9.231  14.166  0.00  0.00    +0.000 NA
ATOM     10  C   UNL     1      51.897   8.833  15.370  0.00  0.00    +0.000 A 
ATOM     11  N   UNL     1      51.204   7.843  16.014  0.00  0.00    +0.000 N 
ATOM     12  C   UNL     1      50.216   7.110  15.402  0.00  0.00    +0.000 A 
ATOM     13  O   UNL     1      49.731   6.125  15.949  0.00  0.00    +0.000 OA
ATOM     14  C   UNL     1      49.862   7.564  14.073  0.00  0.00    +0.000 A 
ATOM     15  H   UNL     1      51.465   7.547  16.943  0.00  0.00    +0.000 HD
ENDBRANCH   2   5
BRANCH   3  16
ATOM     16  C   UNL     1      45.323   5.730  13.493  0.00  0.00    +0.000 C 
BRANCH  16  17
ATOM     17  C   UNL     1      45.068   4.938  12.237  0.00  0.00    +0.000 A 
ATOM     18  C   UNL     1      45.142   3.541  12.261  0.00  0.00    +0.000 A 
ATOM     19  C   UNL     1      44.861   2.788  11.115  0.00  0.00    +0.000 A 
ATOM     20  C   UNL     1      44.513   3.418   9.921  0.00  0.00    +0.000 A 
ATOM     21  C   UNL     1      44.470   4.816   9.883  0.00  0.00    +0.000 A 
ATOM     22  C   UNL     1      44.753   5.572  11.028  0.00  0.00    +0.000 A 
BRANCH  20  23
ATOM     23  O   UNL     1      44.202   2.791   8.741  0.00  0.00    +0.000 OA
BRANCH  23  24
ATOM     24  C   UNL     1      44.704   3.405   7.549  0.00  0.00    +0.000 C 
BRANCH  24  25
ATOM     25  C   UNL     1      46.184   3.052   7.351  0.00  0.00    +0.000 C 
ATOM     26  C   UNL     1      46.627   3.031   5.896  0.00  0.00    +0.000 C 
ATOM     27  C   UNL     1      47.919   2.235   5.957  0.00  0.00    +0.000 C 
ATOM     28  C   UNL     1      47.718   1.267   7.115  0.00  0.00    +0.000 C 
ATOM     29  N   UNL     1      46.492   1.685   7.800  0.00  0.00    +0.000 NA
ATOM     30  H   UNL     1      46.613   1.652   8.812  0.00  0.00    +0.000 HD
ENDBRANCH  24  25
ENDBRANCH  23  24
ENDBRANCH  20  23
ENDBRANCH  16  17
ENDBRANCH   3  16
TORSDOF 6
ENDMDL
MODEL 7
REMARK VINA RESULT:    -6.697      3.226      7.772
REMARK INTER + INTRA:          -9.878
REMARK INTER:                  -8.916
REMARK INTRA:                  -0.961
REMARK UNBOUND:                -0.832
REMARK  Name = 
REMARK  6 active torsions:
REMARK  status: ('A' for Active; 'I' for Inactive)
REMARK    1  A    between atoms: C_2  and  C_18
REMARK    2  A    between atoms: N_3  and  C_4
REMARK    3  A    between atoms: C_4  and  C_5
REMARK    4  A    between atoms: C_8  and  O_9
REMARK    5  A    between atoms: O_9  and  C_10
REMARK    6  A    between atoms: C_10  and  C_11
REMARK                            x       y       z     vdW  Elec       q    Type
REMARK                         _______ _______ _______ _____ _____    ______ ____
ROOT
ATOM      1  O   UNL     1      45.611   7.869  11.799  0.00  0.00    +0.000 OA
ATOM      2  C   UNL     1      46.257   6.899  11.418  0.00  0.00    +0.000 C 
ATOM      3  N   UNL     1      47.614   6.803  11.595  0.00  0.00    +0.000 N 
ATOM      4  H   UNL     1      48.126   6.057  11.137  0.00  0.00    +0.000 HD
ENDROOT
BRANCH   2   5
ATOM      5  C   UNL     1      45.605   5.744  10.789  0.00  0.00    +0.000 A 
ATOM      6  C   UNL     1      45.762   5.517   9.427  0.00  0.00    +0.000 A 
ATOM      7  S   UNL     1      44.948   4.129   8.865  0.00  0.00    +0.000 S 
ATOM      8  C   UNL     1      44.388   3.756  10.427  0.00  0.00    +0.000 A 
ATOM      9  N   UNL     1      43.647   2.638  10.660  0.00  0.00    +0.000 NA
ATOM     10  C   UNL     1      43.330   2.456  11.897  0.00  0.00    +0.000 A 
ATOM     11  N   UNL     1      43.669   3.298  12.923  0.00  0.00    +0.000 N 
ATOM     12  C   UNL     1      44.335   4.483  12.720  0.00  0.00    +0.000 A 
ATOM     13  O   UNL     1      44.477   5.290  13.634  0.00  0.00    +0.000 OA
ATOM     14  C   UNL     1      44.780   4.702  11.359  0.00  0.00    +0.000 A 
ATOM     15  H   UNL     1      43.353   3.122  13.864  0.00  0.00    +0.000 HD
ENDBRANCH   2   5
BRANCH   3  16
ATOM     16  C   UNL     1      48.408   7.857  12.170  0.00  0.00    +0.000 C 
BRANCH  16  17
ATOM     17  C   UNL     1      48.956   7.480  13.522  0.00  0.00    +0.000 A 
ATOM     18  C   UNL     1      48.161   6.768  14.428  0.00  0.00    +0.000 A 
ATOM     19  C   UNL     1      48.670   6.367  15.668  0.00  0.00    +0.000 A 
ATOM     20  C   UNL     1      49.979   6.682  16.032  0.00  0.00    +0.000 A 
ATOM     21  C   UNL     1      50.767   7.422  15.144  0.00  0.00    +0.000 A 
ATOM     22  C   UNL     1      50.259   7.825  13.902  0.00  0.00    +0.000 A 
BRANCH  20  23
ATOM     23  O   UNL     1      50.593   6.333  17.207  0.00  0.00    +0.000 OA
BRANCH  23  24
ATOM     24  C   UNL     1      49.785   5.630  18.157  0.00  0.00    +0.000 C 
BRANCH  24  25
ATOM     25  C   UNL     1      50.205   4.156  18.227  0.00  0.00    +0.000 C 
ATOM     26  C   UNL     1      51.648   3.903  17.815  0.00  0.00    +0.000 C 
ATOM     27  C   UNL     1      51.651   2.411  17.531  0.00  0.00    +0.000 C 
ATOM     28  C   UNL     1      50.242   2.111  17.038  0.00  0.00    +0.000 C 
ATOM     29  N   UNL     1      49.449   3.319  17.281  0.00  0.00    +0.000 NA
ATOM     30  H   UNL     1      48.532   3.083  17.656  0.00  0.00    +0.000 HD
ENDBRANCH  24  25
ENDBRANCH  23  24
ENDBRANCH  20  23
ENDBRANCH  16  17
ENDBRANCH   3  16
TORSDOF 6
ENDMDL
MODEL 8
REMARK VINA RESULT:    -6.611      3.798      9.053
REMARK INTER + INTRA:          -9.761
REMARK INTER:                  -8.957
REMARK INTRA:                  -0.804
REMARK UNBOUND:                -0.832
REMARK  Name = 
REMARK  6 active torsions:
REMARK  status: ('A' for Active; 'I' for Inactive)
REMARK    1  A    between atoms: C_2  and  C_18
REMARK    2  A    between atoms: N_3  and  C_4
REMARK    3  A    between atoms: C_4  and  C_5
REMARK    4  A    between atoms: C_8  and  O_9
REMARK    5  A    between atoms: O_9  and  C_10
REMARK    6  A    between atoms: C_10  and  C_11
REMARK                            x       y       z     vdW  Elec       q    Type
REMARK                         _______ _______ _______ _____ _____    ______ ____
ROOT
ATOM      1  O   UNL     1      47.221   3.036  14.158  0.00  0.00    +0.000 OA
ATOM      2  C   UNL     1      46.856   4.112  14.620  0.00  0.00    +0.000 C 
ATOM      3  N   UNL     1      46.842   4.368  15.967  0.00  0.00    +0.000 N 
ATOM      4  H   UNL     1      46.397   5.212  16.311  0.00  0.00    +0.000 HD
ENDROOT
BRANCH   2   5
ATOM      5  C   UNL     1      46.457   5.223  13.747  0.00  0.00    +0.000 A 
ATOM      6  C   UNL     1      47.334   6.279  13.526  0.00  0.00    +0.000 A 
ATOM      7  S   UNL     1      46.716   7.475  12.481  0.00  0.00    +0.000 S 
ATOM      8  C   UNL     1      45.271   6.609  12.253  0.00  0.00    +0.000 A 
ATOM      9  N   UNL     1      44.301   7.069  11.416  0.00  0.00    +0.000 NA
ATOM     10  C   UNL     1      43.279   6.289  11.303  0.00  0.00    +0.000 A 
ATOM     11  N   UNL     1      43.129   5.098  11.963  0.00  0.00    +0.000 N 
ATOM     12  C   UNL     1      44.038   4.642  12.886  0.00  0.00    +0.000 A 
ATOM     13  O   UNL     1      43.794   3.658  13.578  0.00  0.00    +0.000 OA
ATOM     14  C   UNL     1      45.240   5.443  12.998  0.00  0.00    +0.000 A 
ATOM     15  H   UNL     1      42.285   4.554  11.864  0.00  0.00    +0.000 HD
ENDBRANCH   2   5
BRANCH   3  16
ATOM     16  C   UNL     1      47.178   3.380  16.958  0.00  0.00    +0.000 C 
BRANCH  16  17
ATOM     17  C   UNL     1      48.666   3.276  17.172  0.00  0.00    +0.000 A 
ATOM     18  C   UNL     1      49.377   4.362  17.695  0.00  0.00    +0.000 A 
ATOM     19  C   UNL     1      50.751   4.267  17.945  0.00  0.00    +0.000 A 
ATOM     20  C   UNL     1      51.442   3.088  17.665  0.00  0.00    +0.000 A 
ATOM     21  C   UNL     1      50.742   2.010  17.111  0.00  0.00    +0.000 A 
ATOM     22  C   UNL     1      49.367   2.105  16.858  0.00  0.00    +0.000 A 
BRANCH  20  23
ATOM     23  O   UNL     1      52.779   2.868  17.880  0.00  0.00    +0.000 OA
BRANCH  23  24
ATOM     24  C   UNL     1      53.308   3.361  19.116  0.00  0.00    +0.000 C 
BRANCH  24  25
ATOM     25  C   UNL     1      54.517   4.268  18.853  0.00  0.00    +0.000 C 
ATOM     26  C   UNL     1      54.427   5.631  19.525  0.00  0.00    +0.000 C 
ATOM     27  C   UNL     1      55.453   6.445  18.756  0.00  0.00    +0.000 C 
ATOM     28  C   UNL     1      55.445   5.847  17.355  0.00  0.00    +0.000 C 
ATOM     29  N   UNL     1      54.647   4.620  17.430  0.00  0.00    +0.000 NA
ATOM     30  H   UNL     1      55.090   3.867  16.907  0.00  0.00    +0.000 HD
ENDBRANCH  24  25
ENDBRANCH  23  24
ENDBRANCH  20  23
ENDBRANCH  16  17
ENDBRANCH   3  16
TORSDOF 6
ENDMDL
MODEL 9
REMARK VINA RESULT:    -6.455      4.320      9.104
REMARK INTER + INTRA:          -9.551
REMARK INTER:                  -8.544
REMARK INTRA:                  -1.007
REMARK UNBOUND:                -0.832
REMARK  Name = 
REMARK  6 active torsions:
REMARK  status: ('A' for Active; 'I' for Inactive)
REMARK    1  A    between atoms: C_2  and  C_18
REMARK    2  A    between atoms: N_3  and  C_4
REMARK    3  A    between atoms: C_4  and  C_5
REMARK    4  A    between atoms: C_8  and  O_9
REMARK    5  A    between atoms: O_9  and  C_10
REMARK    6  A    between atoms: C_10  and  C_11
REMARK                            x       y       z     vdW  Elec       q    Type
REMARK                         _______ _______ _______ _____ _____    ______ ____
ROOT
ATOM      1  O   UNL     1      47.215   3.171  14.127  0.00  0.00    +0.000 OA
ATOM      2  C   UNL     1      47.087   4.335  14.491  0.00  0.00    +0.000 C 
ATOM      3  N   UNL     1      47.136   4.704  15.811  0.00  0.00    +0.000 N 
ATOM      4  H   UNL     1      46.880   5.649  16.075  0.00  0.00    +0.000 HD
ENDROOT
BRANCH   2   5
ATOM      5  C   UNL     1      46.923   5.426  13.521  0.00  0.00    +0.000 A 
ATOM      6  C   UNL     1      45.870   5.393  12.614  0.00  0.00    +0.000 A 
ATOM      7  S   UNL     1      45.823   6.741  11.572  0.00  0.00    +0.000 S 
ATOM      8  C   UNL     1      47.182   7.438  12.318  0.00  0.00    +0.000 A 
ATOM      9  N   UNL     1      47.656   8.651  11.924  0.00  0.00    +0.000 NA
ATOM     10  C   UNL     1      48.663   9.079  12.608  0.00  0.00    +0.000 A 
ATOM     11  N   UNL     1      49.254   8.398  13.638  0.00  0.00    +0.000 N 
ATOM     12  C   UNL     1      48.868   7.132  14.008  0.00  0.00    +0.000 A 
ATOM     13  O   UNL     1      49.522   6.486  14.821  0.00  0.00    +0.000 OA
ATOM     14  C   UNL     1      47.694   6.632  13.322  0.00  0.00    +0.000 A 
ATOM     15  H   UNL     1      50.067   8.768  14.106  0.00  0.00    +0.000 HD
ENDBRANCH   2   5
BRANCH   3  16
ATOM     16  C   UNL     1      47.265   3.756  16.887  0.00  0.00    +0.000 C 
BRANCH  16  17
ATOM     17  C   UNL     1      48.706   3.432  17.186  0.00  0.00    +0.000 A 
ATOM     18  C   UNL     1      49.211   2.156  16.909  0.00  0.00    +0.000 A 
ATOM     19  C   UNL     1      50.558   1.853  17.135  0.00  0.00    +0.000 A 
ATOM     20  C   UNL     1      51.424   2.816  17.654  0.00  0.00    +0.000 A 
ATOM     21  C   UNL     1      50.917   4.083  17.963  0.00  0.00    +0.000 A 
ATOM     22  C   UNL     1      49.568   4.388  17.739  0.00  0.00    +0.000 A 
BRANCH  20  23
ATOM     23  O   UNL     1      52.761   2.645  17.904  0.00  0.00    +0.000 OA
BRANCH  23  24
ATOM     24  C   UNL     1      53.315   1.378  17.531  0.00  0.00    +0.000 C 
BRANCH  24  25
ATOM     25  C   UNL     1      54.550   1.064  18.386  0.00  0.00    +0.000 C 
ATOM     26  C   UNL     1      54.691  -0.405  18.757  0.00  0.00    +0.000 C 
ATOM     27  C   UNL     1      55.660  -0.357  19.926  0.00  0.00    +0.000 C 
ATOM     28  C   UNL     1      55.383   0.980  20.599  0.00  0.00    +0.000 C 
ATOM     29  N   UNL     1      54.495   1.723  19.701  0.00  0.00    +0.000 NA
ATOM     30  H   UNL     1      54.782   2.698  19.633  0.00  0.00    +0.000 HD
ENDBRANCH  24  25
ENDBRANCH  23  24
ENDBRANCH  20  23
ENDBRANCH  16  17
ENDBRANCH   3  16
TORSDOF 6
ENDMDL
