MODEL 1
REMARK VINA RESULT:    -7.979      0.000      0.000
REMARK INTER + INTRA:         -10.507
REMARK INTER:                 -10.078
REMARK INTRA:                  -0.429
REMARK UNBOUND:                -0.429
REMARK  Name = 
REMARK  5 active torsions:
REMARK  status: ('A' for Active; 'I' for Inactive)
REMARK    1  A    between atoms: N_1  and  C_2
REMARK    2  A    between atoms: C_2  and  C_3
REMARK    3  A    between atoms: C_3  and  C_4
REMARK    4  A    between atoms: C_7  and  C_8
REMARK    5  A    between atoms: C_8  and  N_9
REMARK                            x       y       z     vdW  Elec       q    Type
REMARK                         _______ _______ _______ _____ _____    ______ ____
ROOT
ATOM      1  C   UNL     1      43.413   2.902  11.261  0.00  0.00    +0.000 C 
ENDROOT
BRANCH   1   2
ATOM      2  N   UNL     1      43.536   4.082  12.107  0.00  0.00    +0.000 N 
ATOM      3  C   UNL     1      42.676   5.151  12.056  0.00  0.00    +0.000 A 
ATOM      4  N   UNL     1      43.265   6.267  12.412  0.00  0.00    +0.000 NA
ATOM      5  C   UNL     1      44.550   5.915  12.755  0.00  0.00    +0.000 A 
ATOM      6  C   UNL     1      45.656   6.705  13.106  0.00  0.00    +0.000 A 
ATOM      7  F   UNL     1      45.580   8.045  13.103  0.00  0.00    +0.000 F 
ATOM      8  C   UNL     1      46.862   6.078  13.413  0.00  0.00    +0.000 A 
ATOM      9  F   UNL     1      47.946   6.816  13.696  0.00  0.00    +0.000 F 
ATOM     10  C   UNL     1      46.979   4.689  13.418  0.00  0.00    +0.000 A 
ATOM     11  C   UNL     1      45.900   3.878  13.051  0.00  0.00    +0.000 A 
ATOM     12  C   UNL     1      44.711   4.525  12.682  0.00  0.00    +0.000 A 
ENDBRANCH   1   2
BRANCH   1  16
ATOM     13  C   UNL     1      45.881   3.086   7.702  0.00  0.00    +0.000 A 
ATOM     14  C   UNL     1      45.229   4.228   8.180  0.00  0.00    +0.000 A 
ATOM     15  C   UNL     1      44.405   4.161   9.311  0.00  0.00    +0.000 A 
ATOM     16  C   UNL     1      44.205   2.948   9.983  0.00  0.00    +0.000 A 
ATOM     17  C   UNL     1      44.831   1.800   9.491  0.00  0.00    +0.000 A 
ATOM     18  C   UNL     1      45.659   1.869   8.366  0.00  0.00    +0.000 A 
BRANCH  13  19
ATOM     19  C   UNL     1      46.746   3.086   6.457  0.00  0.00    +0.000 C 
BRANCH  19  20
ATOM     20  C   UNL     1      48.140   2.457   6.589  0.00  0.00    +0.000 C 
BRANCH  20  21
ATOM     21  N   UNL     1      48.514   1.765   5.356  0.00  0.00    +0.000 NA
ATOM     22  H   UNL     1      48.242   2.333   4.552  0.00  0.00    +0.000 HD
ATOM     23  H   UNL     1      47.991   0.893   5.275  0.00  0.00    +0.000 HD
ENDBRANCH  20  21
ENDBRANCH  19  20
ENDBRANCH  13  19
ENDBRANCH   1  16
TORSDOF 5
ENDMDL
MODEL 2
REMARK VINA RESULT:    -7.372      3.437      6.716
REMARK INTER + INTRA:          -9.740
REMARK INTER:                  -9.705
REMARK INTRA:                  -0.035
REMARK UNBOUND:                -0.429
REMARK  Name = 
REMARK  5 active torsions:
REMARK  status: ('A' for Active; 'I' for Inactive)
REMARK    1  A    between atoms: N_1  and  C_2
REMARK    2  A    between atoms: C_2  and  C_3
REMARK    3  A    between atoms: C_3  and  C_4
REMARK    4  A    between atoms: C_7  and  C_8
REMARK    5  A    between atoms: C_8  and  N_9
REMARK                            x       y       z     vdW  Elec       q    Type
REMARK                         _______ _______ _______ _____ _____    ______ ____
ROOT
ATOM      1  C   UNL     1      44.967   5.404  10.516  0.00  0.00    +0.000 C 
ENDROOT
BRANCH   1   2
ATOM      2  N   UNL     1      44.723   4.180   9.763  0.00  0.00    +0.000 N 
ATOM      3  C   UNL     1      44.036   3.101  10.262  0.00  0.00    +0.000 A 
ATOM      4  N   UNL     1      44.432   1.977   9.715  0.00  0.00    +0.000 NA
ATOM      5  C   UNL     1      45.385   2.331   8.788  0.00  0.00    +0.000 A 
ATOM      6  C   UNL     1      46.225   1.541   7.987  0.00  0.00    +0.000 A 
ATOM      7  F   UNL     1      46.215   0.203   8.081  0.00  0.00    +0.000 F 
ATOM      8  C   UNL     1      47.114   2.171   7.118  0.00  0.00    +0.000 A 
ATOM      9  F   UNL     1      47.964   1.437   6.384  0.00  0.00    +0.000 F 
ATOM     10  C   UNL     1      47.156   3.559   7.000  0.00  0.00    +0.000 A 
ATOM     11  C   UNL     1      46.346   4.370   7.801  0.00  0.00    +0.000 A 
ATOM     12  C   UNL     1      45.503   3.726   8.718  0.00  0.00    +0.000 A 
ENDBRANCH   1   2
BRANCH   1  16
ATOM     13  C   UNL     1      46.963   5.026  14.346  0.00  0.00    +0.000 A 
ATOM     14  C   UNL     1      47.399   5.962  13.401  0.00  0.00    +0.000 A 
ATOM     15  C   UNL     1      46.774   6.061  12.152  0.00  0.00    +0.000 A 
ATOM     16  C   UNL     1      45.707   5.219  11.812  0.00  0.00    +0.000 A 
ATOM     17  C   UNL     1      45.289   4.263  12.741  0.00  0.00    +0.000 A 
ATOM     18  C   UNL     1      45.908   4.169  13.992  0.00  0.00    +0.000 A 
BRANCH  13  19
ATOM     19  C   UNL     1      47.628   4.839  15.695  0.00  0.00    +0.000 C 
BRANCH  19  20
ATOM     20  C   UNL     1      47.641   3.413  16.262  0.00  0.00    +0.000 C 
BRANCH  20  21
ATOM     21  N   UNL     1      46.718   3.295  17.391  0.00  0.00    +0.000 NA
ATOM     22  H   UNL     1      46.008   4.028  17.326  0.00  0.00    +0.000 HD
ATOM     23  H   UNL     1      47.216   3.463  18.265  0.00  0.00    +0.000 HD
ENDBRANCH  20  21
ENDBRANCH  19  20
ENDBRANCH  13  19
ENDBRANCH   1  16
TORSDOF 5
ENDMDL
MODEL 3
REMARK VINA RESULT:    -6.999      1.868      2.672
REMARK INTER + INTRA:          -9.269
REMARK INTER:                  -8.773
REMARK INTRA:                  -0.496
REMARK UNBOUND:                -0.429
REMARK  Name = 
REMARK  5 active torsions:
REMARK  status: ('A' for Active; 'I' for Inactive)
REMARK    1  A    between atoms: N_1  and  C_2
REMARK    2  A    between atoms: C_2  and  C_3
REMARK    3  A    between atoms: C_3  and  C_4
REMARK    4  A    between atoms: C_7  and  C_8
REMARK    5  A    between atoms: C_8  and  N_9
REMARK                            x       y       z     vdW  Elec       q    Type
REMARK                         _______ _______ _______ _____ _____    ______ ____
ROOT
ATOM      1  C   UNL     1      44.961   5.094  11.655  0.00  0.00    +0.000 C 
ENDROOT
BRANCH   1   2
ATOM      2  N   UNL     1      46.089   5.051  12.577  0.00  0.00    +0.000 N 
ATOM      3  C   UNL     1      46.087   4.341  13.752  0.00  0.00    +0.000 A 
ATOM      4  N   UNL     1      46.873   4.885  14.650  0.00  0.00    +0.000 NA
ATOM      5  C   UNL     1      47.450   5.968  14.030  0.00  0.00    +0.000 A 
ATOM      6  C   UNL     1      48.287   6.976  14.534  0.00  0.00    +0.000 A 
ATOM      7  F   UNL     1      48.618   7.018  15.834  0.00  0.00    +0.000 F 
ATOM      8  C   UNL     1      48.737   7.974  13.670  0.00  0.00    +0.000 A 
ATOM      9  F   UNL     1      49.491   8.977  14.143  0.00  0.00    +0.000 F 
ATOM     10  C   UNL     1      48.407   7.966  12.316  0.00  0.00    +0.000 A 
ATOM     11  C   UNL     1      47.557   6.986  11.792  0.00  0.00    +0.000 A 
ATOM     12  C   UNL     1      47.060   6.026  12.685  0.00  0.00    +0.000 A 
ENDBRANCH   1   2
BRANCH   1  16
ATOM     13  C   UNL     1      45.879   3.185   7.872  0.00  0.00    +0.000 A 
ATOM     14  C   UNL     1      46.107   4.554   8.057  0.00  0.00    +0.000 A 
ATOM     15  C   UNL     1      45.779   5.176   9.268  0.00  0.00    +0.000 A 
ATOM     16  C   UNL     1      45.205   4.448  10.319  0.00  0.00    +0.000 A 
ATOM     17  C   UNL     1      44.949   3.088  10.127  0.00  0.00    +0.000 A 
ATOM     18  C   UNL     1      45.282   2.465   8.920  0.00  0.00    +0.000 A 
BRANCH  13  19
ATOM     19  C   UNL     1      46.167   2.466   6.570  0.00  0.00    +0.000 C 
BRANCH  19  20
ATOM     20  C   UNL     1      47.286   1.415   6.599  0.00  0.00    +0.000 C 
BRANCH  20  21
ATOM     21  N   UNL     1      48.419   1.841   5.777  0.00  0.00    +0.000 NA
ATOM     22  H   UNL     1      48.102   2.532   5.095  0.00  0.00    +0.000 HD
ATOM     23  H   UNL     1      48.771   1.052   5.237  0.00  0.00    +0.000 HD
ENDBRANCH  20  21
ENDBRANCH  19  20
ENDBRANCH  13  19
ENDBRANCH   1  16
TORSDOF 5
ENDMDL
MODEL 4
REMARK VINA RESULT:    -6.670      3.272      6.041
REMARK INTER + INTRA:          -8.854
REMARK INTER:                  -8.388
REMARK INTRA:                  -0.466
REMARK UNBOUND:                -0.429
REMARK  Name = 
REMARK  5 active torsions:
REMARK  status: ('A' for Active; 'I' for Inactive)
REMARK    1  A    between atoms: N_1  and  C_2
REMARK    2  A    between atoms: C_2  and  C_3
REMARK    3  A    between atoms: C_3  and  C_4
REMARK    4  A    between atoms: C_7  and  C_8
REMARK    5  A    between atoms: C_8  and  N_9
REMARK                            x       y       z     vdW  Elec       q    Type
REMARK                         _______ _______ _______ _____ _____    ______ ____
ROOT
ATOM      1  C   UNL     1      43.804   5.572  12.266  0.00  0.00    +0.000 C 
ENDROOT
BRANCH   1   2
ATOM      2  N   UNL     1      43.621   4.448  11.355  0.00  0.00    +0.000 N 
ATOM      3  C   UNL     1      43.121   3.229  11.739  0.00  0.00    +0.000 A 
ATOM      4  N   UNL     1      43.581   2.257  10.990  0.00  0.00    +0.000 NA
ATOM      5  C   UNL     1      44.380   2.861  10.047  0.00  0.00    +0.000 A 
ATOM      6  C   UNL     1      45.213   2.311   9.060  0.00  0.00    +0.000 A 
ATOM      7  F   UNL     1      45.367   0.983   8.944  0.00  0.00    +0.000 F 
ATOM      8  C   UNL     1      45.924   3.170   8.223  0.00  0.00    +0.000 A 
ATOM      9  F   UNL     1      46.767   2.665   7.310  0.00  0.00    +0.000 F 
ATOM     10  C   UNL     1      45.793   4.553   8.320  0.00  0.00    +0.000 A 
ATOM     11  C   UNL     1      44.988   5.129   9.309  0.00  0.00    +0.000 A 
ATOM     12  C   UNL     1      44.329   4.255  10.186  0.00  0.00    +0.000 A 
ENDBRANCH   1   2
BRANCH   1  16
ATOM     13  C   UNL     1      47.973   6.681  12.688  0.00  0.00    +0.000 A 
ATOM     14  C   UNL     1      47.492   5.484  13.233  0.00  0.00    +0.000 A 
ATOM     15  C   UNL     1      46.138   5.143  13.125  0.00  0.00    +0.000 A 
ATOM     16  C   UNL     1      45.231   5.994  12.480  0.00  0.00    +0.000 A 
ATOM     17  C   UNL     1      45.702   7.203  11.961  0.00  0.00    +0.000 A 
ATOM     18  C   UNL     1      47.055   7.541  12.063  0.00  0.00    +0.000 A 
BRANCH  13  19
ATOM     19  C   UNL     1      49.416   7.127  12.814  0.00  0.00    +0.000 C 
BRANCH  19  20
ATOM     20  C   UNL     1      49.802   7.843  14.116  0.00  0.00    +0.000 C 
BRANCH  20  21
ATOM     21  N   UNL     1      50.702   7.013  14.917  0.00  0.00    +0.000 NA
ATOM     22  H   UNL     1      50.942   7.506  15.778  0.00  0.00    +0.000 HD
ATOM     23  H   UNL     1      51.580   6.873  14.417  0.00  0.00    +0.000 HD
ENDBRANCH  20  21
ENDBRANCH  19  20
ENDBRANCH  13  19
ENDBRANCH   1  16
TORSDOF 5
ENDMDL
MODEL 5
REMARK VINA RESULT:    -6.337      3.657      6.300
REMARK INTER + INTRA:          -8.434
REMARK INTER:                  -8.090
REMARK INTRA:                  -0.343
REMARK UNBOUND:                -0.429
REMARK  Name = 
REMARK  5 active torsions:
REMARK  status: ('A' for Active; 'I' for Inactive)
REMARK    1  A    between atoms: N_1  and  C_2
REMARK    2  A    between atoms: C_2  and  C_3
REMARK    3  A    between atoms: C_3  and  C_4
REMARK    4  A    between atoms: C_7  and  C_8
REMARK    5  A    between atoms: C_8  and  N_9
REMARK                            x       y       z     vdW  Elec       q    Type
REMARK                         _______ _______ _______ _____ _____    ______ ____
ROOT
ATOM      1  C   UNL     1      45.378   5.380  13.045  0.00  0.00    +0.000 C 
ENDROOT
BRANCH   1   2
ATOM      2  N   UNL     1      44.537   4.704  12.065  0.00  0.00    +0.000 N 
ATOM      3  C   UNL     1      43.627   3.727  12.385  0.00  0.00    +0.000 A 
ATOM      4  N   UNL     1      43.446   2.888  11.394  0.00  0.00    +0.000 NA
ATOM      5  C   UNL     1      44.231   3.355  10.365  0.00  0.00    +0.000 A 
ATOM      6  C   UNL     1      44.516   2.803   9.106  0.00  0.00    +0.000 A 
ATOM      7  F   UNL     1      44.031   1.605   8.747  0.00  0.00    +0.000 F 
ATOM      8  C   UNL     1      45.359   3.500   8.241  0.00  0.00    +0.000 A 
ATOM      9  F   UNL     1      45.690   2.965   7.056  0.00  0.00    +0.000 F 
ATOM     10  C   UNL     1      45.886   4.743   8.584  0.00  0.00    +0.000 A 
ATOM     11  C   UNL     1      45.636   5.306   9.841  0.00  0.00    +0.000 A 
ATOM     12  C   UNL     1      44.839   4.564  10.726  0.00  0.00    +0.000 A 
ENDBRANCH   1   2
BRANCH   1  16
ATOM     13  C   UNL     1      46.673   9.419  12.151  0.00  0.00    +0.000 A 
ATOM     14  C   UNL     1      45.314   9.120  12.298  0.00  0.00    +0.000 A 
ATOM     15  C   UNL     1      44.894   7.808  12.554  0.00  0.00    +0.000 A 
ATOM     16  C   UNL     1      45.822   6.763  12.658  0.00  0.00    +0.000 A 
ATOM     17  C   UNL     1      47.178   7.054  12.483  0.00  0.00    +0.000 A 
ATOM     18  C   UNL     1      47.597   8.365  12.233  0.00  0.00    +0.000 A 
BRANCH  13  19
ATOM     19  C   UNL     1      47.185  10.808  11.826  0.00  0.00    +0.000 C 
BRANCH  19  20
ATOM     20  C   UNL     1      48.695  10.944  11.584  0.00  0.00    +0.000 C 
BRANCH  20  21
ATOM     21  N   UNL     1      48.961  11.393  10.217  0.00  0.00    +0.000 NA
ATOM     22  H   UNL     1      49.624  12.170  10.239  0.00  0.00    +0.000 HD
ATOM     23  H   UNL     1      48.107  11.763   9.801  0.00  0.00    +0.000 HD
ENDBRANCH  20  21
ENDBRANCH  19  20
ENDBRANCH  13  19
ENDBRANCH   1  16
TORSDOF 5
ENDMDL
MODEL 6
REMARK VINA RESULT:    -6.332      2.606      3.821
REMARK INTER + INTRA:          -8.426
REMARK INTER:                  -7.927
REMARK INTRA:                  -0.499
REMARK UNBOUND:                -0.429
REMARK  Name = 
REMARK  5 active torsions:
REMARK  status: ('A' for Active; 'I' for Inactive)
REMARK    1  A    between atoms: N_1  and  C_2
REMARK    2  A    between atoms: C_2  and  C_3
REMARK    3  A    between atoms: C_3  and  C_4
REMARK    4  A    between atoms: C_7  and  C_8
REMARK    5  A    between atoms: C_8  and  N_9
REMARK                            x       y       z     vdW  Elec       q    Type
REMARK                         _______ _______ _______ _____ _____    ______ ____
ROOT
ATOM      1  C   UNL     1      45.425   5.277  13.303  0.00  0.00    +0.000 C 
ENDROOT
BRANCH   1   2
ATOM      2  N   UNL     1      46.740   5.240  13.932  0.00  0.00    +0.000 N 
ATOM      3  C   UNL     1      47.061   4.415  14.982  0.00  0.00    +0.000 A 
ATOM      4  N   UNL     1      48.000   4.931  15.736  0.00  0.00    +0.000 NA
ATOM      5  C   UNL     1      48.345   6.121  15.137  0.00  0.00    +0.000 A 
ATOM      6  C   UNL     1      49.212   7.142  15.557  0.00  0.00    +0.000 A 
ATOM      7  F   UNL     1      49.838   7.078  16.742  0.00  0.00    +0.000 F 
ATOM      8  C   UNL     1      49.381   8.260  14.741  0.00  0.00    +0.000 A 
ATOM      9  F   UNL     1      50.161   9.273  15.149  0.00  0.00    +0.000 F 
ATOM     10  C   UNL     1      48.742   8.363  13.507  0.00  0.00    +0.000 A 
ATOM     11  C   UNL     1      47.856   7.371  13.075  0.00  0.00    +0.000 A 
ATOM     12  C   UNL     1      47.645   6.283  13.935  0.00  0.00    +0.000 A 
ENDBRANCH   1   2
BRANCH   1  16
ATOM     13  C   UNL     1      45.076   3.865   9.220  0.00  0.00    +0.000 A 
ATOM     14  C   UNL     1      44.817   3.010  10.297  0.00  0.00    +0.000 A 
ATOM     15  C   UNL     1      44.962   3.457  11.616  0.00  0.00    +0.000 A 
ATOM     16  C   UNL     1      45.381   4.766  11.890  0.00  0.00    +0.000 A 
ATOM     17  C   UNL     1      45.668   5.614  10.816  0.00  0.00    +0.000 A 
ATOM     18  C   UNL     1      45.517   5.168   9.499  0.00  0.00    +0.000 A 
BRANCH  13  19
ATOM     19  C   UNL     1      44.983   3.425   7.773  0.00  0.00    +0.000 C 
BRANCH  19  20
ATOM     20  C   UNL     1      46.288   2.963   7.110  0.00  0.00    +0.000 C 
BRANCH  20  21
ATOM     21  N   UNL     1      46.907   4.059   6.364  0.00  0.00    +0.000 NA
ATOM     22  H   UNL     1      47.158   4.809   7.010  0.00  0.00    +0.000 HD
ATOM     23  H   UNL     1      46.230   4.461   5.714  0.00  0.00    +0.000 HD
ENDBRANCH  20  21
ENDBRANCH  19  20
ENDBRANCH  13  19
ENDBRANCH   1  16
TORSDOF 5
ENDMDL
MODEL 7
REMARK VINA RESULT:    -6.104      2.487      3.436
REMARK INTER + INTRA:          -8.139
REMARK INTER:                  -7.920
REMARK INTRA:                  -0.218
REMARK UNBOUND:                -0.429
REMARK  Name = 
REMARK  5 active torsions:
REMARK  status: ('A' for Active; 'I' for Inactive)
REMARK    1  A    between atoms: N_1  and  C_2
REMARK    2  A    between atoms: C_2  and  C_3
REMARK    3  A    between atoms: C_3  and  C_4
REMARK    4  A    between atoms: C_7  and  C_8
REMARK    5  A    between atoms: C_8  and  N_9
REMARK                            x       y       z     vdW  Elec       q    Type
REMARK                         _______ _______ _______ _____ _____    ______ ____
ROOT
ATOM      1  C   UNL     1      44.959   6.028  12.911  0.00  0.00    +0.000 C 
ENDROOT
BRANCH   1   2
ATOM      2  N   UNL     1      45.650   7.311  12.939  0.00  0.00    +0.000 N 
ATOM      3  C   UNL     1      45.085   8.492  12.524  0.00  0.00    +0.000 A 
ATOM      4  N   UNL     1      45.988   9.333  12.080  0.00  0.00    +0.000 NA
ATOM      5  C   UNL     1      47.199   8.702  12.251  0.00  0.00    +0.000 A 
ATOM      6  C   UNL     1      48.493   9.078  11.859  0.00  0.00    +0.000 A 
ATOM      7  F   UNL     1      48.707  10.202  11.158  0.00  0.00    +0.000 F 
ATOM      8  C   UNL     1      49.561   8.236  12.165  0.00  0.00    +0.000 A 
ATOM      9  F   UNL     1      50.798   8.548  11.751  0.00  0.00    +0.000 F 
ATOM     10  C   UNL     1      49.375   7.058  12.885  0.00  0.00    +0.000 A 
ATOM     11  C   UNL     1      48.094   6.648  13.270  0.00  0.00    +0.000 A 
ATOM     12  C   UNL     1      47.021   7.472  12.898  0.00  0.00    +0.000 A 
ENDBRANCH   1   2
BRANCH   1  16
ATOM     13  C   UNL     1      45.061   3.959   9.102  0.00  0.00    +0.000 A 
ATOM     14  C   UNL     1      44.429   3.385  10.212  0.00  0.00    +0.000 A 
ATOM     15  C   UNL     1      44.425   4.039  11.450  0.00  0.00    +0.000 A 
ATOM     16  C   UNL     1      45.062   5.277  11.613  0.00  0.00    +0.000 A 
ATOM     17  C   UNL     1      45.719   5.839  10.514  0.00  0.00    +0.000 A 
ATOM     18  C   UNL     1      45.717   5.189   9.276  0.00  0.00    +0.000 A 
BRANCH  13  19
ATOM     19  C   UNL     1      45.140   3.279   7.750  0.00  0.00    +0.000 C 
BRANCH  19  20
ATOM     20  C   UNL     1      46.546   3.032   7.187  0.00  0.00    +0.000 C 
BRANCH  20  21
ATOM     21  N   UNL     1      46.877   4.026   6.166  0.00  0.00    +0.000 NA
ATOM     22  H   UNL     1      47.125   3.550   5.297  0.00  0.00    +0.000 HD
ATOM     23  H   UNL     1      47.706   4.549   6.448  0.00  0.00    +0.000 HD
ENDBRANCH  20  21
ENDBRANCH  19  20
ENDBRANCH  13  19
ENDBRANCH   1  16
TORSDOF 5
ENDMDL
MODEL 8
REMARK VINA RESULT:    -6.092      3.288      6.623
REMARK INTER + INTRA:          -8.123
REMARK INTER:                  -7.621
REMARK INTRA:                  -0.503
REMARK UNBOUND:                -0.429
REMARK  Name = 
REMARK  5 active torsions:
REMARK  status: ('A' for Active; 'I' for Inactive)
REMARK    1  A    between atoms: N_1  and  C_2
REMARK    2  A    between atoms: C_2  and  C_3
REMARK    3  A    between atoms: C_3  and  C_4
REMARK    4  A    between atoms: C_7  and  C_8
REMARK    5  A    between atoms: C_8  and  N_9
REMARK                            x       y       z     vdW  Elec       q    Type
REMARK                         _______ _______ _______ _____ _____    ______ ____
ROOT
ATOM      1  C   UNL     1      45.061   7.359  11.383  0.00  0.00    +0.000 C 
ENDROOT
BRANCH   1   2
ATOM      2  N   UNL     1      44.118   6.249  11.315  0.00  0.00    +0.000 N 
ATOM      3  C   UNL     1      43.271   5.903  12.338  0.00  0.00    +0.000 A 
ATOM      4  N   UNL     1      42.985   4.623  12.320  0.00  0.00    +0.000 NA
ATOM      5  C   UNL     1      43.630   4.114  11.217  0.00  0.00    +0.000 A 
ATOM      6  C   UNL     1      43.769   2.793  10.763  0.00  0.00    +0.000 A 
ATOM      7  F   UNL     1      43.265   1.764  11.460  0.00  0.00    +0.000 F 
ATOM      8  C   UNL     1      44.488   2.555   9.593  0.00  0.00    +0.000 A 
ATOM      9  F   UNL     1      44.681   1.295   9.172  0.00  0.00    +0.000 F 
ATOM     10  C   UNL     1      45.032   3.599   8.848  0.00  0.00    +0.000 A 
ATOM     11  C   UNL     1      44.927   4.923   9.288  0.00  0.00    +0.000 A 
ATOM     12  C   UNL     1      44.257   5.142  10.501  0.00  0.00    +0.000 A 
ENDBRANCH   1   2
BRANCH   1  16
ATOM     13  C   UNL     1      48.273   7.038  14.277  0.00  0.00    +0.000 A 
ATOM     14  C   UNL     1      47.852   5.919  13.548  0.00  0.00    +0.000 A 
ATOM     15  C   UNL     1      46.793   6.017  12.637  0.00  0.00    +0.000 A 
ATOM     16  C   UNL     1      46.120   7.230  12.442  0.00  0.00    +0.000 A 
ATOM     17  C   UNL     1      46.518   8.342  13.191  0.00  0.00    +0.000 A 
ATOM     18  C   UNL     1      47.581   8.246  14.095  0.00  0.00    +0.000 A 
BRANCH  13  19
ATOM     19  C   UNL     1      49.380   6.984  15.310  0.00  0.00    +0.000 C 
BRANCH  19  20
ATOM     20  C   UNL     1      49.143   6.075  16.524  0.00  0.00    +0.000 C 
BRANCH  20  21
ATOM     21  N   UNL     1      48.071   6.605  17.367  0.00  0.00    +0.000 NA
ATOM     22  H   UNL     1      47.223   6.055  17.222  0.00  0.00    +0.000 HD
ATOM     23  H   UNL     1      47.844   7.557  17.080  0.00  0.00    +0.000 HD
ENDBRANCH  20  21
ENDBRANCH  19  20
ENDBRANCH  13  19
ENDBRANCH   1  16
TORSDOF 5
ENDMDL
MODEL 9
REMARK VINA RESULT:    -5.984      3.040      4.331
REMARK INTER + INTRA:          -7.988
REMARK INTER:                  -7.439
REMARK INTRA:                  -0.548
REMARK UNBOUND:                -0.429
REMARK  Name = 
REMARK  5 active torsions:
REMARK  status: ('A' for Active; 'I' for Inactive)
REMARK    1  A    between atoms: N_1  and  C_2
REMARK    2  A    between atoms: C_2  and  C_3
REMARK    3  A    between atoms: C_3  and  C_4
REMARK    4  A    between atoms: C_7  and  C_8
REMARK    5  A    between atoms: C_8  and  N_9
REMARK                            x       y       z     vdW  Elec       q    Type
REMARK                         _______ _______ _______ _____ _____    ______ ____
ROOT
ATOM      1  C   UNL     1      46.004   6.461  12.875  0.00  0.00    +0.000 C 
ENDROOT
BRANCH   1   2
ATOM      2  N   UNL     1      47.382   6.329  13.335  0.00  0.00    +0.000 N 
ATOM      3  C   UNL     1      47.730   5.853  14.575  0.00  0.00    +0.000 A 
ATOM      4  N   UNL     1      48.869   6.355  14.986  0.00  0.00    +0.000 NA
ATOM      5  C   UNL     1      49.312   7.158  13.960  0.00  0.00    +0.000 A 
ATOM      6  C   UNL     1      50.413   8.025  13.883  0.00  0.00    +0.000 A 
ATOM      7  F   UNL     1      51.220   8.217  14.938  0.00  0.00    +0.000 F 
ATOM      8  C   UNL     1      50.634   8.731  12.701  0.00  0.00    +0.000 A 
ATOM      9  F   UNL     1      51.647   9.607  12.625  0.00  0.00    +0.000 F 
ATOM     10  C   UNL     1      49.812   8.561  11.589  0.00  0.00    +0.000 A 
ATOM     11  C   UNL     1      48.696   7.720  11.645  0.00  0.00    +0.000 A 
ATOM     12  C   UNL     1      48.448   7.066  12.861  0.00  0.00    +0.000 A 
ENDBRANCH   1   2
BRANCH   1  16
ATOM     13  C   UNL     1      44.991   3.490   9.886  0.00  0.00    +0.000 A 
ATOM     14  C   UNL     1      45.348   4.790   9.510  0.00  0.00    +0.000 A 
ATOM     15  C   UNL     1      45.643   5.759  10.478  0.00  0.00    +0.000 A 
ATOM     16  C   UNL     1      45.577   5.454  11.844  0.00  0.00    +0.000 A 
ATOM     17  C   UNL     1      45.193   4.165  12.223  0.00  0.00    +0.000 A 
ATOM     18  C   UNL     1      44.905   3.196  11.257  0.00  0.00    +0.000 A 
BRANCH  13  19
ATOM     19  C   UNL     1      44.615   2.413   8.889  0.00  0.00    +0.000 C 
BRANCH  19  20
ATOM     20  C   UNL     1      45.730   1.445   8.469  0.00  0.00    +0.000 C 
BRANCH  20  21
ATOM     21  N   UNL     1      46.688   2.110   7.586  0.00  0.00    +0.000 NA
ATOM     22  H   UNL     1      46.756   1.592   6.708  0.00  0.00    +0.000 HD
ATOM     23  H   UNL     1      47.619   2.083   8.002  0.00  0.00    +0.000 HD
ENDBRANCH  20  21
ENDBRANCH  19  20
ENDBRANCH  13  19
ENDBRANCH   1  16
TORSDOF 5
ENDMDL
