MODEL 1
REMARK VINA RESULT:    -7.231      0.000      0.000
REMARK INTER + INTRA:          -9.825
REMARK INTER:                  -9.134
REMARK INTRA:                  -0.692
REMARK UNBOUND:                -0.692
REMARK  Name = 
REMARK  5 active torsions:
REMARK  status: ('A' for Active; 'I' for Inactive)
REMARK    1  A    between atoms: N_1  and  C_2
REMARK    2  A    between atoms: C_2  and  C_3
REMARK    3  A    between atoms: C_6  and  O_7
REMARK    4  A    between atoms: O_7  and  C_8
REMARK    5  A    between atoms: C_8  and  C_9
REMARK                            x       y       z     vdW  Elec       q    Type
REMARK                         _______ _______ _______ _____ _____    ______ ____
ROOT
ATOM      1  C   UNL     1      46.591   2.334   7.607  0.00  0.00    +0.000 A 
ATOM      2  C   UNL     1      46.453   3.729   7.532  0.00  0.00    +0.000 A 
ATOM      3  C   UNL     1      45.492   4.393   8.300  0.00  0.00    +0.000 A 
ATOM      4  C   UNL     1      44.648   3.672   9.145  0.00  0.00    +0.000 A 
ATOM      5  C   UNL     1      44.826   2.293   9.275  0.00  0.00    +0.000 A 
ATOM      6  C   UNL     1      45.778   1.628   8.503  0.00  0.00    +0.000 A 
ENDROOT
BRANCH   1   7
ATOM      7  C   UNL     1      47.570   1.602   6.731  0.00  0.00    +0.000 C 
BRANCH   7   8
ATOM      8  N   UNL     1      48.659   2.468   6.302  0.00  0.00    +0.000 NA
ATOM      9  H   UNL     1      48.975   3.022   7.095  0.00  0.00    +0.000 HD
ATOM     10  H   UNL     1      48.300   3.129   5.614  0.00  0.00    +0.000 HD
ENDBRANCH   7   8
ENDBRANCH   1   7
BRANCH   4  11
ATOM     11  O   UNL     1      43.675   4.398   9.786  0.00  0.00    +0.000 OA
BRANCH  11  12
ATOM     12  C   UNL     1      43.611   4.177  11.197  0.00  0.00    +0.000 C 
BRANCH  12  13
ATOM     13  C   UNL     1      44.763   4.827  11.926  0.00  0.00    +0.000 A 
ATOM     14  C   UNL     1      45.559   4.043  12.777  0.00  0.00    +0.000 A 
ATOM     15  C   UNL     1      46.658   4.594  13.434  0.00  0.00    +0.000 A 
ATOM     16  C   UNL     1      46.976   5.936  13.239  0.00  0.00    +0.000 A 
ATOM     17 CL   UNL     1      48.331   6.616  14.050  0.00  0.00    +0.000 Cl
ATOM     18  C   UNL     1      46.205   6.725  12.387  0.00  0.00    +0.000 A 
ATOM     19  C   UNL     1      45.104   6.172  11.728  0.00  0.00    +0.000 A 
ENDBRANCH  12  13
ENDBRANCH  11  12
ENDBRANCH   4  11
TORSDOF 5
ENDMDL
MODEL 2
REMARK VINA RESULT:    -7.226      0.771      1.774
REMARK INTER + INTRA:          -9.818
REMARK INTER:                  -9.311
REMARK INTRA:                  -0.507
REMARK UNBOUND:                -0.692
REMARK  Name = 
REMARK  5 active torsions:
REMARK  status: ('A' for Active; 'I' for Inactive)
REMARK    1  A    between atoms: N_1  and  C_2
REMARK    2  A    between atoms: C_2  and  C_3
REMARK    3  A    between atoms: C_6  and  O_7
REMARK    4  A    between atoms: O_7  and  C_8
REMARK    5  A    between atoms: C_8  and  C_9
REMARK                            x       y       z     vdW  Elec       q    Type
REMARK                         _______ _______ _______ _____ _____    ______ ____
ROOT
ATOM      1  C   UNL     1      47.032   2.390   7.273  0.00  0.00    +0.000 A 
ATOM      2  C   UNL     1      46.403   1.403   8.047  0.00  0.00    +0.000 A 
ATOM      3  C   UNL     1      45.310   1.723   8.858  0.00  0.00    +0.000 A 
ATOM      4  C   UNL     1      44.837   3.033   8.915  0.00  0.00    +0.000 A 
ATOM      5  C   UNL     1      45.416   4.005   8.095  0.00  0.00    +0.000 A 
ATOM      6  C   UNL     1      46.512   3.690   7.293  0.00  0.00    +0.000 A 
ENDROOT
BRANCH   1   7
ATOM      7  C   UNL     1      48.254   2.074   6.454  0.00  0.00    +0.000 C 
BRANCH   7   8
ATOM      8  N   UNL     1      48.145   2.597   5.100  0.00  0.00    +0.000 NA
ATOM      9  H   UNL     1      47.170   2.818   4.909  0.00  0.00    +0.000 HD
ATOM     10  H   UNL     1      48.409   1.864   4.444  0.00  0.00    +0.000 HD
ENDBRANCH   7   8
ENDBRANCH   1   7
BRANCH   4  11
ATOM     11  O   UNL     1      43.823   3.269   9.810  0.00  0.00    +0.000 OA
BRANCH  11  12
ATOM     12  C   UNL     1      43.746   4.621  10.267  0.00  0.00    +0.000 C 
BRANCH  12  13
ATOM     13  C   UNL     1      44.811   4.936  11.291  0.00  0.00    +0.000 A 
ATOM     14  C   UNL     1      45.624   6.066  11.103  0.00  0.00    +0.000 A 
ATOM     15  C   UNL     1      46.588   6.416  12.046  0.00  0.00    +0.000 A 
ATOM     16  C   UNL     1      46.744   5.640  13.192  0.00  0.00    +0.000 A 
ATOM     17 CL   UNL     1      47.936   6.070  14.356  0.00  0.00    +0.000 Cl
ATOM     18  C   UNL     1      45.938   4.523  13.402  0.00  0.00    +0.000 A 
ATOM     19  C   UNL     1      44.970   4.173  12.456  0.00  0.00    +0.000 A 
ENDBRANCH  12  13
ENDBRANCH  11  12
ENDBRANCH   4  11
TORSDOF 5
ENDMDL
MODEL 3
REMARK VINA RESULT:    -6.825      3.170      5.899
REMARK INTER + INTRA:          -9.312
REMARK INTER:                  -8.815
REMARK INTRA:                  -0.497
REMARK UNBOUND:                -0.692
REMARK  Name = 
REMARK  5 active torsions:
REMARK  status: ('A' for Active; 'I' for Inactive)
REMARK    1  A    between atoms: N_1  and  C_2
REMARK    2  A    between atoms: C_2  and  C_3
REMARK    3  A    between atoms: C_6  and  O_7
REMARK    4  A    between atoms: O_7  and  C_8
REMARK    5  A    between atoms: C_8  and  C_9
REMARK                            x       y       z     vdW  Elec       q    Type
REMARK                         _______ _______ _______ _____ _____    ______ ____
ROOT
ATOM      1  C   UNL     1      46.674   5.898  12.798  0.00  0.00    +0.000 A 
ATOM      2  C   UNL     1      46.219   6.536  11.633  0.00  0.00    +0.000 A 
ATOM      3  C   UNL     1      45.308   5.902  10.784  0.00  0.00    +0.000 A 
ATOM      4  C   UNL     1      44.845   4.620  11.081  0.00  0.00    +0.000 A 
ATOM      5  C   UNL     1      45.241   4.010  12.273  0.00  0.00    +0.000 A 
ATOM      6  C   UNL     1      46.158   4.636  13.117  0.00  0.00    +0.000 A 
ENDROOT
BRANCH   1   7
ATOM      7  C   UNL     1      47.711   6.539  13.680  0.00  0.00    +0.000 C 
BRANCH   7   8
ATOM      8  N   UNL     1      49.059   6.310  13.178  0.00  0.00    +0.000 NA
ATOM      9  H   UNL     1      49.713   6.876  13.715  0.00  0.00    +0.000 HD
ATOM     10  H   UNL     1      49.110   6.644  12.216  0.00  0.00    +0.000 HD
ENDBRANCH   7   8
ENDBRANCH   1   7
BRANCH   4  11
ATOM     11  O   UNL     1      44.028   4.043  10.141  0.00  0.00    +0.000 OA
BRANCH  11  12
ATOM     12  C   UNL     1      44.331   2.674   9.861  0.00  0.00    +0.000 C 
BRANCH  12  13
ATOM     13  C   UNL     1      45.263   2.529   8.681  0.00  0.00    +0.000 A 
ATOM     14  C   UNL     1      45.466   3.632   7.835  0.00  0.00    +0.000 A 
ATOM     15  C   UNL     1      46.351   3.553   6.761  0.00  0.00    +0.000 A 
ATOM     16  C   UNL     1      47.048   2.370   6.528  0.00  0.00    +0.000 A 
ATOM     17 CL   UNL     1      48.139   2.272   5.202  0.00  0.00    +0.000 Cl
ATOM     18  C   UNL     1      46.869   1.270   7.365  0.00  0.00    +0.000 A 
ATOM     19  C   UNL     1      45.982   1.350   8.443  0.00  0.00    +0.000 A 
ENDBRANCH  12  13
ENDBRANCH  11  12
ENDBRANCH   4  11
TORSDOF 5
ENDMDL
MODEL 4
REMARK VINA RESULT:    -6.445      3.304      5.868
REMARK INTER + INTRA:          -8.833
REMARK INTER:                  -8.318
REMARK INTRA:                  -0.514
REMARK UNBOUND:                -0.692
REMARK  Name = 
REMARK  5 active torsions:
REMARK  status: ('A' for Active; 'I' for Inactive)
REMARK    1  A    between atoms: N_1  and  C_2
REMARK    2  A    between atoms: C_2  and  C_3
REMARK    3  A    between atoms: C_6  and  O_7
REMARK    4  A    between atoms: O_7  and  C_8
REMARK    5  A    between atoms: C_8  and  C_9
REMARK                            x       y       z     vdW  Elec       q    Type
REMARK                         _______ _______ _______ _____ _____    ______ ____
ROOT
ATOM      1  C   UNL     1      47.563   6.396  13.085  0.00  0.00    +0.000 A 
ATOM      2  C   UNL     1      47.060   5.189  13.595  0.00  0.00    +0.000 A 
ATOM      3  C   UNL     1      45.914   4.606  13.046  0.00  0.00    +0.000 A 
ATOM      4  C   UNL     1      45.251   5.225  11.987  0.00  0.00    +0.000 A 
ATOM      5  C   UNL     1      45.785   6.389  11.431  0.00  0.00    +0.000 A 
ATOM      6  C   UNL     1      46.922   6.978  11.985  0.00  0.00    +0.000 A 
ENDROOT
BRANCH   1   7
ATOM      7  C   UNL     1      48.751   7.071  13.717  0.00  0.00    +0.000 C 
BRANCH   7   8
ATOM      8  N   UNL     1      49.161   6.401  14.942  0.00  0.00    +0.000 NA
ATOM      9  H   UNL     1      48.508   6.640  15.685  0.00  0.00    +0.000 HD
ATOM     10  H   UNL     1      50.069   6.766  15.227  0.00  0.00    +0.000 HD
ENDBRANCH   7   8
ENDBRANCH   1   7
BRANCH   4  11
ATOM     11  O   UNL     1      44.084   4.628  11.578  0.00  0.00    +0.000 OA
BRANCH  11  12
ATOM     12  C   UNL     1      43.819   4.757  10.179  0.00  0.00    +0.000 C 
BRANCH  12  13
ATOM     13  C   UNL     1      44.756   3.916   9.344  0.00  0.00    +0.000 A 
ATOM     14  C   UNL     1      44.753   2.522   9.514  0.00  0.00    +0.000 A 
ATOM     15  C   UNL     1      45.570   1.707   8.732  0.00  0.00    +0.000 A 
ATOM     16  C   UNL     1      46.395   2.281   7.768  0.00  0.00    +0.000 A 
ATOM     17 CL   UNL     1      47.405   1.276   6.805  0.00  0.00    +0.000 Cl
ATOM     18  C   UNL     1      46.401   3.661   7.577  0.00  0.00    +0.000 A 
ATOM     19  C   UNL     1      45.580   4.478   8.360  0.00  0.00    +0.000 A 
ENDBRANCH  12  13
ENDBRANCH  11  12
ENDBRANCH   4  11
TORSDOF 5
ENDMDL
MODEL 5
REMARK VINA RESULT:    -6.189      3.492      6.079
REMARK INTER + INTRA:          -8.509
REMARK INTER:                  -7.906
REMARK INTRA:                  -0.603
REMARK UNBOUND:                -0.692
REMARK  Name = 
REMARK  5 active torsions:
REMARK  status: ('A' for Active; 'I' for Inactive)
REMARK    1  A    between atoms: N_1  and  C_2
REMARK    2  A    between atoms: C_2  and  C_3
REMARK    3  A    between atoms: C_6  and  O_7
REMARK    4  A    between atoms: O_7  and  C_8
REMARK    5  A    between atoms: C_8  and  C_9
REMARK                            x       y       z     vdW  Elec       q    Type
REMARK                         _______ _______ _______ _____ _____    ______ ____
ROOT
ATOM      1  C   UNL     1      45.506   7.030  12.789  0.00  0.00    +0.000 A 
ATOM      2  C   UNL     1      44.190   6.570  12.629  0.00  0.00    +0.000 A 
ATOM      3  C   UNL     1      43.937   5.235  12.299  0.00  0.00    +0.000 A 
ATOM      4  C   UNL     1      44.995   4.345  12.116  0.00  0.00    +0.000 A 
ATOM      5  C   UNL     1      46.302   4.780  12.342  0.00  0.00    +0.000 A 
ATOM      6  C   UNL     1      46.557   6.114  12.661  0.00  0.00    +0.000 A 
ENDROOT
BRANCH   1   7
ATOM      7  C   UNL     1      45.793   8.480  13.069  0.00  0.00    +0.000 C 
BRANCH   7   8
ATOM      8  N   UNL     1      44.764   9.349  12.516  0.00  0.00    +0.000 NA
ATOM      9  H   UNL     1      44.779   9.274  11.501  0.00  0.00    +0.000 HD
ATOM     10  H   UNL     1      44.997  10.315  12.738  0.00  0.00    +0.000 HD
ENDBRANCH   7   8
ENDBRANCH   1   7
BRANCH   4  11
ATOM     11  O   UNL     1      44.652   3.081  11.702  0.00  0.00    +0.000 OA
BRANCH  11  12
ATOM     12  C   UNL     1      43.990   3.038  10.436  0.00  0.00    +0.000 C 
BRANCH  12  13
ATOM     13  C   UNL     1      44.967   2.920   9.289  0.00  0.00    +0.000 A 
ATOM     14  C   UNL     1      45.412   1.645   8.903  0.00  0.00    +0.000 A 
ATOM     15  C   UNL     1      46.278   1.490   7.822  0.00  0.00    +0.000 A 
ATOM     16  C   UNL     1      46.703   2.610   7.112  0.00  0.00    +0.000 A 
ATOM     17 CL   UNL     1      47.773   2.419   5.780  0.00  0.00    +0.000 Cl
ATOM     18  C   UNL     1      46.261   3.882   7.474  0.00  0.00    +0.000 A 
ATOM     19  C   UNL     1      45.391   4.037   8.557  0.00  0.00    +0.000 A 
ENDBRANCH  12  13
ENDBRANCH  11  12
ENDBRANCH   4  11
TORSDOF 5
ENDMDL
MODEL 6
REMARK VINA RESULT:    -5.173      1.478      2.346
REMARK INTER + INTRA:          -7.225
REMARK INTER:                  -6.610
REMARK INTRA:                  -0.616
REMARK UNBOUND:                -0.692
REMARK  Name = 
REMARK  5 active torsions:
REMARK  status: ('A' for Active; 'I' for Inactive)
REMARK    1  A    between atoms: N_1  and  C_2
REMARK    2  A    between atoms: C_2  and  C_3
REMARK    3  A    between atoms: C_6  and  O_7
REMARK    4  A    between atoms: O_7  and  C_8
REMARK    5  A    between atoms: C_8  and  C_9
REMARK                            x       y       z     vdW  Elec       q    Type
REMARK                         _______ _______ _______ _____ _____    ______ ____
ROOT
ATOM      1  C   UNL     1      45.142   2.563   9.156  0.00  0.00    +0.000 A 
ATOM      2  C   UNL     1      45.486   3.894   8.869  0.00  0.00    +0.000 A 
ATOM      3  C   UNL     1      44.956   4.945   9.624  0.00  0.00    +0.000 A 
ATOM      4  C   UNL     1      44.068   4.682  10.666  0.00  0.00    +0.000 A 
ATOM      5  C   UNL     1      43.776   3.358  10.999  0.00  0.00    +0.000 A 
ATOM      6  C   UNL     1      44.296   2.308  10.242  0.00  0.00    +0.000 A 
ENDROOT
BRANCH   1   7
ATOM      7  C   UNL     1      45.647   1.430   8.304  0.00  0.00    +0.000 C 
BRANCH   7   8
ATOM      8  N   UNL     1      46.831   1.812   7.548  0.00  0.00    +0.000 NA
ATOM      9  H   UNL     1      47.660   1.519   8.061  0.00  0.00    +0.000 HD
ATOM     10  H   UNL     1      46.870   2.829   7.493  0.00  0.00    +0.000 HD
ENDBRANCH   7   8
ENDBRANCH   1   7
BRANCH   4  11
ATOM     11  O   UNL     1      43.528   5.781  11.287  0.00  0.00    +0.000 OA
BRANCH  11  12
ATOM     12  C   UNL     1      44.000   5.994  12.619  0.00  0.00    +0.000 C 
BRANCH  12  13
ATOM     13  C   UNL     1      45.448   6.424  12.646  0.00  0.00    +0.000 A 
ATOM     14  C   UNL     1      45.795   7.682  12.125  0.00  0.00    +0.000 A 
ATOM     15  C   UNL     1      47.112   8.134  12.171  0.00  0.00    +0.000 A 
ATOM     16  C   UNL     1      48.096   7.333  12.745  0.00  0.00    +0.000 A 
ATOM     17 CL   UNL     1      49.722   7.890  12.799  0.00  0.00    +0.000 Cl
ATOM     18  C   UNL     1      47.768   6.088  13.278  0.00  0.00    +0.000 A 
ATOM     19  C   UNL     1      46.447   5.635  13.233  0.00  0.00    +0.000 A 
ENDBRANCH  12  13
ENDBRANCH  11  12
ENDBRANCH   4  11
TORSDOF 5
ENDMDL
MODEL 7
REMARK VINA RESULT:    -5.134      3.520      5.028
REMARK INTER + INTRA:          -7.176
REMARK INTER:                  -6.882
REMARK INTRA:                  -0.294
REMARK UNBOUND:                -0.692
REMARK  Name = 
REMARK  5 active torsions:
REMARK  status: ('A' for Active; 'I' for Inactive)
REMARK    1  A    between atoms: N_1  and  C_2
REMARK    2  A    between atoms: C_2  and  C_3
REMARK    3  A    between atoms: C_6  and  O_7
REMARK    4  A    between atoms: O_7  and  C_8
REMARK    5  A    between atoms: C_8  and  C_9
REMARK                            x       y       z     vdW  Elec       q    Type
REMARK                         _______ _______ _______ _____ _____    ______ ____
ROOT
ATOM      1  C   UNL     1      44.976   4.325  10.241  0.00  0.00    +0.000 A 
ATOM      2  C   UNL     1      44.770   3.221  11.082  0.00  0.00    +0.000 A 
ATOM      3  C   UNL     1      45.091   3.292  12.442  0.00  0.00    +0.000 A 
ATOM      4  C   UNL     1      45.629   4.462  12.976  0.00  0.00    +0.000 A 
ATOM      5  C   UNL     1      45.771   5.585  12.158  0.00  0.00    +0.000 A 
ATOM      6  C   UNL     1      45.462   5.513  10.800  0.00  0.00    +0.000 A 
ENDROOT
BRANCH   1   7
ATOM      7  C   UNL     1      44.706   4.236   8.763  0.00  0.00    +0.000 C 
BRANCH   7   8
ATOM      8  N   UNL     1      45.899   4.530   7.981  0.00  0.00    +0.000 NA
ATOM      9  H   UNL     1      46.592   4.965   8.585  0.00  0.00    +0.000 HD
ATOM     10  H   UNL     1      45.661   5.220   7.269  0.00  0.00    +0.000 HD
ENDBRANCH   7   8
ENDBRANCH   1   7
BRANCH   4  11
ATOM     11  O   UNL     1      45.999   4.405  14.297  0.00  0.00    +0.000 OA
BRANCH  11  12
ATOM     12  C   UNL     1      47.322   4.882  14.557  0.00  0.00    +0.000 C 
BRANCH  12  13
ATOM     13  C   UNL     1      47.724   4.683  15.999  0.00  0.00    +0.000 A 
ATOM     14  C   UNL     1      48.416   5.711  16.661  0.00  0.00    +0.000 A 
ATOM     15  C   UNL     1      48.766   5.584  18.004  0.00  0.00    +0.000 A 
ATOM     16  C   UNL     1      48.420   4.429  18.701  0.00  0.00    +0.000 A 
ATOM     17 CL   UNL     1      48.854   4.272  20.357  0.00  0.00    +0.000 Cl
ATOM     18  C   UNL     1      47.722   3.405  18.063  0.00  0.00    +0.000 A 
ATOM     19  C   UNL     1      47.370   3.532  16.716  0.00  0.00    +0.000 A 
ENDBRANCH  12  13
ENDBRANCH  11  12
ENDBRANCH   4  11
TORSDOF 5
ENDMDL
MODEL 8
REMARK VINA RESULT:    -5.068      5.009      7.597
REMARK INTER + INTRA:          -7.093
REMARK INTER:                  -6.728
REMARK INTRA:                  -0.366
REMARK UNBOUND:                -0.692
REMARK  Name = 
REMARK  5 active torsions:
REMARK  status: ('A' for Active; 'I' for Inactive)
REMARK    1  A    between atoms: N_1  and  C_2
REMARK    2  A    between atoms: C_2  and  C_3
REMARK    3  A    between atoms: C_6  and  O_7
REMARK    4  A    between atoms: O_7  and  C_8
REMARK    5  A    between atoms: C_8  and  C_9
REMARK                            x       y       z     vdW  Elec       q    Type
REMARK                         _______ _______ _______ _____ _____    ______ ____
ROOT
ATOM      1  C   UNL     1      49.389   4.599  17.690  0.00  0.00    +0.000 A 
ATOM      2  C   UNL     1      49.059   5.592  16.754  0.00  0.00    +0.000 A 
ATOM      3  C   UNL     1      48.046   5.376  15.814  0.00  0.00    +0.000 A 
ATOM      4  C   UNL     1      47.357   4.164  15.790  0.00  0.00    +0.000 A 
ATOM      5  C   UNL     1      47.634   3.201  16.762  0.00  0.00    +0.000 A 
ATOM      6  C   UNL     1      48.650   3.410  17.694  0.00  0.00    +0.000 A 
ENDROOT
BRANCH   1   7
ATOM      7  C   UNL     1      50.526   4.790  18.657  0.00  0.00    +0.000 C 
BRANCH   7   8
ATOM      8  N   UNL     1      50.157   4.388  20.007  0.00  0.00    +0.000 NA
ATOM      9  H   UNL     1      49.304   4.874  20.276  0.00  0.00    +0.000 HD
ATOM     10  H   UNL     1      50.882   4.700  20.651  0.00  0.00    +0.000 HD
ENDBRANCH   7   8
ENDBRANCH   1   7
BRANCH   4  11
ATOM     11  O   UNL     1      46.448   4.010  14.773  0.00  0.00    +0.000 OA
BRANCH  11  12
ATOM     12  C   UNL     1      46.208   5.198  14.015  0.00  0.00    +0.000 C 
BRANCH  12  13
ATOM     13  C   UNL     1      45.841   4.892  12.582  0.00  0.00    +0.000 A 
ATOM     14  C   UNL     1      45.233   3.661  12.284  0.00  0.00    +0.000 A 
ATOM     15  C   UNL     1      44.838   3.358  10.982  0.00  0.00    +0.000 A 
ATOM     16  C   UNL     1      45.042   4.288   9.966  0.00  0.00    +0.000 A 
ATOM     17 CL   UNL     1      44.557   3.913   8.359  0.00  0.00    +0.000 Cl
ATOM     18  C   UNL     1      45.631   5.519  10.246  0.00  0.00    +0.000 A 
ATOM     19  C   UNL     1      46.026   5.823  11.552  0.00  0.00    +0.000 A 
ENDBRANCH  12  13
ENDBRANCH  11  12
ENDBRANCH   4  11
TORSDOF 5
ENDMDL
MODEL 9
REMARK VINA RESULT:    -5.005      3.912      5.279
REMARK INTER + INTRA:          -7.013
REMARK INTER:                  -6.589
REMARK INTRA:                  -0.424
REMARK UNBOUND:                -0.692
REMARK  Name = 
REMARK  5 active torsions:
REMARK  status: ('A' for Active; 'I' for Inactive)
REMARK    1  A    between atoms: N_1  and  C_2
REMARK    2  A    between atoms: C_2  and  C_3
REMARK    3  A    between atoms: C_6  and  O_7
REMARK    4  A    between atoms: O_7  and  C_8
REMARK    5  A    between atoms: C_8  and  C_9
REMARK                            x       y       z     vdW  Elec       q    Type
REMARK                         _______ _______ _______ _____ _____    ______ ____
ROOT
ATOM      1  C   UNL     1      44.814   3.892  11.283  0.00  0.00    +0.000 A 
ATOM      2  C   UNL     1      45.139   5.077  10.604  0.00  0.00    +0.000 A 
ATOM      3  C   UNL     1      45.940   6.049  11.212  0.00  0.00    +0.000 A 
ATOM      4  C   UNL     1      46.419   5.854  12.507  0.00  0.00    +0.000 A 
ATOM      5  C   UNL     1      46.156   4.648  13.160  0.00  0.00    +0.000 A 
ATOM      6  C   UNL     1      45.349   3.682  12.560  0.00  0.00    +0.000 A 
ENDROOT
BRANCH   1   7
ATOM      7  C   UNL     1      43.892   2.873  10.669  0.00  0.00    +0.000 C 
BRANCH   7   8
ATOM      8  N   UNL     1      43.070   2.217  11.676  0.00  0.00    +0.000 NA
ATOM      9  H   UNL     1      42.280   2.817  11.902  0.00  0.00    +0.000 HD
ATOM     10  H   UNL     1      43.615   2.122  12.532  0.00  0.00    +0.000 HD
ENDBRANCH   7   8
ENDBRANCH   1   7
BRANCH   4  11
ATOM     11  O   UNL     1      47.117   6.903  13.054  0.00  0.00    +0.000 OA
BRANCH  11  12
ATOM     12  C   UNL     1      47.084   8.100  12.273  0.00  0.00    +0.000 C 
BRANCH  12  13
ATOM     13  C   UNL     1      48.470   8.577  11.907  0.00  0.00    +0.000 A 
ATOM     14  C   UNL     1      49.500   7.632  11.769  0.00  0.00    +0.000 A 
ATOM     15  C   UNL     1      50.782   8.025  11.390  0.00  0.00    +0.000 A 
ATOM     16  C   UNL     1      51.045   9.370  11.139  0.00  0.00    +0.000 A 
ATOM     17 CL   UNL     1      52.627   9.856  10.673  0.00  0.00    +0.000 Cl
ATOM     18  C   UNL     1      50.031  10.319  11.258  0.00  0.00    +0.000 A 
ATOM     19  C   UNL     1      48.745   9.924  11.637  0.00  0.00    +0.000 A 
ENDBRANCH  12  13
ENDBRANCH  11  12
ENDBRANCH   4  11
TORSDOF 5
ENDMDL
