MODEL 1
REMARK VINA RESULT:    -7.802      0.000      0.000
REMARK INTER + INTRA:         -10.277
REMARK INTER:                  -9.854
REMARK INTRA:                  -0.424
REMARK UNBOUND:                -0.424
REMARK  Name = 
REMARK  6 active torsions:
REMARK  status: ('A' for Active; 'I' for Inactive)
REMARK    1  A    between atoms: C_1  and  O_2
REMARK    2  A    between atoms: O_2  and  C_3
REMARK    3  A    between atoms: N_9  and  C_10
REMARK    4  A    between atoms: C_10  and  C_11
REMARK    5  A    between atoms: C_15  and  C_16
REMARK    6  A    between atoms: C_16  and  N_17
REMARK                            x       y       z     vdW  Elec       q    Type
REMARK                         _______ _______ _______ _____ _____    ______ ____
ROOT
ATOM      1  C   UNL     1      46.881   6.342  12.090  0.00  0.00    +0.000 A 
ATOM      2  C   UNL     1      46.681   5.890  13.393  0.00  0.00    +0.000 A 
ATOM      3  C   UNL     1      45.668   4.967  13.678  0.00  0.00    +0.000 A 
ATOM      4  C   UNL     1      44.851   4.483  12.639  0.00  0.00    +0.000 A 
ATOM      5  C   UNL     1      43.772   3.565  12.599  0.00  0.00    +0.000 A 
ATOM      6  C   UNL     1      43.366   3.452  11.293  0.00  0.00    +0.000 A 
ATOM      7  N   UNL     1      44.159   4.276  10.526  0.00  0.00    +0.000 N 
ATOM      8  C   UNL     1      45.064   4.941  11.334  0.00  0.00    +0.000 A 
ATOM      9  C   UNL     1      46.059   5.892  11.047  0.00  0.00    +0.000 A 
ENDROOT
BRANCH   1  11
ATOM     10  C   UNL     1      49.006   7.273  12.534  0.00  0.00    +0.000 C 
ATOM     11  O   UNL     1      47.836   7.256  11.723  0.00  0.00    +0.000 OA
ENDBRANCH   1  11
BRANCH   7  12
ATOM     12  C   UNL     1      44.109   4.316   9.066  0.00  0.00    +0.000 C 
BRANCH  12  13
ATOM     13  C   UNL     1      44.986   3.263   8.438  0.00  0.00    +0.000 A 
ATOM     14  C   UNL     1      45.102   1.997   9.024  0.00  0.00    +0.000 A 
ATOM     15  C   UNL     1      45.952   1.041   8.473  0.00  0.00    +0.000 A 
ATOM     16  C   UNL     1      46.698   1.339   7.331  0.00  0.00    +0.000 A 
ATOM     17  C   UNL     1      46.586   2.589   6.709  0.00  0.00    +0.000 A 
ATOM     18  C   UNL     1      45.726   3.544   7.277  0.00  0.00    +0.000 A 
BRANCH  17  19
ATOM     19  C   UNL     1      47.462   2.918   5.524  0.00  0.00    +0.000 C 
BRANCH  19  20
ATOM     20  N   UNL     1      48.462   1.891   5.242  0.00  0.00    +0.000 NA
ATOM     21  H   UNL     1      49.240   2.326   4.748  0.00  0.00    +0.000 HD
ATOM     22  H   UNL     1      48.060   1.211   4.599  0.00  0.00    +0.000 HD
ENDBRANCH  19  20
ENDBRANCH  17  19
ENDBRANCH  12  13
ENDBRANCH   7  12
TORSDOF 5
ENDMDL
MODEL 2
REMARK VINA RESULT:    -7.069      2.545      5.938
REMARK INTER + INTRA:          -9.352
REMARK INTER:                  -8.805
REMARK INTRA:                  -0.548
REMARK UNBOUND:                -0.424
REMARK  Name = 
REMARK  6 active torsions:
REMARK  status: ('A' for Active; 'I' for Inactive)
REMARK    1  A    between atoms: C_1  and  O_2
REMARK    2  A    between atoms: O_2  and  C_3
REMARK    3  A    between atoms: N_9  and  C_10
REMARK    4  A    between atoms: C_10  and  C_11
REMARK    5  A    between atoms: C_15  and  C_16
REMARK    6  A    between atoms: C_16  and  N_17
REMARK                            x       y       z     vdW  Elec       q    Type
REMARK                         _______ _______ _______ _____ _____    ______ ____
ROOT
ATOM      1  C   UNL     1      45.697   3.739   8.108  0.00  0.00    +0.000 A 
ATOM      2  C   UNL     1      45.485   2.382   8.339  0.00  0.00    +0.000 A 
ATOM      3  C   UNL     1      44.738   1.956   9.444  0.00  0.00    +0.000 A 
ATOM      4  C   UNL     1      44.186   2.907  10.323  0.00  0.00    +0.000 A 
ATOM      5  C   UNL     1      43.398   2.804  11.497  0.00  0.00    +0.000 A 
ATOM      6  C   UNL     1      43.122   4.076  11.929  0.00  0.00    +0.000 A 
ATOM      7  N   UNL     1      43.719   4.962  11.061  0.00  0.00    +0.000 N 
ATOM      8  C   UNL     1      44.402   4.268  10.078  0.00  0.00    +0.000 A 
ATOM      9  C   UNL     1      45.178   4.699   8.988  0.00  0.00    +0.000 A 
ENDROOT
BRANCH   1  11
ATOM     10  C   UNL     1      46.824   3.293   6.082  0.00  0.00    +0.000 C 
ATOM     11  O   UNL     1      46.428   4.244   7.064  0.00  0.00    +0.000 OA
ENDBRANCH   1  11
BRANCH   7  12
ATOM     12  C   UNL     1      43.529   6.409  11.126  0.00  0.00    +0.000 C 
BRANCH  12  13
ATOM     13  C   UNL     1      44.705   7.109  11.759  0.00  0.00    +0.000 A 
ATOM     14  C   UNL     1      44.843   8.497  11.654  0.00  0.00    +0.000 A 
ATOM     15  C   UNL     1      45.956   9.138  12.193  0.00  0.00    +0.000 A 
ATOM     16  C   UNL     1      46.946   8.398  12.843  0.00  0.00    +0.000 A 
ATOM     17  C   UNL     1      46.825   7.009  12.984  0.00  0.00    +0.000 A 
ATOM     18  C   UNL     1      45.698   6.377  12.433  0.00  0.00    +0.000 A 
BRANCH  17  19
ATOM     19  C   UNL     1      47.945   6.220  13.618  0.00  0.00    +0.000 C 
BRANCH  19  20
ATOM     20  N   UNL     1      49.264   6.566  13.095  0.00  0.00    +0.000 NA
ATOM     21  H   UNL     1      49.348   6.183  12.154  0.00  0.00    +0.000 HD
ATOM     22  H   UNL     1      49.973   6.098  13.658  0.00  0.00    +0.000 HD
ENDBRANCH  19  20
ENDBRANCH  17  19
ENDBRANCH  12  13
ENDBRANCH   7  12
TORSDOF 5
ENDMDL
MODEL 3
REMARK VINA RESULT:    -6.753      2.068      3.333
REMARK INTER + INTRA:          -8.953
REMARK INTER:                  -8.317
REMARK INTRA:                  -0.636
REMARK UNBOUND:                -0.424
REMARK  Name = 
REMARK  6 active torsions:
REMARK  status: ('A' for Active; 'I' for Inactive)
REMARK    1  A    between atoms: C_1  and  O_2
REMARK    2  A    between atoms: O_2  and  C_3
REMARK    3  A    between atoms: N_9  and  C_10
REMARK    4  A    between atoms: C_10  and  C_11
REMARK    5  A    between atoms: C_15  and  C_16
REMARK    6  A    between atoms: C_16  and  N_17
REMARK                            x       y       z     vdW  Elec       q    Type
REMARK                         _______ _______ _______ _____ _____    ______ ____
ROOT
ATOM      1  C   UNL     1      47.048   4.917  14.126  0.00  0.00    +0.000 A 
ATOM      2  C   UNL     1      47.847   6.039  14.337  0.00  0.00    +0.000 A 
ATOM      3  C   UNL     1      47.570   7.244  13.680  0.00  0.00    +0.000 A 
ATOM      4  C   UNL     1      46.467   7.328  12.810  0.00  0.00    +0.000 A 
ATOM      5  C   UNL     1      45.930   8.374  12.020  0.00  0.00    +0.000 A 
ATOM      6  C   UNL     1      44.815   7.890  11.384  0.00  0.00    +0.000 A 
ATOM      7  N   UNL     1      44.649   6.574  11.753  0.00  0.00    +0.000 N 
ATOM      8  C   UNL     1      45.668   6.196  12.610  0.00  0.00    +0.000 A 
ATOM      9  C   UNL     1      45.962   4.974  13.242  0.00  0.00    +0.000 A 
ENDROOT
BRANCH   1  11
ATOM     10  C   UNL     1      47.505   3.726  16.114  0.00  0.00    +0.000 C 
ATOM     11  O   UNL     1      47.255   3.694  14.713  0.00  0.00    +0.000 OA
ENDBRANCH   1  11
BRANCH   7  12
ATOM     12  C   UNL     1      43.489   5.769  11.379  0.00  0.00    +0.000 C 
BRANCH  12  13
ATOM     13  C   UNL     1      43.881   4.523  10.627  0.00  0.00    +0.000 A 
ATOM     14  C   UNL     1      43.547   3.259  11.127  0.00  0.00    +0.000 A 
ATOM     15  C   UNL     1      43.954   2.106  10.460  0.00  0.00    +0.000 A 
ATOM     16  C   UNL     1      44.701   2.202   9.285  0.00  0.00    +0.000 A 
ATOM     17  C   UNL     1      45.032   3.452   8.747  0.00  0.00    +0.000 A 
ATOM     18  C   UNL     1      44.617   4.606   9.432  0.00  0.00    +0.000 A 
BRANCH  17  19
ATOM     19  C   UNL     1      45.910   3.533   7.521  0.00  0.00    +0.000 C 
BRANCH  19  20
ATOM     20  N   UNL     1      46.804   4.688   7.525  0.00  0.00    +0.000 NA
ATOM     21  H   UNL     1      46.705   5.168   8.419  0.00  0.00    +0.000 HD
ATOM     22  H   UNL     1      46.493   5.345   6.812  0.00  0.00    +0.000 HD
ENDBRANCH  19  20
ENDBRANCH  17  19
ENDBRANCH  12  13
ENDBRANCH   7  12
TORSDOF 5
ENDMDL
MODEL 4
REMARK VINA RESULT:    -6.041      2.813      5.165
REMARK INTER + INTRA:          -8.054
REMARK INTER:                  -7.438
REMARK INTRA:                  -0.616
REMARK UNBOUND:                -0.424
REMARK  Name = 
REMARK  6 active torsions:
REMARK  status: ('A' for Active; 'I' for Inactive)
REMARK    1  A    between atoms: C_1  and  O_2
REMARK    2  A    between atoms: O_2  and  C_3
REMARK    3  A    between atoms: N_9  and  C_10
REMARK    4  A    between atoms: C_10  and  C_11
REMARK    5  A    between atoms: C_15  and  C_16
REMARK    6  A    between atoms: C_16  and  N_17
REMARK                            x       y       z     vdW  Elec       q    Type
REMARK                         _______ _______ _______ _____ _____    ______ ____
ROOT
ATOM      1  C   UNL     1      45.312   9.936  12.155  0.00  0.00    +0.000 A 
ATOM      2  C   UNL     1      46.423  10.583  11.619  0.00  0.00    +0.000 A 
ATOM      3  C   UNL     1      47.677   9.960  11.616  0.00  0.00    +0.000 A 
ATOM      4  C   UNL     1      47.814   8.663  12.146  0.00  0.00    +0.000 A 
ATOM      5  C   UNL     1      48.914   7.780  12.284  0.00  0.00    +0.000 A 
ATOM      6  C   UNL     1      48.453   6.622  12.857  0.00  0.00    +0.000 A 
ATOM      7  N   UNL     1      47.102   6.764  13.082  0.00  0.00    +0.000 N 
ATOM      8  C   UNL     1      46.689   8.021  12.678  0.00  0.00    +0.000 A 
ATOM      9  C   UNL     1      45.435   8.656  12.714  0.00  0.00    +0.000 A 
ENDROOT
BRANCH   1  11
ATOM     10  C   UNL     1      43.662  11.240  11.079  0.00  0.00    +0.000 C 
ATOM     11  O   UNL     1      44.053  10.477  12.217  0.00  0.00    +0.000 OA
ENDBRANCH   1  11
BRANCH   7  12
ATOM     12  C   UNL     1      46.244   5.682  13.558  0.00  0.00    +0.000 C 
BRANCH  12  13
ATOM     13  C   UNL     1      45.165   5.334  12.565  0.00  0.00    +0.000 A 
ATOM     14  C   UNL     1      43.825   5.278  12.965  0.00  0.00    +0.000 A 
ATOM     15  C   UNL     1      42.834   4.906  12.060  0.00  0.00    +0.000 A 
ATOM     16  C   UNL     1      43.170   4.583  10.744  0.00  0.00    +0.000 A 
ATOM     17  C   UNL     1      44.500   4.651  10.308  0.00  0.00    +0.000 A 
ATOM     18  C   UNL     1      45.489   5.026  11.232  0.00  0.00    +0.000 A 
BRANCH  17  19
ATOM     19  C   UNL     1      44.851   4.218   8.904  0.00  0.00    +0.000 C 
BRANCH  19  20
ATOM     20  N   UNL     1      45.923   5.011   8.307  0.00  0.00    +0.000 NA
ATOM     21  H   UNL     1      46.795   4.786   8.784  0.00  0.00    +0.000 HD
ATOM     22  H   UNL     1      45.743   5.997   8.491  0.00  0.00    +0.000 HD
ENDBRANCH  19  20
ENDBRANCH  17  19
ENDBRANCH  12  13
ENDBRANCH   7  12
TORSDOF 5
ENDMDL
MODEL 5
REMARK VINA RESULT:    -5.707      4.451      8.032
REMARK INTER + INTRA:          -7.632
REMARK INTER:                  -6.981
REMARK INTRA:                  -0.650
REMARK UNBOUND:                -0.424
REMARK  Name = 
REMARK  6 active torsions:
REMARK  status: ('A' for Active; 'I' for Inactive)
REMARK    1  A    between atoms: C_1  and  O_2
REMARK    2  A    between atoms: O_2  and  C_3
REMARK    3  A    between atoms: N_9  and  C_10
REMARK    4  A    between atoms: C_10  and  C_11
REMARK    5  A    between atoms: C_15  and  C_16
REMARK    6  A    between atoms: C_16  and  N_17
REMARK                            x       y       z     vdW  Elec       q    Type
REMARK                         _______ _______ _______ _____ _____    ______ ____
ROOT
ATOM      1  C   UNL     1      45.095   4.737  12.688  0.00  0.00    +0.000 A 
ATOM      2  C   UNL     1      44.236   5.618  12.034  0.00  0.00    +0.000 A 
ATOM      3  C   UNL     1      44.517   6.989  11.996  0.00  0.00    +0.000 A 
ATOM      4  C   UNL     1      45.683   7.481  12.611  0.00  0.00    +0.000 A 
ATOM      5  C   UNL     1      46.240   8.777  12.742  0.00  0.00    +0.000 A 
ATOM      6  C   UNL     1      47.422   8.659  13.428  0.00  0.00    +0.000 A 
ATOM      7  N   UNL     1      47.610   7.329  13.730  0.00  0.00    +0.000 N 
ATOM      8  C   UNL     1      46.541   6.586  13.261  0.00  0.00    +0.000 A 
ATOM      9  C   UNL     1      46.247   5.213  13.331  0.00  0.00    +0.000 A 
ENDROOT
BRANCH   1  11
ATOM     10  C   UNL     1      43.686   2.905  12.202  0.00  0.00    +0.000 C 
ATOM     11  O   UNL     1      44.891   3.384  12.790  0.00  0.00    +0.000 OA
ENDBRANCH   1  11
BRANCH   7  12
ATOM     12  C   UNL     1      48.829   6.802  14.339  0.00  0.00    +0.000 C 
BRANCH  12  13
ATOM     13  C   UNL     1      48.645   6.495  15.803  0.00  0.00    +0.000 A 
ATOM     14  C   UNL     1      48.824   7.495  16.766  0.00  0.00    +0.000 A 
ATOM     15  C   UNL     1      48.705   7.199  18.122  0.00  0.00    +0.000 A 
ATOM     16  C   UNL     1      48.406   5.899  18.533  0.00  0.00    +0.000 A 
ATOM     17  C   UNL     1      48.199   4.880  17.593  0.00  0.00    +0.000 A 
ATOM     18  C   UNL     1      48.325   5.193  16.229  0.00  0.00    +0.000 A 
BRANCH  17  19
ATOM     19  C   UNL     1      47.958   3.465  18.061  0.00  0.00    +0.000 C 
BRANCH  19  20
ATOM     20  N   UNL     1      46.651   2.942  17.671  0.00  0.00    +0.000 NA
ATOM     21  H   UNL     1      45.955   3.291  18.330  0.00  0.00    +0.000 HD
ATOM     22  H   UNL     1      46.660   1.929  17.775  0.00  0.00    +0.000 HD
ENDBRANCH  19  20
ENDBRANCH  17  19
ENDBRANCH  12  13
ENDBRANCH   7  12
TORSDOF 5
ENDMDL
MODEL 6
REMARK VINA RESULT:    -5.686      2.294      4.465
REMARK INTER + INTRA:          -7.606
REMARK INTER:                  -7.014
REMARK INTRA:                  -0.591
REMARK UNBOUND:                -0.424
REMARK  Name = 
REMARK  6 active torsions:
REMARK  status: ('A' for Active; 'I' for Inactive)
REMARK    1  A    between atoms: C_1  and  O_2
REMARK    2  A    between atoms: O_2  and  C_3
REMARK    3  A    between atoms: N_9  and  C_10
REMARK    4  A    between atoms: C_10  and  C_11
REMARK    5  A    between atoms: C_15  and  C_16
REMARK    6  A    between atoms: C_16  and  N_17
REMARK                            x       y       z     vdW  Elec       q    Type
REMARK                         _______ _______ _______ _____ _____    ______ ____
ROOT
ATOM      1  C   UNL     1      49.491   8.826  11.693  0.00  0.00    +0.000 A 
ATOM      2  C   UNL     1      48.990  10.121  11.574  0.00  0.00    +0.000 A 
ATOM      3  C   UNL     1      47.628  10.378  11.775  0.00  0.00    +0.000 A 
ATOM      4  C   UNL     1      46.760   9.322  12.111  0.00  0.00    +0.000 A 
ATOM      5  C   UNL     1      45.370   9.254  12.377  0.00  0.00    +0.000 A 
ATOM      6  C   UNL     1      45.064   7.952  12.681  0.00  0.00    +0.000 A 
ATOM      7  N   UNL     1      46.223   7.212  12.607  0.00  0.00    +0.000 N 
ATOM      8  C   UNL     1      47.276   8.027  12.232  0.00  0.00    +0.000 A 
ATOM      9  C   UNL     1      48.637   7.758  12.000  0.00  0.00    +0.000 A 
ENDROOT
BRANCH   1  11
ATOM     10  C   UNL     1      51.633   8.559  12.654  0.00  0.00    +0.000 C 
ATOM     11  O   UNL     1      50.805   8.481  11.498  0.00  0.00    +0.000 OA
ENDBRANCH   1  11
BRANCH   7  12
ATOM     12  C   UNL     1      46.311   5.807  12.998  0.00  0.00    +0.000 C 
BRANCH  12  13
ATOM     13  C   UNL     1      45.408   4.929  12.170  0.00  0.00    +0.000 A 
ATOM     14  C   UNL     1      44.504   4.058  12.790  0.00  0.00    +0.000 A 
ATOM     15  C   UNL     1      43.706   3.209  12.027  0.00  0.00    +0.000 A 
ATOM     16  C   UNL     1      43.802   3.219  10.634  0.00  0.00    +0.000 A 
ATOM     17  C   UNL     1      44.681   4.095   9.983  0.00  0.00    +0.000 A 
ATOM     18  C   UNL     1      45.481   4.944  10.766  0.00  0.00    +0.000 A 
BRANCH  17  19
ATOM     19  C   UNL     1      44.828   4.031   8.482  0.00  0.00    +0.000 C 
BRANCH  19  20
ATOM     20  N   UNL     1      46.029   4.703   7.990  0.00  0.00    +0.000 NA
ATOM     21  H   UNL     1      45.753   5.367   7.267  0.00  0.00    +0.000 HD
ATOM     22  H   UNL     1      46.625   4.015   7.534  0.00  0.00    +0.000 HD
ENDBRANCH  19  20
ENDBRANCH  17  19
ENDBRANCH  12  13
ENDBRANCH   7  12
TORSDOF 5
ENDMDL
MODEL 7
REMARK VINA RESULT:    -5.667      4.146      6.448
REMARK INTER + INTRA:          -7.582
REMARK INTER:                  -6.866
REMARK INTRA:                  -0.716
REMARK UNBOUND:                -0.424
REMARK  Name = 
REMARK  6 active torsions:
REMARK  status: ('A' for Active; 'I' for Inactive)
REMARK    1  A    between atoms: C_1  and  O_2
REMARK    2  A    between atoms: O_2  and  C_3
REMARK    3  A    between atoms: N_9  and  C_10
REMARK    4  A    between atoms: C_10  and  C_11
REMARK    5  A    between atoms: C_15  and  C_16
REMARK    6  A    between atoms: C_16  and  N_17
REMARK                            x       y       z     vdW  Elec       q    Type
REMARK                         _______ _______ _______ _____ _____    ______ ____
ROOT
ATOM      1  C   UNL     1      46.794   3.879  13.774  0.00  0.00    +0.000 A 
ATOM      2  C   UNL     1      45.982   3.292  12.806  0.00  0.00    +0.000 A 
ATOM      3  C   UNL     1      45.209   4.085  11.949  0.00  0.00    +0.000 A 
ATOM      4  C   UNL     1      45.263   5.487  12.056  0.00  0.00    +0.000 A 
ATOM      5  C   UNL     1      44.625   6.540  11.355  0.00  0.00    +0.000 A 
ATOM      6  C   UNL     1      45.079   7.726  11.874  0.00  0.00    +0.000 A 
ATOM      7  N   UNL     1      45.975   7.437  12.880  0.00  0.00    +0.000 N 
ATOM      8  C   UNL     1      46.086   6.066  13.029  0.00  0.00    +0.000 A 
ATOM      9  C   UNL     1      46.838   5.273  13.914  0.00  0.00    +0.000 A 
ENDROOT
BRANCH   1  11
ATOM     10  C   UNL     1      47.598   3.708  15.988  0.00  0.00    +0.000 C 
ATOM     11  O   UNL     1      47.569   3.182  14.666  0.00  0.00    +0.000 OA
ENDBRANCH   1  11
BRANCH   7  12
ATOM     12  C   UNL     1      46.766   8.450  13.573  0.00  0.00    +0.000 C 
BRANCH  12  13
ATOM     13  C   UNL     1      47.874   8.996  12.709  0.00  0.00    +0.000 A 
ATOM     14  C   UNL     1      47.810  10.306  12.218  0.00  0.00    +0.000 A 
ATOM     15  C   UNL     1      48.806  10.794  11.377  0.00  0.00    +0.000 A 
ATOM     16  C   UNL     1      49.880   9.978  11.014  0.00  0.00    +0.000 A 
ATOM     17  C   UNL     1      49.984   8.670  11.506  0.00  0.00    +0.000 A 
ATOM     18  C   UNL     1      48.970   8.191  12.352  0.00  0.00    +0.000 A 
BRANCH  17  19
ATOM     19  C   UNL     1      51.109   7.780  11.036  0.00  0.00    +0.000 C 
BRANCH  19  20
ATOM     20  N   UNL     1      52.310   7.880  11.863  0.00  0.00    +0.000 NA
ATOM     21  H   UNL     1      53.126   7.801  11.257  0.00  0.00    +0.000 HD
ATOM     22  H   UNL     1      52.342   7.079  12.492  0.00  0.00    +0.000 HD
ENDBRANCH  19  20
ENDBRANCH  17  19
ENDBRANCH  12  13
ENDBRANCH   7  12
TORSDOF 5
ENDMDL
MODEL 8
REMARK VINA RESULT:    -5.449      3.237      6.433
REMARK INTER + INTRA:          -7.306
REMARK INTER:                  -6.938
REMARK INTRA:                  -0.367
REMARK UNBOUND:                -0.424
REMARK  Name = 
REMARK  6 active torsions:
REMARK  status: ('A' for Active; 'I' for Inactive)
REMARK    1  A    between atoms: C_1  and  O_2
REMARK    2  A    between atoms: O_2  and  C_3
REMARK    3  A    between atoms: N_9  and  C_10
REMARK    4  A    between atoms: C_10  and  C_11
REMARK    5  A    between atoms: C_15  and  C_16
REMARK    6  A    between atoms: C_16  and  N_17
REMARK                            x       y       z     vdW  Elec       q    Type
REMARK                         _______ _______ _______ _____ _____    ______ ____
ROOT
ATOM      1  C   UNL     1      45.648   4.127   8.556  0.00  0.00    +0.000 A 
ATOM      2  C   UNL     1      44.759   3.055   8.603  0.00  0.00    +0.000 A 
ATOM      3  C   UNL     1      44.088   2.739   9.790  0.00  0.00    +0.000 A 
ATOM      4  C   UNL     1      44.302   3.518  10.942  0.00  0.00    +0.000 A 
ATOM      5  C   UNL     1      43.787   3.464  12.261  0.00  0.00    +0.000 A 
ATOM      6  C   UNL     1      44.333   4.505  12.968  0.00  0.00    +0.000 A 
ATOM      7  N   UNL     1      45.174   5.198  12.127  0.00  0.00    +0.000 N 
ATOM      8  C   UNL     1      45.193   4.596  10.882  0.00  0.00    +0.000 A 
ATOM      9  C   UNL     1      45.895   4.897   9.701  0.00  0.00    +0.000 A 
ENDROOT
BRANCH   1  11
ATOM     10  C   UNL     1      46.548   3.473   6.472  0.00  0.00    +0.000 C 
ATOM     11  O   UNL     1      46.361   4.497   7.443  0.00  0.00    +0.000 OA
ENDBRANCH   1  11
BRANCH   7  12
ATOM     12  C   UNL     1      45.831   6.451  12.493  0.00  0.00    +0.000 C 
BRANCH  12  13
ATOM     13  C   UNL     1      45.081   7.655  11.982  0.00  0.00    +0.000 A 
ATOM     14  C   UNL     1      43.841   7.503  11.351  0.00  0.00    +0.000 A 
ATOM     15  C   UNL     1      43.172   8.609  10.833  0.00  0.00    +0.000 A 
ATOM     16  C   UNL     1      43.734   9.882  10.939  0.00  0.00    +0.000 A 
ATOM     17  C   UNL     1      44.963  10.071  11.585  0.00  0.00    +0.000 A 
ATOM     18  C   UNL     1      45.628   8.945  12.100  0.00  0.00    +0.000 A 
BRANCH  17  19
ATOM     19  C   UNL     1      45.592  11.444  11.615  0.00  0.00    +0.000 C 
BRANCH  19  20
ATOM     20  N   UNL     1      46.782  11.515  12.459  0.00  0.00    +0.000 NA
ATOM     21  H   UNL     1      46.844  12.455  12.849  0.00  0.00    +0.000 HD
ATOM     22  H   UNL     1      47.607  11.394  11.873  0.00  0.00    +0.000 HD
ENDBRANCH  19  20
ENDBRANCH  17  19
ENDBRANCH  12  13
ENDBRANCH   7  12
TORSDOF 5
ENDMDL
MODEL 9
REMARK VINA RESULT:    -5.186      3.747      7.669
REMARK INTER + INTRA:          -6.973
REMARK INTER:                  -6.352
REMARK INTRA:                  -0.622
REMARK UNBOUND:                -0.424
REMARK  Name = 
REMARK  6 active torsions:
REMARK  status: ('A' for Active; 'I' for Inactive)
REMARK    1  A    between atoms: C_1  and  O_2
REMARK    2  A    between atoms: O_2  and  C_3
REMARK    3  A    between atoms: N_9  and  C_10
REMARK    4  A    between atoms: C_10  and  C_11
REMARK    5  A    between atoms: C_15  and  C_16
REMARK    6  A    between atoms: C_16  and  N_17
REMARK                            x       y       z     vdW  Elec       q    Type
REMARK                         _______ _______ _______ _____ _____    ______ ____
ROOT
ATOM      1  C   UNL     1      44.378   4.213  11.309  0.00  0.00    +0.000 A 
ATOM      2  C   UNL     1      43.452   5.187  10.943  0.00  0.00    +0.000 A 
ATOM      3  C   UNL     1      43.639   6.523  11.316  0.00  0.00    +0.000 A 
ATOM      4  C   UNL     1      44.779   6.889  12.056  0.00  0.00    +0.000 A 
ATOM      5  C   UNL     1      45.249   8.123  12.571  0.00  0.00    +0.000 A 
ATOM      6  C   UNL     1      46.447   7.887  13.197  0.00  0.00    +0.000 A 
ATOM      7  N   UNL     1      46.728   6.543  13.090  0.00  0.00    +0.000 N 
ATOM      8  C   UNL     1      45.705   5.902  12.415  0.00  0.00    +0.000 A 
ATOM      9  C   UNL     1      45.504   4.554  12.070  0.00  0.00    +0.000 A 
ENDROOT
BRANCH   1  11
ATOM     10  C   UNL     1      44.484   2.550   9.634  0.00  0.00    +0.000 C 
ATOM     11  O   UNL     1      44.266   2.880  11.002  0.00  0.00    +0.000 OA
ENDBRANCH   1  11
BRANCH   7  12
ATOM     12  C   UNL     1      47.989   5.944  13.522  0.00  0.00    +0.000 C 
BRANCH  12  13
ATOM     13  C   UNL     1      47.960   5.547  14.975  0.00  0.00    +0.000 A 
ATOM     14  C   UNL     1      47.242   4.419  15.388  0.00  0.00    +0.000 A 
ATOM     15  C   UNL     1      47.172   4.081  16.737  0.00  0.00    +0.000 A 
ATOM     16  C   UNL     1      47.819   4.868  17.692  0.00  0.00    +0.000 A 
ATOM     17  C   UNL     1      48.565   5.991  17.309  0.00  0.00    +0.000 A 
ATOM     18  C   UNL     1      48.624   6.320  15.944  0.00  0.00    +0.000 A 
BRANCH  17  19
ATOM     19  C   UNL     1      49.187   6.873  18.364  0.00  0.00    +0.000 C 
BRANCH  19  20
ATOM     20  N   UNL     1      48.381   8.050  18.682  0.00  0.00    +0.000 NA
ATOM     21  H   UNL     1      47.569   7.748  19.219  0.00  0.00    +0.000 HD
ATOM     22  H   UNL     1      48.020   8.443  17.815  0.00  0.00    +0.000 HD
ENDBRANCH  19  20
ENDBRANCH  17  19
ENDBRANCH  12  13
ENDBRANCH   7  12
TORSDOF 5
ENDMDL
