MODEL 1
REMARK VINA RESULT:    -7.814      0.000      0.000
REMARK INTER + INTRA:         -11.032
REMARK INTER:                 -10.555
REMARK INTRA:                  -0.478
REMARK UNBOUND:                -0.478
REMARK  Name = 
REMARK  7 active torsions:
REMARK  status: ('A' for Active; 'I' for Inactive)
REMARK    1  A    between atoms: N_1  and  C_2
REMARK    2  A    between atoms: C_2  and  C_3
REMARK    3  A    between atoms: C_6  and  C_7
REMARK    4  A    between atoms: C_7  and  O_8
REMARK    5  A    between atoms: O_8  and  C_9
REMARK    6  A    between atoms: CA_12  and  C_13
REMARK    7  A    between atoms: C_13  and  OXT_15
REMARK                            x       y       z     vdW  Elec       q    Type
REMARK                         _______ _______ _______ _____ _____    ______ ____
ROOT
ATOM      1  C   UNL     1      43.789   4.368  10.073  0.00  0.00    +0.000 C 
ENDROOT
BRANCH   1   5
ATOM      2  C   UNL     1      46.656   2.357   7.519  0.00  0.00    +0.000 A 
ATOM      3  C   UNL     1      46.509   3.749   7.453  0.00  0.00    +0.000 A 
ATOM      4  C   UNL     1      45.592   4.406   8.277  0.00  0.00    +0.000 A 
ATOM      5  C   UNL     1      44.799   3.683   9.181  0.00  0.00    +0.000 A 
ATOM      6  C   UNL     1      44.972   2.295   9.265  0.00  0.00    +0.000 A 
ATOM      7  C   UNL     1      45.890   1.640   8.445  0.00  0.00    +0.000 A 
BRANCH   2   8
ATOM      8  C   UNL     1      47.582   1.636   6.575  0.00  0.00    +0.000 C 
BRANCH   8   9
ATOM      9  N   UNL     1      48.662   2.510   6.136  0.00  0.00    +0.000 NA
ATOM     10  H   UNL     1      48.704   3.320   6.750  0.00  0.00    +0.000 HD
ATOM     11  H   UNL     1      48.441   2.856   5.203  0.00  0.00    +0.000 HD
ENDBRANCH   8   9
ENDBRANCH   2   8
ENDBRANCH   1   5
BRANCH   1  12
ATOM     12  O   UNL     1      44.384   5.522  10.669  0.00  0.00    +0.000 OA
BRANCH  12  13
ATOM     13  C   UNL     1      45.221   5.325  11.731  0.00  0.00    +0.000 A 
ATOM     14  C   UNL     1      46.362   6.050  12.047  0.00  0.00    +0.000 A 
ATOM     15  C   UNL     1      47.079   5.741  13.220  0.00  0.00    +0.000 A 
ATOM     16  CA  UNL     1      46.622   4.702  14.046  0.00  0.00    +0.000 A 
ATOM     17  N   UNL     1      45.515   3.969  13.752  0.00  0.00    +0.000 NA
ATOM     18  C   UNL     1      44.856   4.303  12.607  0.00  0.00    +0.000 A 
BRANCH  16  19
ATOM     19  C   UNL     1      47.319   4.322  15.337  0.00  0.00    +0.000 C 
ATOM     20  O   UNL     1      47.641   3.188  15.593  0.00  0.00    +0.000 OA
BRANCH  19  21
ATOM     21  OXT UNL     1      47.558   5.355  16.187  0.00  0.00    +0.000 OA
ATOM     22  HXT UNL     1      47.153   5.277  17.072  0.00  0.00    +0.000 HD
ENDBRANCH  19  21
ENDBRANCH  16  19
ENDBRANCH  12  13
ENDBRANCH   1  12
TORSDOF 7
ENDMDL
MODEL 2
REMARK VINA RESULT:    -7.768      2.912      6.150
REMARK INTER + INTRA:         -10.971
REMARK INTER:                 -10.377
REMARK INTRA:                  -0.593
REMARK UNBOUND:                -0.478
REMARK  Name = 
REMARK  7 active torsions:
REMARK  status: ('A' for Active; 'I' for Inactive)
REMARK    1  A    between atoms: N_1  and  C_2
REMARK    2  A    between atoms: C_2  and  C_3
REMARK    3  A    between atoms: C_6  and  C_7
REMARK    4  A    between atoms: C_7  and  O_8
REMARK    5  A    between atoms: O_8  and  C_9
REMARK    6  A    between atoms: CA_12  and  C_13
REMARK    7  A    between atoms: C_13  and  OXT_15
REMARK                            x       y       z     vdW  Elec       q    Type
REMARK                         _______ _______ _______ _____ _____    ______ ____
ROOT
ATOM      1  C   UNL     1      43.600   4.309  11.311  0.00  0.00    +0.000 C 
ENDROOT
BRANCH   1   5
ATOM      2  C   UNL     1      47.071   6.119  13.172  0.00  0.00    +0.000 A 
ATOM      3  C   UNL     1      46.292   6.854  12.270  0.00  0.00    +0.000 A 
ATOM      4  C   UNL     1      45.168   6.282  11.670  0.00  0.00    +0.000 A 
ATOM      5  C   UNL     1      44.803   4.958  11.957  0.00  0.00    +0.000 A 
ATOM      6  C   UNL     1      45.567   4.236  12.884  0.00  0.00    +0.000 A 
ATOM      7  C   UNL     1      46.687   4.810  13.486  0.00  0.00    +0.000 A 
BRANCH   2   8
ATOM      8  C   UNL     1      48.330   6.703  13.757  0.00  0.00    +0.000 C 
BRANCH   8   9
ATOM      9  N   UNL     1      49.422   6.658  12.794  0.00  0.00    +0.000 NA
ATOM     10  H   UNL     1      49.912   7.549  12.806  0.00  0.00    +0.000 HD
ATOM     11  H   UNL     1      49.026   6.551  11.860  0.00  0.00    +0.000 HD
ENDBRANCH   8   9
ENDBRANCH   2   8
ENDBRANCH   1   5
BRANCH   1  12
ATOM     12  O   UNL     1      43.641   4.528   9.900  0.00  0.00    +0.000 OA
BRANCH  12  13
ATOM     13  C   UNL     1      44.530   3.790   9.170  0.00  0.00    +0.000 A 
ATOM     14  C   UNL     1      45.441   4.259   8.234  0.00  0.00    +0.000 A 
ATOM     15  C   UNL     1      46.326   3.355   7.612  0.00  0.00    +0.000 A 
ATOM     16  CA  UNL     1      46.265   1.995   7.954  0.00  0.00    +0.000 A 
ATOM     17  N   UNL     1      45.372   1.510   8.858  0.00  0.00    +0.000 NA
ATOM     18  C   UNL     1      44.537   2.421   9.431  0.00  0.00    +0.000 A 
BRANCH  16  19
ATOM     19  C   UNL     1      47.196   0.962   7.353  0.00  0.00    +0.000 C 
ATOM     20  O   UNL     1      48.069   1.250   6.571  0.00  0.00    +0.000 OA
BRANCH  19  21
ATOM     21  OXT UNL     1      46.978  -0.315   7.760  0.00  0.00    +0.000 OA
ATOM     22  HXT UNL     1      47.722  -0.933   7.627  0.00  0.00    +0.000 HD
ENDBRANCH  19  21
ENDBRANCH  16  19
ENDBRANCH  12  13
ENDBRANCH   1  12
TORSDOF 7
ENDMDL
MODEL 3
REMARK VINA RESULT:    -7.392      1.165      1.923
REMARK INTER + INTRA:         -10.463
REMARK INTER:                  -9.882
REMARK INTRA:                  -0.581
REMARK UNBOUND:                -0.478
REMARK  Name = 
REMARK  7 active torsions:
REMARK  status: ('A' for Active; 'I' for Inactive)
REMARK    1  A    between atoms: N_1  and  C_2
REMARK    2  A    between atoms: C_2  and  C_3
REMARK    3  A    between atoms: C_6  and  C_7
REMARK    4  A    between atoms: C_7  and  O_8
REMARK    5  A    between atoms: O_8  and  C_9
REMARK    6  A    between atoms: CA_12  and  C_13
REMARK    7  A    between atoms: C_13  and  OXT_15
REMARK                            x       y       z     vdW  Elec       q    Type
REMARK                         _______ _______ _______ _____ _____    ______ ____
ROOT
ATOM      1  C   UNL     1      43.834   4.508  10.032  0.00  0.00    +0.000 C 
ENDROOT
BRANCH   1   5
ATOM      2  C   UNL     1      46.641   2.316   7.563  0.00  0.00    +0.000 A 
ATOM      3  C   UNL     1      45.788   1.631   8.437  0.00  0.00    +0.000 A 
ATOM      4  C   UNL     1      44.876   2.329   9.232  0.00  0.00    +0.000 A 
ATOM      5  C   UNL     1      44.802   3.729   9.172  0.00  0.00    +0.000 A 
ATOM      6  C   UNL     1      45.635   4.407   8.273  0.00  0.00    +0.000 A 
ATOM      7  C   UNL     1      46.543   3.710   7.476  0.00  0.00    +0.000 A 
BRANCH   2   8
ATOM      8  C   UNL     1      47.683   1.576   6.765  0.00  0.00    +0.000 C 
BRANCH   8   9
ATOM      9  N   UNL     1      48.731   2.480   6.312  0.00  0.00    +0.000 NA
ATOM     10  H   UNL     1      48.841   2.383   5.305  0.00  0.00    +0.000 HD
ATOM     11  H   UNL     1      49.613   2.193   6.735  0.00  0.00    +0.000 HD
ENDBRANCH   8   9
ENDBRANCH   2   8
ENDBRANCH   1   5
BRANCH   1  12
ATOM     12  O   UNL     1      43.846   3.984  11.360  0.00  0.00    +0.000 OA
BRANCH  12  13
ATOM     13  C   UNL     1      44.881   4.349  12.175  0.00  0.00    +0.000 A 
ATOM     14  C   UNL     1      45.719   3.508  12.894  0.00  0.00    +0.000 A 
ATOM     15  C   UNL     1      46.778   4.058  13.645  0.00  0.00    +0.000 A 
ATOM     16  CA  UNL     1      46.960   5.450  13.650  0.00  0.00    +0.000 A 
ATOM     17  N   UNL     1      46.144   6.295  12.965  0.00  0.00    +0.000 NA
ATOM     18  C   UNL     1      45.134   5.717  12.255  0.00  0.00    +0.000 A 
BRANCH  16  19
ATOM     19  C   UNL     1      48.087   6.120  14.410  0.00  0.00    +0.000 C 
ATOM     20  O   UNL     1      49.039   6.615  13.857  0.00  0.00    +0.000 OA
BRANCH  19  21
ATOM     21  OXT UNL     1      47.946   6.128  15.761  0.00  0.00    +0.000 OA
ATOM     22  HXT UNL     1      47.384   5.420  16.130  0.00  0.00    +0.000 HD
ENDBRANCH  19  21
ENDBRANCH  16  19
ENDBRANCH  12  13
ENDBRANCH   1  12
TORSDOF 7
ENDMDL
MODEL 4
REMARK VINA RESULT:    -7.196      2.840      6.724
REMARK INTER + INTRA:         -10.197
REMARK INTER:                  -9.673
REMARK INTRA:                  -0.525
REMARK UNBOUND:                -0.478
REMARK  Name = 
REMARK  7 active torsions:
REMARK  status: ('A' for Active; 'I' for Inactive)
REMARK    1  A    between atoms: N_1  and  C_2
REMARK    2  A    between atoms: C_2  and  C_3
REMARK    3  A    between atoms: C_6  and  C_7
REMARK    4  A    between atoms: C_7  and  O_8
REMARK    5  A    between atoms: O_8  and  C_9
REMARK    6  A    between atoms: CA_12  and  C_13
REMARK    7  A    between atoms: C_13  and  OXT_15
REMARK                            x       y       z     vdW  Elec       q    Type
REMARK                         _______ _______ _______ _____ _____    ______ ____
ROOT
ATOM      1  C   UNL     1      43.923   3.991  11.637  0.00  0.00    +0.000 C 
ENDROOT
BRANCH   1   5
ATOM      2  C   UNL     1      46.557   7.159  12.983  0.00  0.00    +0.000 A 
ATOM      3  C   UNL     1      45.404   7.466  12.250  0.00  0.00    +0.000 A 
ATOM      4  C   UNL     1      44.546   6.452  11.817  0.00  0.00    +0.000 A 
ATOM      5  C   UNL     1      44.827   5.108  12.105  0.00  0.00    +0.000 A 
ATOM      6  C   UNL     1      45.964   4.808  12.867  0.00  0.00    +0.000 A 
ATOM      7  C   UNL     1      46.819   5.821  13.303  0.00  0.00    +0.000 A 
BRANCH   2   8
ATOM      8  C   UNL     1      47.528   8.240  13.380  0.00  0.00    +0.000 C 
BRANCH   8   9
ATOM      9  N   UNL     1      47.092   8.909  14.599  0.00  0.00    +0.000 NA
ATOM     10  H   UNL     1      46.713   9.822  14.358  0.00  0.00    +0.000 HD
ATOM     11  H   UNL     1      47.907   9.073  15.189  0.00  0.00    +0.000 HD
ENDBRANCH   8   9
ENDBRANCH   2   8
ENDBRANCH   1   5
BRANCH   1  12
ATOM     12  O   UNL     1      43.709   4.108  10.230  0.00  0.00    +0.000 OA
BRANCH  12  13
ATOM     13  C   UNL     1      44.635   3.540   9.400  0.00  0.00    +0.000 A 
ATOM     14  C   UNL     1      44.965   2.195   9.307  0.00  0.00    +0.000 A 
ATOM     15  C   UNL     1      45.911   1.776   8.349  0.00  0.00    +0.000 A 
ATOM     16  CA  UNL     1      46.501   2.733   7.508  0.00  0.00    +0.000 A 
ATOM     17  N   UNL     1      46.203   4.058   7.589  0.00  0.00    +0.000 NA
ATOM     18  C   UNL     1      45.285   4.414   8.530  0.00  0.00    +0.000 A 
BRANCH  16  19
ATOM     19  C   UNL     1      47.506   2.365   6.435  0.00  0.00    +0.000 C 
ATOM     20  O   UNL     1      48.294   1.460   6.565  0.00  0.00    +0.000 OA
BRANCH  19  21
ATOM     21  OXT UNL     1      47.454   3.127   5.312  0.00  0.00    +0.000 OA
ATOM     22  HXT UNL     1      46.658   3.684   5.216  0.00  0.00    +0.000 HD
ENDBRANCH  19  21
ENDBRANCH  16  19
ENDBRANCH  12  13
ENDBRANCH   1  12
TORSDOF 7
ENDMDL
MODEL 5
REMARK VINA RESULT:    -7.184      2.005      2.546
REMARK INTER + INTRA:         -10.182
REMARK INTER:                  -9.639
REMARK INTRA:                  -0.542
REMARK UNBOUND:                -0.478
REMARK  Name = 
REMARK  7 active torsions:
REMARK  status: ('A' for Active; 'I' for Inactive)
REMARK    1  A    between atoms: N_1  and  C_2
REMARK    2  A    between atoms: C_2  and  C_3
REMARK    3  A    between atoms: C_6  and  C_7
REMARK    4  A    between atoms: C_7  and  O_8
REMARK    5  A    between atoms: O_8  and  C_9
REMARK    6  A    between atoms: CA_12  and  C_13
REMARK    7  A    between atoms: C_13  and  OXT_15
REMARK                            x       y       z     vdW  Elec       q    Type
REMARK                         _______ _______ _______ _____ _____    ______ ____
ROOT
ATOM      1  C   UNL     1      43.777   4.149  10.211  0.00  0.00    +0.000 C 
ENDROOT
BRANCH   1   5
ATOM      2  C   UNL     1      46.647   2.381   7.486  0.00  0.00    +0.000 A 
ATOM      3  C   UNL     1      46.459   3.769   7.508  0.00  0.00    +0.000 A 
ATOM      4  C   UNL     1      45.541   4.348   8.387  0.00  0.00    +0.000 A 
ATOM      5  C   UNL     1      44.787   3.549   9.260  0.00  0.00    +0.000 A 
ATOM      6  C   UNL     1      45.001   2.165   9.257  0.00  0.00    +0.000 A 
ATOM      7  C   UNL     1      45.921   1.587   8.381  0.00  0.00    +0.000 A 
BRANCH   2   8
ATOM      8  C   UNL     1      47.573   1.746   6.483  0.00  0.00    +0.000 C 
BRANCH   8   9
ATOM      9  N   UNL     1      48.705   2.617   6.195  0.00  0.00    +0.000 NA
ATOM     10  H   UNL     1      49.545   2.051   6.105  0.00  0.00    +0.000 HD
ATOM     11  H   UNL     1      48.849   3.236   6.992  0.00  0.00    +0.000 HD
ENDBRANCH   8   9
ENDBRANCH   2   8
ENDBRANCH   1   5
BRANCH   1  12
ATOM     12  O   UNL     1      44.246   4.014  11.553  0.00  0.00    +0.000 OA
BRANCH  12  13
ATOM     13  C   UNL     1      44.977   5.044  12.074  0.00  0.00    +0.000 A 
ATOM     14  C   UNL     1      46.116   4.951  12.861  0.00  0.00    +0.000 A 
ATOM     15  C   UNL     1      46.778   6.127  13.269  0.00  0.00    +0.000 A 
ATOM     16  CA  UNL     1      46.267   7.372  12.868  0.00  0.00    +0.000 A 
ATOM     17  N   UNL     1      45.145   7.489  12.108  0.00  0.00    +0.000 NA
ATOM     18  C   UNL     1      44.539   6.326  11.741  0.00  0.00    +0.000 A 
BRANCH  16  19
ATOM     19  C   UNL     1      46.931   8.682  13.240  0.00  0.00    +0.000 C 
ATOM     20  O   UNL     1      47.378   9.441  12.416  0.00  0.00    +0.000 OA
BRANCH  19  21
ATOM     21  OXT UNL     1      46.984   8.942  14.573  0.00  0.00    +0.000 OA
ATOM     22  HXT UNL     1      47.760   9.452  14.873  0.00  0.00    +0.000 HD
ENDBRANCH  19  21
ENDBRANCH  16  19
ENDBRANCH  12  13
ENDBRANCH   1  12
TORSDOF 7
ENDMDL
MODEL 6
REMARK VINA RESULT:    -6.054      3.414      7.691
REMARK INTER + INTRA:          -8.655
REMARK INTER:                  -8.323
REMARK INTRA:                  -0.332
REMARK UNBOUND:                -0.478
REMARK  Name = 
REMARK  7 active torsions:
REMARK  status: ('A' for Active; 'I' for Inactive)
REMARK    1  A    between atoms: N_1  and  C_2
REMARK    2  A    between atoms: C_2  and  C_3
REMARK    3  A    between atoms: C_6  and  C_7
REMARK    4  A    between atoms: C_7  and  O_8
REMARK    5  A    between atoms: O_8  and  C_9
REMARK    6  A    between atoms: CA_12  and  C_13
REMARK    7  A    between atoms: C_13  and  OXT_15
REMARK                            x       y       z     vdW  Elec       q    Type
REMARK                         _______ _______ _______ _____ _____    ______ ____
ROOT
ATOM      1  C   UNL     1      47.587   4.687  16.348  0.00  0.00    +0.000 C 
ENDROOT
BRANCH   1   5
ATOM      2  C   UNL     1      51.114   2.452  17.512  0.00  0.00    +0.000 A 
ATOM      3  C   UNL     1      51.062   3.838  17.707  0.00  0.00    +0.000 A 
ATOM      4  C   UNL     1      49.927   4.566  17.341  0.00  0.00    +0.000 A 
ATOM      5  C   UNL     1      48.821   3.921  16.766  0.00  0.00    +0.000 A 
ATOM      6  C   UNL     1      48.865   2.530  16.603  0.00  0.00    +0.000 A 
ATOM      7  C   UNL     1      49.997   1.803  16.972  0.00  0.00    +0.000 A 
BRANCH   2   8
ATOM      8  C   UNL     1      52.365   1.676  17.828  0.00  0.00    +0.000 C 
BRANCH   8   9
ATOM      9  N   UNL     1      52.049   0.299  18.182  0.00  0.00    +0.000 NA
ATOM     10  H   UNL     1      51.078   0.110  17.944  0.00  0.00    +0.000 HD
ATOM     11  H   UNL     1      52.130   0.197  19.193  0.00  0.00    +0.000 HD
ENDBRANCH   8   9
ENDBRANCH   2   8
ENDBRANCH   1   5
BRANCH   1  12
ATOM     12  O   UNL     1      47.789   5.246  15.050  0.00  0.00    +0.000 OA
BRANCH  12  13
ATOM     13  C   UNL     1      46.887   4.926  14.075  0.00  0.00    +0.000 A 
ATOM     14  C   UNL     1      46.173   5.804  13.270  0.00  0.00    +0.000 A 
ATOM     15  C   UNL     1      45.320   5.293  12.271  0.00  0.00    +0.000 A 
ATOM     16  CA  UNL     1      45.210   3.903  12.112  0.00  0.00    +0.000 A 
ATOM     17  N   UNL     1      45.889   3.023  12.896  0.00  0.00    +0.000 NA
ATOM     18  C   UNL     1      46.700   3.563  13.849  0.00  0.00    +0.000 A 
BRANCH  16  19
ATOM     19  C   UNL     1      44.337   3.272  11.046  0.00  0.00    +0.000 C 
ATOM     20  O   UNL     1      43.169   3.547  10.916  0.00  0.00    +0.000 OA
BRANCH  19  21
ATOM     21  OXT UNL     1      44.966   2.375  10.243  0.00  0.00    +0.000 OA
ATOM     22  HXT UNL     1      44.489   2.132   9.427  0.00  0.00    +0.000 HD
ENDBRANCH  19  21
ENDBRANCH  16  19
ENDBRANCH  12  13
ENDBRANCH   1  12
TORSDOF 7
ENDMDL
MODEL 7
REMARK VINA RESULT:    -5.956      2.048      3.057
REMARK INTER + INTRA:          -8.522
REMARK INTER:                  -8.060
REMARK INTRA:                  -0.462
REMARK UNBOUND:                -0.478
REMARK  Name = 
REMARK  7 active torsions:
REMARK  status: ('A' for Active; 'I' for Inactive)
REMARK    1  A    between atoms: N_1  and  C_2
REMARK    2  A    between atoms: C_2  and  C_3
REMARK    3  A    between atoms: C_6  and  C_7
REMARK    4  A    between atoms: C_7  and  O_8
REMARK    5  A    between atoms: O_8  and  C_9
REMARK    6  A    between atoms: CA_12  and  C_13
REMARK    7  A    between atoms: C_13  and  OXT_15
REMARK                            x       y       z     vdW  Elec       q    Type
REMARK                         _______ _______ _______ _____ _____    ______ ____
ROOT
ATOM      1  C   UNL     1      44.597   4.748  12.773  0.00  0.00    +0.000 C 
ENDROOT
BRANCH   1   5
ATOM      2  C   UNL     1      45.358   3.720   8.632  0.00  0.00    +0.000 A 
ATOM      3  C   UNL     1      44.813   2.770   9.504  0.00  0.00    +0.000 A 
ATOM      4  C   UNL     1      44.558   3.094  10.839  0.00  0.00    +0.000 A 
ATOM      5  C   UNL     1      44.850   4.376  11.330  0.00  0.00    +0.000 A 
ATOM      6  C   UNL     1      45.365   5.332  10.445  0.00  0.00    +0.000 A 
ATOM      7  C   UNL     1      45.616   5.009   9.112  0.00  0.00    +0.000 A 
BRANCH   2   8
ATOM      8  C   UNL     1      45.712   3.350   7.215  0.00  0.00    +0.000 C 
BRANCH   8   9
ATOM      9  N   UNL     1      46.858   4.118   6.747  0.00  0.00    +0.000 NA
ATOM     10  H   UNL     1      46.580   5.089   6.627  0.00  0.00    +0.000 HD
ATOM     11  H   UNL     1      47.128   3.771   5.827  0.00  0.00    +0.000 HD
ENDBRANCH   8   9
ENDBRANCH   2   8
ENDBRANCH   1   5
BRANCH   1  12
ATOM     12  O   UNL     1      45.527   4.063  13.612  0.00  0.00    +0.000 OA
BRANCH  12  13
ATOM     13  C   UNL     1      46.575   4.782  14.116  0.00  0.00    +0.000 A 
ATOM     14  C   UNL     1      47.138   5.932  13.579  0.00  0.00    +0.000 A 
ATOM     15  C   UNL     1      48.185   6.579  14.267  0.00  0.00    +0.000 A 
ATOM     16  CA  UNL     1      48.637   6.043  15.483  0.00  0.00    +0.000 A 
ATOM     17  N   UNL     1      48.109   4.911  16.022  0.00  0.00    +0.000 NA
ATOM     18  C   UNL     1      47.102   4.320  15.321  0.00  0.00    +0.000 A 
BRANCH  16  19
ATOM     19  C   UNL     1      49.739   6.689  16.298  0.00  0.00    +0.000 C 
ATOM     20  O   UNL     1      49.656   6.850  17.491  0.00  0.00    +0.000 OA
BRANCH  19  21
ATOM     21  OXT UNL     1      50.831   7.072  15.587  0.00  0.00    +0.000 OA
ATOM     22  HXT UNL     1      50.690   7.194  14.629  0.00  0.00    +0.000 HD
ENDBRANCH  19  21
ENDBRANCH  16  19
ENDBRANCH  12  13
ENDBRANCH   1  12
TORSDOF 7
ENDMDL
MODEL 8
REMARK VINA RESULT:    -5.782      2.928      4.941
REMARK INTER + INTRA:          -8.288
REMARK INTER:                  -7.972
REMARK INTRA:                  -0.316
REMARK UNBOUND:                -0.478
REMARK  Name = 
REMARK  7 active torsions:
REMARK  status: ('A' for Active; 'I' for Inactive)
REMARK    1  A    between atoms: N_1  and  C_2
REMARK    2  A    between atoms: C_2  and  C_3
REMARK    3  A    between atoms: C_6  and  C_7
REMARK    4  A    between atoms: C_7  and  O_8
REMARK    5  A    between atoms: O_8  and  C_9
REMARK    6  A    between atoms: CA_12  and  C_13
REMARK    7  A    between atoms: C_13  and  OXT_15
REMARK                            x       y       z     vdW  Elec       q    Type
REMARK                         _______ _______ _______ _____ _____    ______ ____
ROOT
ATOM      1  C   UNL     1      46.746   4.940  14.277  0.00  0.00    +0.000 C 
ENDROOT
BRANCH   1   5
ATOM      2  C   UNL     1      44.951   4.352  10.376  0.00  0.00    +0.000 A 
ATOM      3  C   UNL     1      44.959   3.310  11.312  0.00  0.00    +0.000 A 
ATOM      4  C   UNL     1      45.530   3.492  12.574  0.00  0.00    +0.000 A 
ATOM      5  C   UNL     1      46.109   4.721  12.924  0.00  0.00    +0.000 A 
ATOM      6  C   UNL     1      46.070   5.770  11.996  0.00  0.00    +0.000 A 
ATOM      7  C   UNL     1      45.496   5.589  10.737  0.00  0.00    +0.000 A 
BRANCH   2   8
ATOM      8  C   UNL     1      44.411   4.134   8.987  0.00  0.00    +0.000 C 
BRANCH   8   9
ATOM      9  N   UNL     1      45.401   4.499   7.981  0.00  0.00    +0.000 NA
ATOM     10  H   UNL     1      45.068   5.311   7.467  0.00  0.00    +0.000 HD
ATOM     11  H   UNL     1      45.478   3.735   7.310  0.00  0.00    +0.000 HD
ENDBRANCH   8   9
ENDBRANCH   2   8
ENDBRANCH   1   5
BRANCH   1  12
ATOM     12  O   UNL     1      47.173   3.687  14.812  0.00  0.00    +0.000 OA
BRANCH  12  13
ATOM     13  C   UNL     1      47.673   3.680  16.084  0.00  0.00    +0.000 A 
ATOM     14  C   UNL     1      48.475   2.707  16.665  0.00  0.00    +0.000 A 
ATOM     15  C   UNL     1      48.948   2.891  17.980  0.00  0.00    +0.000 A 
ATOM     16  CA  UNL     1      48.594   4.057  18.677  0.00  0.00    +0.000 A 
ATOM     17  N   UNL     1      47.798   5.018  18.134  0.00  0.00    +0.000 NA
ATOM     18  C   UNL     1      47.365   4.795  16.862  0.00  0.00    +0.000 A 
BRANCH  16  19
ATOM     19  C   UNL     1      49.079   4.345  20.083  0.00  0.00    +0.000 C 
ATOM     20  O   UNL     1      50.109   4.932  20.308  0.00  0.00    +0.000 OA
BRANCH  19  21
ATOM     21  OXT UNL     1      48.268   3.895  21.075  0.00  0.00    +0.000 OA
ATOM     22  HXT UNL     1      47.325   4.131  20.989  0.00  0.00    +0.000 HD
ENDBRANCH  19  21
ENDBRANCH  16  19
ENDBRANCH  12  13
ENDBRANCH   1  12
TORSDOF 7
ENDMDL
MODEL 9
REMARK VINA RESULT:    -5.502      3.302      8.144
REMARK INTER + INTRA:          -7.910
REMARK INTER:                  -7.529
REMARK INTRA:                  -0.381
REMARK UNBOUND:                -0.478
REMARK  Name = 
REMARK  7 active torsions:
REMARK  status: ('A' for Active; 'I' for Inactive)
REMARK    1  A    between atoms: N_1  and  C_2
REMARK    2  A    between atoms: C_2  and  C_3
REMARK    3  A    between atoms: C_6  and  C_7
REMARK    4  A    between atoms: C_7  and  O_8
REMARK    5  A    between atoms: O_8  and  C_9
REMARK    6  A    between atoms: CA_12  and  C_13
REMARK    7  A    between atoms: C_13  and  OXT_15
REMARK                            x       y       z     vdW  Elec       q    Type
REMARK                         _______ _______ _______ _____ _____    ______ ____
ROOT
ATOM      1  C   UNL     1      48.372   6.720  14.770  0.00  0.00    +0.000 C 
ENDROOT
BRANCH   1   5
ATOM      2  C   UNL     1      48.986   5.309  18.822  0.00  0.00    +0.000 A 
ATOM      3  C   UNL     1      49.464   6.567  18.435  0.00  0.00    +0.000 A 
ATOM      4  C   UNL     1      49.265   7.033  17.132  0.00  0.00    +0.000 A 
ATOM      5  C   UNL     1      48.588   6.246  16.189  0.00  0.00    +0.000 A 
ATOM      6  C   UNL     1      48.084   5.001  16.590  0.00  0.00    +0.000 A 
ATOM      7  C   UNL     1      48.279   4.538  17.891  0.00  0.00    +0.000 A 
BRANCH   2   8
ATOM      8  C   UNL     1      49.270   4.768  20.199  0.00  0.00    +0.000 C 
BRANCH   8   9
ATOM      9  N   UNL     1      48.381   3.658  20.516  0.00  0.00    +0.000 NA
ATOM     10  H   UNL     1      48.270   3.600  21.525  0.00  0.00    +0.000 HD
ATOM     11  H   UNL     1      48.825   2.790  20.216  0.00  0.00    +0.000 HD
ENDBRANCH   8   9
ENDBRANCH   2   8
ENDBRANCH   1   5
BRANCH   1  12
ATOM     12  O   UNL     1      48.308   5.593  13.895  0.00  0.00    +0.000 OA
BRANCH  12  13
ATOM     13  C   UNL     1      47.200   5.468  13.104  0.00  0.00    +0.000 A 
ATOM     14  C   UNL     1      46.809   6.307  12.069  0.00  0.00    +0.000 A 
ATOM     15  C   UNL     1      45.658   5.994  11.317  0.00  0.00    +0.000 A 
ATOM     16  CA  UNL     1      44.931   4.836  11.634  0.00  0.00    +0.000 A 
ATOM     17  N   UNL     1      45.286   4.006  12.651  0.00  0.00    +0.000 NA
ATOM     18  C   UNL     1      46.404   4.351  13.350  0.00  0.00    +0.000 A 
BRANCH  16  19
ATOM     19  C   UNL     1      43.698   4.413  10.861  0.00  0.00    +0.000 C 
ATOM     20  O   UNL     1      42.979   3.515  11.224  0.00  0.00    +0.000 OA
BRANCH  19  21
ATOM     21  OXT UNL     1      43.459   5.121   9.726  0.00  0.00    +0.000 OA
ATOM     22  HXT UNL     1      43.205   6.055   9.857  0.00  0.00    +0.000 HD
ENDBRANCH  19  21
ENDBRANCH  16  19
ENDBRANCH  12  13
ENDBRANCH   1  12
TORSDOF 7
ENDMDL
