MODEL 1
REMARK VINA RESULT:    -8.636      0.000      0.000
REMARK INTER + INTRA:         -13.058
REMARK INTER:                 -12.675
REMARK INTRA:                  -0.383
REMARK UNBOUND:                -0.383
REMARK  Name = 
REMARK  10 active torsions:
REMARK  status: ('A' for Active; 'I' for Inactive)
REMARK    1  A    between atoms: C_1  and  C_2
REMARK    2  A    between atoms: C_2  and  O_3
REMARK    3  A    between atoms: C_2  and  C_20
REMARK    4  A    between atoms: O_3  and  C_4
REMARK    5  A    between atoms: C_4  and  C_5
REMARK    6  A    between atoms: C_8  and  C_9
REMARK    7  A    between atoms: C_9  and  N_10
REMARK    8  A    between atoms: N_10  and  C_11
REMARK    9  A    between atoms: C_11  and  C_12
REMARK   10  A    between atoms: C_11  and  C_13
REMARK                            x       y       z     vdW  Elec       q    Type
REMARK                         _______ _______ _______ _____ _____    ______ ____
ROOT
ATOM      1  C   UNL     1      47.114   5.559  13.627  0.00  0.00    +0.000 A 
ATOM      2  C   UNL     1      46.198   4.498  13.651  0.00  0.00    +0.000 A 
ATOM      3  C   UNL     1      45.293   4.318  12.604  0.00  0.00    +0.000 A 
ATOM      4  C   UNL     1      45.291   5.198  11.514  0.00  0.00    +0.000 A 
ATOM      5  C   UNL     1      46.205   6.258  11.491  0.00  0.00    +0.000 A 
ATOM      6  C   UNL     1      47.110   6.437  12.537  0.00  0.00    +0.000 A 
ENDROOT
BRANCH   1   7
ATOM      7  C   UNL     1      48.017   5.813  14.804  0.00  0.00    +0.000 C 
BRANCH   7   8
ATOM      8  O   UNL     1      48.271   4.597  15.500  0.00  0.00    +0.000 OA
BRANCH   8  10
ATOM      9  C   UNL     1      47.101   3.572  17.380  0.00  0.00    +0.000 C 
ATOM     10  C   UNL     1      48.064   4.675  16.921  0.00  0.00    +0.000 C 
BRANCH  10  11
ATOM     11  C   UNL     1      49.397   4.512  17.630  0.00  0.00    +0.000 A 
ATOM     12  C   UNL     1      49.944   5.482  18.458  0.00  0.00    +0.000 A 
ATOM     13  S   UNL     1      51.497   5.083  19.039  0.00  0.00    +0.000 S 
ATOM     14  C   UNL     1      51.479   3.585  18.230  0.00  0.00    +0.000 A 
ATOM     15  N   UNL     1      52.544   2.740  18.299  0.00  0.00    +0.000 NA
ATOM     16  C   UNL     1      52.383   1.634  17.648  0.00  0.00    +0.000 A 
ATOM     17  N   UNL     1      51.257   1.293  16.942  0.00  0.00    +0.000 N 
ATOM     18  C   UNL     1      50.156   2.121  16.842  0.00  0.00    +0.000 A 
ATOM     19  O   UNL     1      49.157   1.787  16.209  0.00  0.00    +0.000 OA
ATOM     20  C   UNL     1      50.296   3.385  17.541  0.00  0.00    +0.000 A 
ATOM     21  H   UNL     1      51.192   0.403  16.473  0.00  0.00    +0.000 HD
ENDBRANCH  10  11
ENDBRANCH   8  10
ENDBRANCH   7   8
ENDBRANCH   1   7
BRANCH   4  22
ATOM     22  C   UNL     1      44.357   4.976  10.353  0.00  0.00    +0.000 C 
BRANCH  22  23
ATOM     23  N   UNL     1      45.079   4.786   9.092  0.00  0.00    +0.000 NA
ATOM     24  H   UNL     1      46.081   4.818   9.311  0.00  0.00    +0.000 HD
BRANCH  23  25
ATOM     25  C   UNL     1      44.841   3.460   8.482  0.00  0.00    +0.000 C 
ATOM     26  C   UNL     1      44.365   2.439   9.519  0.00  0.00    +0.000 C 
BRANCH  25  27
ATOM     27  C   UNL     1      46.055   3.026   7.685  0.00  0.00    +0.000 A 
ATOM     28  C   UNL     1      46.686   1.756   7.644  0.00  0.00    +0.000 A 
ATOM     29  C   UNL     1      47.801   1.933   6.863  0.00  0.00    +0.000 A 
ATOM     30  N   UNL     1      47.782   3.237   6.471  0.00  0.00    +0.000 N 
ATOM     31  N   UNL     1      46.734   3.926   6.951  0.00  0.00    +0.000 NA
ATOM     32  H   UNL     1      48.455   3.729   5.892  0.00  0.00    +0.000 HD
ENDBRANCH  25  27
ENDBRANCH  23  25
ENDBRANCH  22  23
ENDBRANCH   4  22
TORSDOF 8
ENDMDL
MODEL 2
REMARK VINA RESULT:    -8.201      2.212      2.946
REMARK INTER + INTRA:         -12.420
REMARK INTER:                 -11.077
REMARK INTRA:                  -1.343
REMARK UNBOUND:                -0.383
REMARK  Name = 
REMARK  10 active torsions:
REMARK  status: ('A' for Active; 'I' for Inactive)
REMARK    1  A    between atoms: C_1  and  C_2
REMARK    2  A    between atoms: C_2  and  O_3
REMARK    3  A    between atoms: C_2  and  C_20
REMARK    4  A    between atoms: O_3  and  C_4
REMARK    5  A    between atoms: C_4  and  C_5
REMARK    6  A    between atoms: C_8  and  C_9
REMARK    7  A    between atoms: C_9  and  N_10
REMARK    8  A    between atoms: N_10  and  C_11
REMARK    9  A    between atoms: C_11  and  C_12
REMARK   10  A    between atoms: C_11  and  C_13
REMARK                            x       y       z     vdW  Elec       q    Type
REMARK                         _______ _______ _______ _____ _____    ______ ____
ROOT
ATOM      1  C   UNL     1      46.870   7.952  12.619  0.00  0.00    +0.000 A 
ATOM      2  C   UNL     1      47.383   7.064  11.662  0.00  0.00    +0.000 A 
ATOM      3  C   UNL     1      46.543   6.159  11.013  0.00  0.00    +0.000 A 
ATOM      4  C   UNL     1      45.174   6.129  11.309  0.00  0.00    +0.000 A 
ATOM      5  C   UNL     1      44.662   7.016  12.264  0.00  0.00    +0.000 A 
ATOM      6  C   UNL     1      45.502   7.921  12.913  0.00  0.00    +0.000 A 
ENDROOT
BRANCH   1   7
ATOM      7  C   UNL     1      47.793   8.855  13.393  0.00  0.00    +0.000 C 
BRANCH   7   8
ATOM      8  O   UNL     1      48.012   8.330  14.699  0.00  0.00    +0.000 OA
BRANCH   8  10
ATOM      9  C   UNL     1      50.424   7.973  14.603  0.00  0.00    +0.000 C 
ATOM     10  C   UNL     1      49.041   7.328  14.768  0.00  0.00    +0.000 C 
BRANCH  10  11
ATOM     11  C   UNL     1      48.965   6.626  16.113  0.00  0.00    +0.000 A 
ATOM     12  C   UNL     1      49.571   7.113  17.262  0.00  0.00    +0.000 A 
ATOM     13  S   UNL     1      49.415   6.073  18.606  0.00  0.00    +0.000 S 
ATOM     14  C   UNL     1      48.505   4.951  17.706  0.00  0.00    +0.000 A 
ATOM     15  N   UNL     1      48.062   3.796  18.272  0.00  0.00    +0.000 NA
ATOM     16  C   UNL     1      47.372   3.047  17.474  0.00  0.00    +0.000 A 
ATOM     17  N   UNL     1      47.078   3.350  16.169  0.00  0.00    +0.000 N 
ATOM     18  C   UNL     1      47.511   4.509  15.553  0.00  0.00    +0.000 A 
ATOM     19  O   UNL     1      47.227   4.759  14.383  0.00  0.00    +0.000 OA
ATOM     20  C   UNL     1      48.308   5.374  16.403  0.00  0.00    +0.000 A 
ATOM     21  H   UNL     1      46.516   2.728  15.608  0.00  0.00    +0.000 HD
ENDBRANCH  10  11
ENDBRANCH   8  10
ENDBRANCH   7   8
ENDBRANCH   1   7
BRANCH   4  22
ATOM     22  C   UNL     1      44.252   5.195  10.570  0.00  0.00    +0.000 C 
BRANCH  22  23
ATOM     23  N   UNL     1      44.707   4.938   9.201  0.00  0.00    +0.000 NA
ATOM     24  H   UNL     1      45.700   5.193   9.161  0.00  0.00    +0.000 HD
BRANCH  23  25
ATOM     25  C   UNL     1      44.641   3.508   8.828  0.00  0.00    +0.000 C 
ATOM     26  C   UNL     1      44.425   2.614  10.052  0.00  0.00    +0.000 C 
BRANCH  25  27
ATOM     27  C   UNL     1      45.842   3.134   7.981  0.00  0.00    +0.000 A 
ATOM     28  C   UNL     1      46.452   1.864   7.814  0.00  0.00    +0.000 A 
ATOM     29  C   UNL     1      47.563   2.098   7.042  0.00  0.00    +0.000 A 
ATOM     30  N   UNL     1      47.561   3.432   6.775  0.00  0.00    +0.000 N 
ATOM     31  N   UNL     1      46.529   4.089   7.328  0.00  0.00    +0.000 NA
ATOM     32  H   UNL     1      48.237   3.967   6.239  0.00  0.00    +0.000 HD
ENDBRANCH  25  27
ENDBRANCH  23  25
ENDBRANCH  22  23
ENDBRANCH   4  22
TORSDOF 8
ENDMDL
MODEL 3
REMARK VINA RESULT:    -7.573      1.750      2.434
REMARK INTER + INTRA:         -11.497
REMARK INTER:                 -11.471
REMARK INTRA:                  -0.026
REMARK UNBOUND:                -0.383
REMARK  Name = 
REMARK  10 active torsions:
REMARK  status: ('A' for Active; 'I' for Inactive)
REMARK    1  A    between atoms: C_1  and  C_2
REMARK    2  A    between atoms: C_2  and  O_3
REMARK    3  A    between atoms: C_2  and  C_20
REMARK    4  A    between atoms: O_3  and  C_4
REMARK    5  A    between atoms: C_4  and  C_5
REMARK    6  A    between atoms: C_8  and  C_9
REMARK    7  A    between atoms: C_9  and  N_10
REMARK    8  A    between atoms: N_10  and  C_11
REMARK    9  A    between atoms: C_11  and  C_12
REMARK   10  A    between atoms: C_11  and  C_13
REMARK                            x       y       z     vdW  Elec       q    Type
REMARK                         _______ _______ _______ _____ _____    ______ ____
ROOT
ATOM      1  C   UNL     1      47.899   6.243  14.373  0.00  0.00    +0.000 A 
ATOM      2  C   UNL     1      47.981   7.284  13.437  0.00  0.00    +0.000 A 
ATOM      3  C   UNL     1      47.264   7.221  12.242  0.00  0.00    +0.000 A 
ATOM      4  C   UNL     1      46.451   6.115  11.964  0.00  0.00    +0.000 A 
ATOM      5  C   UNL     1      46.369   5.076  12.899  0.00  0.00    +0.000 A 
ATOM      6  C   UNL     1      47.085   5.139  14.094  0.00  0.00    +0.000 A 
ENDROOT
BRANCH   1   7
ATOM      7  C   UNL     1      48.753   6.264  15.613  0.00  0.00    +0.000 C 
BRANCH   7   8
ATOM      8  O   UNL     1      48.982   4.936  16.073  0.00  0.00    +0.000 OA
BRANCH   8  10
ATOM      9  C   UNL     1      47.709   3.711  17.757  0.00  0.00    +0.000 C 
ATOM     10  C   UNL     1      48.795   4.762  17.489  0.00  0.00    +0.000 C 
BRANCH  10  11
ATOM     11  C   UNL     1      50.105   4.311  18.114  0.00  0.00    +0.000 A 
ATOM     12  C   UNL     1      50.798   5.058  19.054  0.00  0.00    +0.000 A 
ATOM     13  S   UNL     1      52.289   4.364  19.509  0.00  0.00    +0.000 S 
ATOM     14  C   UNL     1      52.043   3.024  18.489  0.00  0.00    +0.000 A 
ATOM     15  N   UNL     1      52.977   2.039  18.391  0.00  0.00    +0.000 NA
ATOM     16  C   UNL     1      52.649   1.078  17.591  0.00  0.00    +0.000 A 
ATOM     17  N   UNL     1      51.474   1.007  16.886  0.00  0.00    +0.000 N 
ATOM     18  C   UNL     1      50.501   1.985  16.953  0.00  0.00    +0.000 A 
ATOM     19  O   UNL     1      49.452   1.893  16.316  0.00  0.00    +0.000 OA
ATOM     20  C   UNL     1      50.831   3.097  17.824  0.00  0.00    +0.000 A 
ATOM     21  H   UNL     1      51.274   0.216  16.293  0.00  0.00    +0.000 HD
ENDBRANCH  10  11
ENDBRANCH   8  10
ENDBRANCH   7   8
ENDBRANCH   1   7
BRANCH   4  22
ATOM     22  C   UNL     1      45.628   6.068  10.703  0.00  0.00    +0.000 C 
BRANCH  22  23
ATOM     23  N   UNL     1      44.245   6.497  10.929  0.00  0.00    +0.000 NA
ATOM     24  H   UNL     1      43.982   7.092  10.136  0.00  0.00    +0.000 HD
BRANCH  23  25
ATOM     25  C   UNL     1      43.283   5.374  10.928  0.00  0.00    +0.000 C 
ATOM     26  C   UNL     1      42.733   5.100  12.331  0.00  0.00    +0.000 C 
BRANCH  25  27
ATOM     27  C   UNL     1      43.890   4.165  10.245  0.00  0.00    +0.000 A 
ATOM     28  C   UNL     1      44.367   4.040   8.914  0.00  0.00    +0.000 A 
ATOM     29  C   UNL     1      44.702   2.717   8.775  0.00  0.00    +0.000 A 
ATOM     30  N   UNL     1      44.443   2.134   9.977  0.00  0.00    +0.000 N 
ATOM     31  N   UNL     1      43.952   2.987  10.891  0.00  0.00    +0.000 NA
ATOM     32  H   UNL     1      44.561   1.162  10.244  0.00  0.00    +0.000 HD
ENDBRANCH  25  27
ENDBRANCH  23  25
ENDBRANCH  22  23
ENDBRANCH   4  22
TORSDOF 8
ENDMDL
MODEL 4
REMARK VINA RESULT:    -7.482      1.756      2.396
REMARK INTER + INTRA:         -11.364
REMARK INTER:                 -10.194
REMARK INTRA:                  -1.170
REMARK UNBOUND:                -0.383
REMARK  Name = 
REMARK  10 active torsions:
REMARK  status: ('A' for Active; 'I' for Inactive)
REMARK    1  A    between atoms: C_1  and  C_2
REMARK    2  A    between atoms: C_2  and  O_3
REMARK    3  A    between atoms: C_2  and  C_20
REMARK    4  A    between atoms: O_3  and  C_4
REMARK    5  A    between atoms: C_4  and  C_5
REMARK    6  A    between atoms: C_8  and  C_9
REMARK    7  A    between atoms: C_9  and  N_10
REMARK    8  A    between atoms: N_10  and  C_11
REMARK    9  A    between atoms: C_11  and  C_12
REMARK   10  A    between atoms: C_11  and  C_13
REMARK                            x       y       z     vdW  Elec       q    Type
REMARK                         _______ _______ _______ _____ _____    ______ ____
ROOT
ATOM      1  C   UNL     1      47.892   6.918  14.157  0.00  0.00    +0.000 A 
ATOM      2  C   UNL     1      47.376   7.961  13.373  0.00  0.00    +0.000 A 
ATOM      3  C   UNL     1      46.468   7.694  12.348  0.00  0.00    +0.000 A 
ATOM      4  C   UNL     1      46.059   6.379  12.092  0.00  0.00    +0.000 A 
ATOM      5  C   UNL     1      46.574   5.339  12.874  0.00  0.00    +0.000 A 
ATOM      6  C   UNL     1      47.482   5.605  13.899  0.00  0.00    +0.000 A 
ENDROOT
BRANCH   1   7
ATOM      7  C   UNL     1      48.950   7.194  15.191  0.00  0.00    +0.000 C 
BRANCH   7   8
ATOM      8  O   UNL     1      48.345   7.535  16.434  0.00  0.00    +0.000 OA
BRANCH   8  10
ATOM      9  C   UNL     1      48.300   7.411  18.872  0.00  0.00    +0.000 C 
ATOM     10  C   UNL     1      48.940   6.893  17.576  0.00  0.00    +0.000 C 
BRANCH  10  11
ATOM     11  C   UNL     1      48.729   5.392  17.472  0.00  0.00    +0.000 A 
ATOM     12  C   UNL     1      47.477   4.799  17.431  0.00  0.00    +0.000 A 
ATOM     13  S   UNL     1      47.531   3.094  17.419  0.00  0.00    +0.000 S 
ATOM     14  C   UNL     1      49.234   3.090  17.435  0.00  0.00    +0.000 A 
ATOM     15  N   UNL     1      49.930   1.921  17.452  0.00  0.00    +0.000 NA
ATOM     16  C   UNL     1      51.215   2.071  17.448  0.00  0.00    +0.000 A 
ATOM     17  N   UNL     1      51.865   3.279  17.421  0.00  0.00    +0.000 N 
ATOM     18  C   UNL     1      51.198   4.489  17.407  0.00  0.00    +0.000 A 
ATOM     19  O   UNL     1      51.807   5.557  17.376  0.00  0.00    +0.000 OA
ATOM     20  C   UNL     1      49.752   4.373  17.431  0.00  0.00    +0.000 A 
ATOM     21  H   UNL     1      52.872   3.322  17.399  0.00  0.00    +0.000 HD
ENDBRANCH  10  11
ENDBRANCH   8  10
ENDBRANCH   7   8
ENDBRANCH   1   7
BRANCH   4  22
ATOM     22  C   UNL     1      45.033   6.091  11.026  0.00  0.00    +0.000 C 
BRANCH  22  23
ATOM     23  N   UNL     1      45.641   5.563   9.803  0.00  0.00    +0.000 NA
ATOM     24  H   UNL     1      46.576   5.222  10.054  0.00  0.00    +0.000 HD
BRANCH  23  25
ATOM     25  C   UNL     1      44.919   4.394   9.255  0.00  0.00    +0.000 C 
ATOM     26  C   UNL     1      44.377   3.493  10.368  0.00  0.00    +0.000 C 
BRANCH  25  27
ATOM     27  C   UNL     1      45.781   3.679   8.233  0.00  0.00    +0.000 A 
ATOM     28  C   UNL     1      46.050   2.292   8.110  0.00  0.00    +0.000 A 
ATOM     29  C   UNL     1      46.974   2.193   7.100  0.00  0.00    +0.000 A 
ATOM     30  N   UNL     1      47.195   3.464   6.666  0.00  0.00    +0.000 N 
ATOM     31  N   UNL     1      46.484   4.389   7.332  0.00  0.00    +0.000 NA
ATOM     32  H   UNL     1      47.825   3.779   5.936  0.00  0.00    +0.000 HD
ENDBRANCH  25  27
ENDBRANCH  23  25
ENDBRANCH  22  23
ENDBRANCH   4  22
TORSDOF 8
ENDMDL
MODEL 5
REMARK VINA RESULT:    -7.458      2.403      3.076
REMARK INTER + INTRA:         -11.329
REMARK INTER:                 -10.432
REMARK INTRA:                  -0.897
REMARK UNBOUND:                -0.383
REMARK  Name = 
REMARK  10 active torsions:
REMARK  status: ('A' for Active; 'I' for Inactive)
REMARK    1  A    between atoms: C_1  and  C_2
REMARK    2  A    between atoms: C_2  and  O_3
REMARK    3  A    between atoms: C_2  and  C_20
REMARK    4  A    between atoms: O_3  and  C_4
REMARK    5  A    between atoms: C_4  and  C_5
REMARK    6  A    between atoms: C_8  and  C_9
REMARK    7  A    between atoms: C_9  and  N_10
REMARK    8  A    between atoms: N_10  and  C_11
REMARK    9  A    between atoms: C_11  and  C_12
REMARK   10  A    between atoms: C_11  and  C_13
REMARK                            x       y       z     vdW  Elec       q    Type
REMARK                         _______ _______ _______ _____ _____    ______ ____
ROOT
ATOM      1  C   UNL     1      46.843   6.392  13.223  0.00  0.00    +0.000 A 
ATOM      2  C   UNL     1      46.419   7.138  12.114  0.00  0.00    +0.000 A 
ATOM      3  C   UNL     1      45.505   6.601  11.206  0.00  0.00    +0.000 A 
ATOM      4  C   UNL     1      44.999   5.308  11.395  0.00  0.00    +0.000 A 
ATOM      5  C   UNL     1      45.423   4.564  12.502  0.00  0.00    +0.000 A 
ATOM      6  C   UNL     1      46.336   5.101  13.410  0.00  0.00    +0.000 A 
ENDROOT
BRANCH   1   7
ATOM      7  C   UNL     1      47.906   6.931  14.142  0.00  0.00    +0.000 C 
BRANCH   7   8
ATOM      8  O   UNL     1      48.576   5.860  14.800  0.00  0.00    +0.000 OA
BRANCH   8  10
ATOM      9  C   UNL     1      47.990   4.284  16.569  0.00  0.00    +0.000 C 
ATOM     10  C   UNL     1      48.275   5.747  16.202  0.00  0.00    +0.000 C 
BRANCH  10  11
ATOM     11  C   UNL     1      49.458   6.252  17.010  0.00  0.00    +0.000 A 
ATOM     12  C   UNL     1      50.751   6.313  16.511  0.00  0.00    +0.000 A 
ATOM     13  S   UNL     1      51.901   6.820  17.664  0.00  0.00    +0.000 S 
ATOM     14  C   UNL     1      50.705   7.006  18.862  0.00  0.00    +0.000 A 
ATOM     15  N   UNL     1      51.033   7.407  20.120  0.00  0.00    +0.000 NA
ATOM     16  C   UNL     1      50.021   7.520  20.918  0.00  0.00    +0.000 A 
ATOM     17  N   UNL     1      48.716   7.276  20.573  0.00  0.00    +0.000 N 
ATOM     18  C   UNL     1      48.340   6.864  19.310  0.00  0.00    +0.000 A 
ATOM     19  O   UNL     1      47.161   6.659  19.025  0.00  0.00    +0.000 OA
ATOM     20  C   UNL     1      49.444   6.703  18.381  0.00  0.00    +0.000 A 
ATOM     21  H   UNL     1      47.973   7.403  21.243  0.00  0.00    +0.000 HD
ENDBRANCH  10  11
ENDBRANCH   8  10
ENDBRANCH   7   8
ENDBRANCH   1   7
BRANCH   4  22
ATOM     22  C   UNL     1      43.967   4.745  10.452  0.00  0.00    +0.000 C 
BRANCH  22  23
ATOM     23  N   UNL     1      44.473   4.636   9.081  0.00  0.00    +0.000 NA
ATOM     24  H   UNL     1      45.432   5.003   9.084  0.00  0.00    +0.000 HD
BRANCH  23  25
ATOM     25  C   UNL     1      44.577   3.237   8.612  0.00  0.00    +0.000 C 
ATOM     26  C   UNL     1      44.374   2.241   9.756  0.00  0.00    +0.000 C 
BRANCH  25  27
ATOM     27  C   UNL     1      45.862   3.043   7.831  0.00  0.00    +0.000 A 
ATOM     28  C   UNL     1      46.587   1.847   7.595  0.00  0.00    +0.000 A 
ATOM     29  C   UNL     1      47.727   2.241   6.938  0.00  0.00    +0.000 A 
ATOM     30  N   UNL     1      47.631   3.591   6.797  0.00  0.00    +0.000 N 
ATOM     31  N   UNL     1      46.510   4.108   7.326  0.00  0.00    +0.000 NA
ATOM     32  H   UNL     1      48.295   4.227   6.368  0.00  0.00    +0.000 HD
ENDBRANCH  25  27
ENDBRANCH  23  25
ENDBRANCH  22  23
ENDBRANCH   4  22
TORSDOF 8
ENDMDL
MODEL 6
REMARK VINA RESULT:    -7.333      3.825      8.609
REMARK INTER + INTRA:         -11.146
REMARK INTER:                  -9.612
REMARK INTRA:                  -1.534
REMARK UNBOUND:                -0.383
REMARK  Name = 
REMARK  10 active torsions:
REMARK  status: ('A' for Active; 'I' for Inactive)
REMARK    1  A    between atoms: C_1  and  C_2
REMARK    2  A    between atoms: C_2  and  O_3
REMARK    3  A    between atoms: C_2  and  C_20
REMARK    4  A    between atoms: O_3  and  C_4
REMARK    5  A    between atoms: C_4  and  C_5
REMARK    6  A    between atoms: C_8  and  C_9
REMARK    7  A    between atoms: C_9  and  N_10
REMARK    8  A    between atoms: N_10  and  C_11
REMARK    9  A    between atoms: C_11  and  C_12
REMARK   10  A    between atoms: C_11  and  C_13
REMARK                            x       y       z     vdW  Elec       q    Type
REMARK                         _______ _______ _______ _____ _____    ______ ____
ROOT
ATOM      1  C   UNL     1      48.347   8.067  13.678  0.00  0.00    +0.000 A 
ATOM      2  C   UNL     1      48.993   6.903  14.118  0.00  0.00    +0.000 A 
ATOM      3  C   UNL     1      49.210   6.684  15.479  0.00  0.00    +0.000 A 
ATOM      4  C   UNL     1      48.782   7.626  16.423  0.00  0.00    +0.000 A 
ATOM      5  C   UNL     1      48.137   8.788  15.983  0.00  0.00    +0.000 A 
ATOM      6  C   UNL     1      47.920   9.007  14.623  0.00  0.00    +0.000 A 
ENDROOT
BRANCH   1   7
ATOM      7  C   UNL     1      48.208   8.351  12.206  0.00  0.00    +0.000 C 
BRANCH   7   8
ATOM      8  O   UNL     1      47.635   7.229  11.542  0.00  0.00    +0.000 OA
BRANCH   8  10
ATOM      9  C   UNL     1      45.398   8.193  11.699  0.00  0.00    +0.000 C 
ATOM     10  C   UNL     1      46.274   6.952  11.917  0.00  0.00    +0.000 C 
BRANCH  10  11
ATOM     11  C   UNL     1      45.747   5.804  11.073  0.00  0.00    +0.000 A 
ATOM     12  C   UNL     1      45.969   5.696   9.709  0.00  0.00    +0.000 A 
ATOM     13  S   UNL     1      45.176   4.366   8.993  0.00  0.00    +0.000 S 
ATOM     14  C   UNL     1      44.534   3.869  10.490  0.00  0.00    +0.000 A 
ATOM     15  N   UNL     1      43.727   2.777  10.576  0.00  0.00    +0.000 NA
ATOM     16  C   UNL     1      43.326   2.511  11.776  0.00  0.00    +0.000 A 
ATOM     17  N   UNL     1      43.663   3.229  12.896  0.00  0.00    +0.000 N 
ATOM     18  C   UNL     1      44.475   4.345  12.853  0.00  0.00    +0.000 A 
ATOM     19  O   UNL     1      44.767   4.966  13.874  0.00  0.00    +0.000 OA
ATOM     20  C   UNL     1      44.935   4.697  11.523  0.00  0.00    +0.000 A 
ATOM     21  H   UNL     1      43.329   2.952  13.806  0.00  0.00    +0.000 HD
ENDBRANCH  10  11
ENDBRANCH   8  10
ENDBRANCH   7   8
ENDBRANCH   1   7
BRANCH   4  22
ATOM     22  C   UNL     1      48.960   7.368  17.896  0.00  0.00    +0.000 C 
BRANCH  22  23
ATOM     23  N   UNL     1      47.711   6.949  18.538  0.00  0.00    +0.000 NA
ATOM     24  H   UNL     1      47.018   6.819  17.793  0.00  0.00    +0.000 HD
BRANCH  23  25
ATOM     25  C   UNL     1      47.821   5.641  19.220  0.00  0.00    +0.000 C 
ATOM     26  C   UNL     1      48.988   5.617  20.211  0.00  0.00    +0.000 C 
BRANCH  25  27
ATOM     27  C   UNL     1      47.841   4.520  18.199  0.00  0.00    +0.000 A 
ATOM     28  C   UNL     1      48.917   3.673  17.829  0.00  0.00    +0.000 A 
ATOM     29  C   UNL     1      48.438   2.918  16.788  0.00  0.00    +0.000 A 
ATOM     30  N   UNL     1      47.148   3.311  16.600  0.00  0.00    +0.000 N 
ATOM     31  N   UNL     1      46.755   4.280  17.443  0.00  0.00    +0.000 NA
ATOM     32  H   UNL     1      46.483   2.977  15.911  0.00  0.00    +0.000 HD
ENDBRANCH  25  27
ENDBRANCH  23  25
ENDBRANCH  22  23
ENDBRANCH   4  22
TORSDOF 8
ENDMDL
MODEL 7
REMARK VINA RESULT:    -7.150      2.710      3.674
REMARK INTER + INTRA:         -10.877
REMARK INTER:                  -9.376
REMARK INTRA:                  -1.501
REMARK UNBOUND:                -0.383
REMARK  Name = 
REMARK  10 active torsions:
REMARK  status: ('A' for Active; 'I' for Inactive)
REMARK    1  A    between atoms: C_1  and  C_2
REMARK    2  A    between atoms: C_2  and  O_3
REMARK    3  A    between atoms: C_2  and  C_20
REMARK    4  A    between atoms: O_3  and  C_4
REMARK    5  A    between atoms: C_4  and  C_5
REMARK    6  A    between atoms: C_8  and  C_9
REMARK    7  A    between atoms: C_9  and  N_10
REMARK    8  A    between atoms: N_10  and  C_11
REMARK    9  A    between atoms: C_11  and  C_12
REMARK   10  A    between atoms: C_11  and  C_13
REMARK                            x       y       z     vdW  Elec       q    Type
REMARK                         _______ _______ _______ _____ _____    ______ ____
ROOT
ATOM      1  C   UNL     1      48.661   8.434  13.002  0.00  0.00    +0.000 A 
ATOM      2  C   UNL     1      47.460   8.845  13.599  0.00  0.00    +0.000 A 
ATOM      3  C   UNL     1      46.239   8.329  13.163  0.00  0.00    +0.000 A 
ATOM      4  C   UNL     1      46.200   7.391  12.123  0.00  0.00    +0.000 A 
ATOM      5  C   UNL     1      47.399   6.981  11.527  0.00  0.00    +0.000 A 
ATOM      6  C   UNL     1      48.619   7.497  11.963  0.00  0.00    +0.000 A 
ENDROOT
BRANCH   1   7
ATOM      7  C   UNL     1      49.966   9.068  13.401  0.00  0.00    +0.000 C 
BRANCH   7   8
ATOM      8  O   UNL     1      50.161   8.949  14.807  0.00  0.00    +0.000 OA
BRANCH   8  10
ATOM      9  C   UNL     1      52.116   7.595  15.355  0.00  0.00    +0.000 C 
ATOM     10  C   UNL     1      50.587   7.643  15.235  0.00  0.00    +0.000 C 
BRANCH  10  11
ATOM     11  C   UNL     1      49.962   7.331  16.584  0.00  0.00    +0.000 A 
ATOM     12  C   UNL     1      50.359   7.936  17.767  0.00  0.00    +0.000 A 
ATOM     13  S   UNL     1      49.563   7.324  19.146  0.00  0.00    +0.000 S 
ATOM     14  C   UNL     1      48.635   6.250  18.205  0.00  0.00    +0.000 A 
ATOM     15  N   UNL     1      47.745   5.402  18.787  0.00  0.00    +0.000 NA
ATOM     16  C   UNL     1      47.102   4.656  17.949  0.00  0.00    +0.000 A 
ATOM     17  N   UNL     1      47.261   4.685  16.586  0.00  0.00    +0.000 N 
ATOM     18  C   UNL     1      48.156   5.526  15.955  0.00  0.00    +0.000 A 
ATOM     19  O   UNL     1      48.273   5.537  14.730  0.00  0.00    +0.000 OA
ATOM     20  C   UNL     1      48.917   6.371  16.856  0.00  0.00    +0.000 A 
ATOM     21  H   UNL     1      46.710   4.087  15.989  0.00  0.00    +0.000 HD
ENDBRANCH  10  11
ENDBRANCH   8  10
ENDBRANCH   7   8
ENDBRANCH   1   7
BRANCH   4  22
ATOM     22  C   UNL     1      44.891   6.786  11.687  0.00  0.00    +0.000 C 
BRANCH  22  23
ATOM     23  N   UNL     1      45.008   6.076  10.411  0.00  0.00    +0.000 NA
ATOM     24  H   UNL     1      46.000   5.844  10.286  0.00  0.00    +0.000 HD
BRANCH  23  25
ATOM     25  C   UNL     1      44.287   4.784  10.399  0.00  0.00    +0.000 C 
ATOM     26  C   UNL     1      44.176   4.186  11.804  0.00  0.00    +0.000 C 
BRANCH  25  27
ATOM     27  C   UNL     1      44.897   3.855   9.368  0.00  0.00    +0.000 A 
ATOM     28  C   UNL     1      45.079   2.450   9.433  0.00  0.00    +0.000 A 
ATOM     29  C   UNL     1      45.777   2.124   8.297  0.00  0.00    +0.000 A 
ATOM     30  N   UNL     1      45.958   3.291   7.620  0.00  0.00    +0.000 N 
ATOM     31  N   UNL     1      45.433   4.359   8.242  0.00  0.00    +0.000 NA
ATOM     32  H   UNL     1      46.441   3.439   6.740  0.00  0.00    +0.000 HD
ENDBRANCH  25  27
ENDBRANCH  23  25
ENDBRANCH  22  23
ENDBRANCH   4  22
TORSDOF 8
ENDMDL
MODEL 8
REMARK VINA RESULT:    -7.079      2.651      3.651
REMARK INTER + INTRA:         -10.773
REMARK INTER:                 -10.303
REMARK INTRA:                  -0.470
REMARK UNBOUND:                -0.383
REMARK  Name = 
REMARK  10 active torsions:
REMARK  status: ('A' for Active; 'I' for Inactive)
REMARK    1  A    between atoms: C_1  and  C_2
REMARK    2  A    between atoms: C_2  and  O_3
REMARK    3  A    between atoms: C_2  and  C_20
REMARK    4  A    between atoms: O_3  and  C_4
REMARK    5  A    between atoms: C_4  and  C_5
REMARK    6  A    between atoms: C_8  and  C_9
REMARK    7  A    between atoms: C_9  and  N_10
REMARK    8  A    between atoms: N_10  and  C_11
REMARK    9  A    between atoms: C_11  and  C_12
REMARK   10  A    between atoms: C_11  and  C_13
REMARK                            x       y       z     vdW  Elec       q    Type
REMARK                         _______ _______ _______ _____ _____    ______ ____
ROOT
ATOM      1  C   UNL     1      47.597   6.403  13.281  0.00  0.00    +0.000 A 
ATOM      2  C   UNL     1      46.886   5.245  13.629  0.00  0.00    +0.000 A 
ATOM      3  C   UNL     1      45.842   4.787  12.826  0.00  0.00    +0.000 A 
ATOM      4  C   UNL     1      45.492   5.479  11.659  0.00  0.00    +0.000 A 
ATOM      5  C   UNL     1      46.202   6.635  11.312  0.00  0.00    +0.000 A 
ATOM      6  C   UNL     1      47.246   7.093  12.115  0.00  0.00    +0.000 A 
ENDROOT
BRANCH   1   7
ATOM      7  C   UNL     1      48.652   6.955  14.202  0.00  0.00    +0.000 C 
BRANCH   7   8
ATOM      8  O   UNL     1      48.379   6.574  15.547  0.00  0.00    +0.000 OA
BRANCH   8  10
ATOM      9  C   UNL     1      50.721   6.957  16.117  0.00  0.00    +0.000 C 
ATOM     10  C   UNL     1      49.509   6.024  16.246  0.00  0.00    +0.000 C 
BRANCH  10  11
ATOM     11  C   UNL     1      49.154   5.854  17.714  0.00  0.00    +0.000 A 
ATOM     12  C   UNL     1      49.326   4.665  18.407  0.00  0.00    +0.000 A 
ATOM     13  S   UNL     1      48.747   4.723  20.010  0.00  0.00    +0.000 S 
ATOM     14  C   UNL     1      48.276   6.350  19.844  0.00  0.00    +0.000 A 
ATOM     15  N   UNL     1      47.681   7.014  20.872  0.00  0.00    +0.000 NA
ATOM     16  C   UNL     1      47.392   8.247  20.607  0.00  0.00    +0.000 A 
ATOM     17  N   UNL     1      47.650   8.877  19.416  0.00  0.00    +0.000 N 
ATOM     18  C   UNL     1      48.248   8.240  18.346  0.00  0.00    +0.000 A 
ATOM     19  O   UNL     1      48.474   8.831  17.291  0.00  0.00    +0.000 OA
ATOM     20  C   UNL     1      48.574   6.847  18.587  0.00  0.00    +0.000 A 
ATOM     21  H   UNL     1      47.415   9.849  19.285  0.00  0.00    +0.000 HD
ENDBRANCH  10  11
ENDBRANCH   8  10
ENDBRANCH   7   8
ENDBRANCH   1   7
BRANCH   4  22
ATOM     22  C   UNL     1      44.405   4.956  10.757  0.00  0.00    +0.000 C 
BRANCH  22  23
ATOM     23  N   UNL     1      44.832   4.895   9.356  0.00  0.00    +0.000 NA
ATOM     24  H   UNL     1      45.839   5.092   9.340  0.00  0.00    +0.000 HD
BRANCH  23  25
ATOM     25  C   UNL     1      44.673   3.551   8.760  0.00  0.00    +0.000 C 
ATOM     26  C   UNL     1      44.301   2.505   9.815  0.00  0.00    +0.000 C 
BRANCH  25  27
ATOM     27  C   UNL     1      45.892   3.200   7.930  0.00  0.00    +0.000 A 
ATOM     28  C   UNL     1      46.496   1.932   7.729  0.00  0.00    +0.000 A 
ATOM     29  C   UNL     1      47.628   2.186   6.996  0.00  0.00    +0.000 A 
ATOM     30  N   UNL     1      47.644   3.530   6.782  0.00  0.00    +0.000 N 
ATOM     31  N   UNL     1      46.603   4.173   7.334  0.00  0.00    +0.000 NA
ATOM     32  H   UNL     1      48.337   4.080   6.285  0.00  0.00    +0.000 HD
ENDBRANCH  25  27
ENDBRANCH  23  25
ENDBRANCH  22  23
ENDBRANCH   4  22
TORSDOF 8
ENDMDL
MODEL 9
REMARK VINA RESULT:    -7.030      2.226      2.981
REMARK INTER + INTRA:         -10.701
REMARK INTER:                  -9.819
REMARK INTRA:                  -0.881
REMARK UNBOUND:                -0.383
REMARK  Name = 
REMARK  10 active torsions:
REMARK  status: ('A' for Active; 'I' for Inactive)
REMARK    1  A    between atoms: C_1  and  C_2
REMARK    2  A    between atoms: C_2  and  O_3
REMARK    3  A    between atoms: C_2  and  C_20
REMARK    4  A    between atoms: O_3  and  C_4
REMARK    5  A    between atoms: C_4  and  C_5
REMARK    6  A    between atoms: C_8  and  C_9
REMARK    7  A    between atoms: C_9  and  N_10
REMARK    8  A    between atoms: N_10  and  C_11
REMARK    9  A    between atoms: C_11  and  C_12
REMARK   10  A    between atoms: C_11  and  C_13
REMARK                            x       y       z     vdW  Elec       q    Type
REMARK                         _______ _______ _______ _____ _____    ______ ____
ROOT
ATOM      1  C   UNL     1      48.266   7.222  14.346  0.00  0.00    +0.000 A 
ATOM      2  C   UNL     1      47.585   5.996  14.344  0.00  0.00    +0.000 A 
ATOM      3  C   UNL     1      46.827   5.609  13.238  0.00  0.00    +0.000 A 
ATOM      4  C   UNL     1      46.740   6.441  12.115  0.00  0.00    +0.000 A 
ATOM      5  C   UNL     1      47.420   7.665  12.118  0.00  0.00    +0.000 A 
ATOM      6  C   UNL     1      48.178   8.052  13.222  0.00  0.00    +0.000 A 
ENDROOT
BRANCH   1   7
ATOM      7  C   UNL     1      48.996   7.686  15.578  0.00  0.00    +0.000 C 
BRANCH   7   8
ATOM      8  O   UNL     1      49.999   6.742  15.939  0.00  0.00    +0.000 OA
BRANCH   8  10
ATOM      9  C   UNL     1      48.635   6.824  17.961  0.00  0.00    +0.000 C 
ATOM     10  C   UNL     1      49.857   6.207  17.267  0.00  0.00    +0.000 C 
BRANCH  10  11
ATOM     11  C   UNL     1      49.686   4.700  17.183  0.00  0.00    +0.000 A 
ATOM     12  C   UNL     1      48.467   4.083  16.946  0.00  0.00    +0.000 A 
ATOM     13  S   UNL     1      48.543   2.380  17.007  0.00  0.00    +0.000 S 
ATOM     14  C   UNL     1      50.216   2.408  17.322  0.00  0.00    +0.000 A 
ATOM     15  N   UNL     1      50.912   1.253  17.505  0.00  0.00    +0.000 NA
ATOM     16  C   UNL     1      52.175   1.426  17.721  0.00  0.00    +0.000 A 
ATOM     17  N   UNL     1      52.806   2.644  17.763  0.00  0.00    +0.000 N 
ATOM     18  C   UNL     1      52.138   3.840  17.587  0.00  0.00    +0.000 A 
ATOM     19  O   UNL     1      52.730   4.918  17.623  0.00  0.00    +0.000 OA
ATOM     20  C   UNL     1      50.712   3.699  17.361  0.00  0.00    +0.000 A 
ATOM     21  H   UNL     1      53.801   2.705  17.917  0.00  0.00    +0.000 HD
ENDBRANCH  10  11
ENDBRANCH   8  10
ENDBRANCH   7   8
ENDBRANCH   1   7
BRANCH   4  22
ATOM     22  C   UNL     1      45.972   6.002  10.895  0.00  0.00    +0.000 C 
BRANCH  22  23
ATOM     23  N   UNL     1      44.602   6.520  10.889  0.00  0.00    +0.000 NA
ATOM     24  H   UNL     1      44.452   6.963   9.975  0.00  0.00    +0.000 HD
BRANCH  23  25
ATOM     25  C   UNL     1      43.580   5.457  10.995  0.00  0.00    +0.000 C 
ATOM     26  C   UNL     1      43.155   5.226  12.448  0.00  0.00    +0.000 C 
BRANCH  25  27
ATOM     27  C   UNL     1      44.046   4.209  10.271  0.00  0.00    +0.000 A 
ATOM     28  C   UNL     1      44.396   4.051   8.906  0.00  0.00    +0.000 A 
ATOM     29  C   UNL     1      44.632   2.708   8.748  0.00  0.00    +0.000 A 
ATOM     30  N   UNL     1      44.442   2.147   9.974  0.00  0.00    +0.000 N 
ATOM     31  N   UNL     1      44.088   3.032  10.920  0.00  0.00    +0.000 NA
ATOM     32  H   UNL     1      44.519   1.169  10.236  0.00  0.00    +0.000 HD
ENDBRANCH  25  27
ENDBRANCH  23  25
ENDBRANCH  22  23
ENDBRANCH   4  22
TORSDOF 8
ENDMDL
