MODEL 1
REMARK VINA RESULT:    -5.830      0.000      0.000
REMARK INTER + INTRA:          -9.152
REMARK INTER:                  -7.875
REMARK INTRA:                  -1.277
REMARK UNBOUND:                -1.277
REMARK  Name = 
REMARK  7 active torsions:
REMARK  status: ('A' for Active; 'I' for Inactive)
REMARK    1  A    between atoms: C_1  and  O_2
REMARK    2  A    between atoms: O_2  and  C_3
REMARK    3  A    between atoms: C_10  and  C_11
REMARK    4  A    between atoms: N_13  and  C_14
REMARK    5  A    between atoms: C_14  and  C_15
REMARK    6  A    between atoms: C_18  and  C_19
REMARK    7  A    between atoms: C_20  and  C_21
REMARK                            x       y       z     vdW  Elec       q    Type
REMARK                         _______ _______ _______ _____ _____    ______ ____
ROOT
ATOM      1  C   UNL     1      47.830   7.904  13.980  0.00  0.00    +0.000 C 
ATOM      2  O   UNL     1      48.567   8.769  13.503  0.00  0.00    +0.000 OA
ATOM      3  N   UNL     1      47.945   7.516  15.284  0.00  0.00    +0.000 N 
ATOM      4  H   UNL     1      47.299   6.839  15.668  0.00  0.00    +0.000 HD
ENDROOT
BRANCH   1  12
ATOM      5  C   UNL     1      46.792   4.641  13.663  0.00  0.00    +0.000 A 
ATOM      6  N   UNL     1      46.199   3.470  13.355  0.00  0.00    +0.000 NA
ATOM      7  C   UNL     1      45.218   3.486  12.447  0.00  0.00    +0.000 A 
ATOM      8  N   UNL     1      44.746   4.545  11.796  0.00  0.00    +0.000 NA
ATOM      9  C   UNL     1      45.357   5.691  12.141  0.00  0.00    +0.000 A 
ATOM     10  S   UNL     1      44.882   7.148  11.411  0.00  0.00    +0.000 S 
ATOM     11  C   UNL     1      46.030   8.028  12.303  0.00  0.00    +0.000 A 
ATOM     12  C   UNL     1      46.792   7.248  13.166  0.00  0.00    +0.000 A 
ATOM     13  C   UNL     1      46.385   5.847  13.067  0.00  0.00    +0.000 A 
BRANCH   5  15
ATOM     14  C   UNL     1      47.548   3.687  15.663  0.00  0.00    +0.000 C 
ATOM     15  O   UNL     1      47.783   4.630  14.621  0.00  0.00    +0.000 OA
ENDBRANCH   5  15
ENDBRANCH   1  12
BRANCH   3  16
ATOM     16  C   UNL     1      48.926   8.071  16.180  0.00  0.00    +0.000 C 
BRANCH  16  17
ATOM     17  C   UNL     1      49.946   7.036  16.586  0.00  0.00    +0.000 A 
ATOM     18  C   UNL     1      51.261   7.107  16.109  0.00  0.00    +0.000 A 
ATOM     19  C   UNL     1      52.215   6.157  16.502  0.00  0.00    +0.000 A 
ATOM     20  C   UNL     1      51.878   5.118  17.379  0.00  0.00    +0.000 A 
ATOM     21  C   UNL     1      50.550   5.018  17.808  0.00  0.00    +0.000 A 
ATOM     22  C   UNL     1      49.593   5.965  17.416  0.00  0.00    +0.000 A 
BRANCH  20  23
ATOM     23  C   UNL     1      52.848   4.084  17.780  0.00  0.00    +0.000 C 
ATOM     24  C   UNL     1      52.602   2.761  17.778  0.00  0.00    +0.000 C 
BRANCH  24  25
ATOM     25  C   UNL     1      53.530   1.733  18.283  0.00  0.00    +0.000 A 
ATOM     26  C   UNL     1      54.518   2.026  19.233  0.00  0.00    +0.000 A 
ATOM     27  C   UNL     1      55.320   1.014  19.770  0.00  0.00    +0.000 A 
ATOM     28  C   UNL     1      55.138  -0.306  19.371  0.00  0.00    +0.000 A 
ATOM     29  C   UNL     1      54.157  -0.616  18.431  0.00  0.00    +0.000 A 
ATOM     30  C   UNL     1      53.356   0.397  17.892  0.00  0.00    +0.000 A 
ENDBRANCH  24  25
ENDBRANCH  20  23
ENDBRANCH  16  17
ENDBRANCH   3  16
TORSDOF 6
ENDMDL
MODEL 2
REMARK VINA RESULT:    -5.761      3.784      8.731
REMARK INTER + INTRA:          -9.058
REMARK INTER:                  -7.789
REMARK INTRA:                  -1.269
REMARK UNBOUND:                -1.277
REMARK  Name = 
REMARK  7 active torsions:
REMARK  status: ('A' for Active; 'I' for Inactive)
REMARK    1  A    between atoms: C_1  and  O_2
REMARK    2  A    between atoms: O_2  and  C_3
REMARK    3  A    between atoms: C_10  and  C_11
REMARK    4  A    between atoms: N_13  and  C_14
REMARK    5  A    between atoms: C_14  and  C_15
REMARK    6  A    between atoms: C_18  and  C_19
REMARK    7  A    between atoms: C_20  and  C_21
REMARK                            x       y       z     vdW  Elec       q    Type
REMARK                         _______ _______ _______ _____ _____    ______ ____
ROOT
ATOM      1  C   UNL     1      49.138   8.356  17.711  0.00  0.00    +0.000 C 
ATOM      2  O   UNL     1      48.030   8.669  18.149  0.00  0.00    +0.000 OA
ATOM      3  N   UNL     1      49.549   8.757  16.471  0.00  0.00    +0.000 N 
ATOM      4  H   UNL     1      50.480   8.530  16.150  0.00  0.00    +0.000 HD
ENDROOT
BRANCH   1  12
ATOM      5  C   UNL     1      50.361   5.162  17.349  0.00  0.00    +0.000 A 
ATOM      6  N   UNL     1      50.985   3.971  17.445  0.00  0.00    +0.000 NA
ATOM      7  C   UNL     1      51.793   3.770  18.489  0.00  0.00    +0.000 A 
ATOM      8  N   UNL     1      52.064   4.627  19.470  0.00  0.00    +0.000 NA
ATOM      9  C   UNL     1      51.431   5.804  19.329  0.00  0.00    +0.000 A 
ATOM     10  S   UNL     1      51.660   7.022  20.489  0.00  0.00    +0.000 S 
ATOM     11  C   UNL     1      50.614   8.076  19.663  0.00  0.00    +0.000 A 
ATOM     12  C   UNL     1      50.072   7.536  18.501  0.00  0.00    +0.000 A 
ATOM     13  C   UNL     1      50.566   6.174  18.304  0.00  0.00    +0.000 A 
BRANCH   5  15
ATOM     14  C   UNL     1      48.203   4.967  16.462  0.00  0.00    +0.000 C 
ATOM     15  O   UNL     1      49.551   5.382  16.256  0.00  0.00    +0.000 OA
ENDBRANCH   5  15
ENDBRANCH   1  12
BRANCH   3  16
ATOM     16  C   UNL     1      48.726   9.551  15.595  0.00  0.00    +0.000 C 
BRANCH  16  17
ATOM     17  C   UNL     1      48.173   8.724  14.462  0.00  0.00    +0.000 A 
ATOM     18  C   UNL     1      46.894   8.979  13.951  0.00  0.00    +0.000 A 
ATOM     19  C   UNL     1      46.387   8.224  12.885  0.00  0.00    +0.000 A 
ATOM     20  C   UNL     1      47.143   7.198  12.304  0.00  0.00    +0.000 A 
ATOM     21  C   UNL     1      48.397   6.907  12.855  0.00  0.00    +0.000 A 
ATOM     22  C   UNL     1      48.907   7.660  13.922  0.00  0.00    +0.000 A 
BRANCH  20  23
ATOM     23  C   UNL     1      46.623   6.362  11.208  0.00  0.00    +0.000 C 
ATOM     24  C   UNL     1      45.697   5.397  11.354  0.00  0.00    +0.000 C 
BRANCH  24  25
ATOM     25  C   UNL     1      45.257   4.486  10.281  0.00  0.00    +0.000 A 
ATOM     26  C   UNL     1      45.574   4.715   8.935  0.00  0.00    +0.000 A 
ATOM     27  C   UNL     1      45.231   3.785   7.950  0.00  0.00    +0.000 A 
ATOM     28  C   UNL     1      44.575   2.609   8.298  0.00  0.00    +0.000 A 
ATOM     29  C   UNL     1      44.257   2.362   9.632  0.00  0.00    +0.000 A 
ATOM     30  C   UNL     1      44.598   3.295  10.618  0.00  0.00    +0.000 A 
ENDBRANCH  24  25
ENDBRANCH  20  23
ENDBRANCH  16  17
ENDBRANCH   3  16
TORSDOF 6
ENDMDL
MODEL 3
REMARK VINA RESULT:    -5.683      3.948      8.956
REMARK INTER + INTRA:          -8.953
REMARK INTER:                  -7.908
REMARK INTRA:                  -1.045
REMARK UNBOUND:                -1.277
REMARK  Name = 
REMARK  7 active torsions:
REMARK  status: ('A' for Active; 'I' for Inactive)
REMARK    1  A    between atoms: C_1  and  O_2
REMARK    2  A    between atoms: O_2  and  C_3
REMARK    3  A    between atoms: C_10  and  C_11
REMARK    4  A    between atoms: N_13  and  C_14
REMARK    5  A    between atoms: C_14  and  C_15
REMARK    6  A    between atoms: C_18  and  C_19
REMARK    7  A    between atoms: C_20  and  C_21
REMARK                            x       y       z     vdW  Elec       q    Type
REMARK                         _______ _______ _______ _____ _____    ______ ____
ROOT
ATOM      1  C   UNL     1      52.445   5.806  18.017  0.00  0.00    +0.000 C 
ATOM      2  O   UNL     1      51.798   6.424  18.865  0.00  0.00    +0.000 OA
ATOM      3  N   UNL     1      52.622   6.305  16.758  0.00  0.00    +0.000 N 
ATOM      4  H   UNL     1      53.196   5.805  16.093  0.00  0.00    +0.000 HD
ENDROOT
BRANCH   1  12
ATOM      5  C   UNL     1      51.454   2.556  17.486  0.00  0.00    +0.000 A 
ATOM      6  N   UNL     1      51.315   1.218  17.400  0.00  0.00    +0.000 NA
ATOM      7  C   UNL     1      52.286   0.453  17.906  0.00  0.00    +0.000 A 
ATOM      8  N   UNL     1      53.404   0.866  18.499  0.00  0.00    +0.000 NA
ATOM      9  C   UNL     1      53.507   2.204  18.554  0.00  0.00    +0.000 A 
ATOM     10  S   UNL     1      54.872   2.910  19.275  0.00  0.00    +0.000 S 
ATOM     11  C   UNL     1      54.286   4.475  18.970  0.00  0.00    +0.000 A 
ATOM     12  C   UNL     1      53.056   4.501  18.320  0.00  0.00    +0.000 A 
ATOM     13  C   UNL     1      52.594   3.136  18.071  0.00  0.00    +0.000 A 
BRANCH   5  15
ATOM     14  C   UNL     1      49.164   3.034  17.422  0.00  0.00    +0.000 C 
ATOM     15  O   UNL     1      50.467   3.345  16.938  0.00  0.00    +0.000 OA
ENDBRANCH   5  15
ENDBRANCH   1  12
BRANCH   3  16
ATOM     16  C   UNL     1      52.065   7.563  16.332  0.00  0.00    +0.000 C 
BRANCH  16  17
ATOM     17  C   UNL     1      50.798   7.364  15.539  0.00  0.00    +0.000 A 
ATOM     18  C   UNL     1      49.717   6.663  16.089  0.00  0.00    +0.000 A 
ATOM     19  C   UNL     1      48.531   6.494  15.360  0.00  0.00    +0.000 A 
ATOM     20  C   UNL     1      48.398   7.020  14.069  0.00  0.00    +0.000 A 
ATOM     21  C   UNL     1      49.501   7.669  13.501  0.00  0.00    +0.000 A 
ATOM     22  C   UNL     1      50.688   7.838  14.227  0.00  0.00    +0.000 A 
BRANCH  20  23
ATOM     23  C   UNL     1      47.179   6.826  13.263  0.00  0.00    +0.000 C 
ATOM     24  C   UNL     1      46.395   5.734  13.313  0.00  0.00    +0.000 C 
BRANCH  24  25
ATOM     25  C   UNL     1      45.239   5.489  12.430  0.00  0.00    +0.000 A 
ATOM     26  C   UNL     1      45.393   5.043  11.110  0.00  0.00    +0.000 A 
ATOM     27  C   UNL     1      44.281   4.723  10.327  0.00  0.00    +0.000 A 
ATOM     28  C   UNL     1      42.999   4.836  10.855  0.00  0.00    +0.000 A 
ATOM     29  C   UNL     1      42.827   5.273  12.167  0.00  0.00    +0.000 A 
ATOM     30  C   UNL     1      43.941   5.595  12.951  0.00  0.00    +0.000 A 
ENDBRANCH  24  25
ENDBRANCH  20  23
ENDBRANCH  16  17
ENDBRANCH   3  16
TORSDOF 6
ENDMDL
MODEL 4
REMARK VINA RESULT:    -5.382      5.024      8.777
REMARK INTER + INTRA:          -8.547
REMARK INTER:                  -7.462
REMARK INTRA:                  -1.086
REMARK UNBOUND:                -1.277
REMARK  Name = 
REMARK  7 active torsions:
REMARK  status: ('A' for Active; 'I' for Inactive)
REMARK    1  A    between atoms: C_1  and  O_2
REMARK    2  A    between atoms: O_2  and  C_3
REMARK    3  A    between atoms: C_10  and  C_11
REMARK    4  A    between atoms: N_13  and  C_14
REMARK    5  A    between atoms: C_14  and  C_15
REMARK    6  A    between atoms: C_18  and  C_19
REMARK    7  A    between atoms: C_20  and  C_21
REMARK                            x       y       z     vdW  Elec       q    Type
REMARK                         _______ _______ _______ _____ _____    ______ ____
ROOT
ATOM      1  C   UNL     1      48.573  10.148  17.270  0.00  0.00    +0.000 C 
ATOM      2  O   UNL     1      49.281  11.154  17.206  0.00  0.00    +0.000 OA
ATOM      3  N   UNL     1      48.160   9.498  16.142  0.00  0.00    +0.000 N 
ATOM      4  H   UNL     1      47.619   8.648  16.218  0.00  0.00    +0.000 HD
ENDROOT
BRANCH   1  12
ATOM      5  C   UNL     1      48.263   6.950  18.497  0.00  0.00    +0.000 A 
ATOM      6  N   UNL     1      48.057   5.828  19.215  0.00  0.00    +0.000 NA
ATOM      7  C   UNL     1      47.596   5.958  20.462  0.00  0.00    +0.000 A 
ATOM      8  N   UNL     1      47.310   7.093  21.096  0.00  0.00    +0.000 NA
ATOM      9  C   UNL     1      47.540   8.186  20.349  0.00  0.00    +0.000 A 
ATOM     10  S   UNL     1      47.233   9.724  20.996  0.00  0.00    +0.000 S 
ATOM     11  C   UNL     1      47.728  10.484  19.560  0.00  0.00    +0.000 A 
ATOM     12  C   UNL     1      48.135   9.600  18.566  0.00  0.00    +0.000 A 
ATOM     13  C   UNL     1      48.022   8.223  19.043  0.00  0.00    +0.000 A 
BRANCH   5  15
ATOM     14  C   UNL     1      48.637   5.498  16.699  0.00  0.00    +0.000 C 
ATOM     15  O   UNL     1      48.768   6.817  17.221  0.00  0.00    +0.000 OA
ENDBRANCH   5  15
ENDBRANCH   1  12
BRANCH   3  16
ATOM     16  C   UNL     1      48.508   9.940  14.816  0.00  0.00    +0.000 C 
BRANCH  16  17
ATOM     17  C   UNL     1      47.969   9.002  13.765  0.00  0.00    +0.000 A 
ATOM     18  C   UNL     1      46.620   8.622  13.774  0.00  0.00    +0.000 A 
ATOM     19  C   UNL     1      46.113   7.767  12.786  0.00  0.00    +0.000 A 
ATOM     20  C   UNL     1      46.939   7.271  11.768  0.00  0.00    +0.000 A 
ATOM     21  C   UNL     1      48.298   7.606  11.797  0.00  0.00    +0.000 A 
ATOM     22  C   UNL     1      48.808   8.461  12.784  0.00  0.00    +0.000 A 
BRANCH  20  23
ATOM     23  C   UNL     1      46.445   6.340  10.739  0.00  0.00    +0.000 C 
ATOM     24  C   UNL     1      45.654   5.279  10.982  0.00  0.00    +0.000 C 
BRANCH  24  25
ATOM     25  C   UNL     1      45.249   4.284   9.972  0.00  0.00    +0.000 A 
ATOM     26  C   UNL     1      45.590   4.417   8.619  0.00  0.00    +0.000 A 
ATOM     27  C   UNL     1      45.282   3.411   7.699  0.00  0.00    +0.000 A 
ATOM     28  C   UNL     1      44.636   2.253   8.121  0.00  0.00    +0.000 A 
ATOM     29  C   UNL     1      44.295   2.101   9.464  0.00  0.00    +0.000 A 
ATOM     30  C   UNL     1      44.602   3.110  10.384  0.00  0.00    +0.000 A 
ENDBRANCH  24  25
ENDBRANCH  20  23
ENDBRANCH  16  17
ENDBRANCH   3  16
TORSDOF 6
ENDMDL
MODEL 5
REMARK VINA RESULT:    -5.379      2.398      3.602
REMARK INTER + INTRA:          -8.542
REMARK INTER:                  -7.751
REMARK INTRA:                  -0.791
REMARK UNBOUND:                -1.277
REMARK  Name = 
REMARK  7 active torsions:
REMARK  status: ('A' for Active; 'I' for Inactive)
REMARK    1  A    between atoms: C_1  and  O_2
REMARK    2  A    between atoms: O_2  and  C_3
REMARK    3  A    between atoms: C_10  and  C_11
REMARK    4  A    between atoms: N_13  and  C_14
REMARK    5  A    between atoms: C_14  and  C_15
REMARK    6  A    between atoms: C_18  and  C_19
REMARK    7  A    between atoms: C_20  and  C_21
REMARK                            x       y       z     vdW  Elec       q    Type
REMARK                         _______ _______ _______ _____ _____    ______ ____
ROOT
ATOM      1  C   UNL     1      46.193   6.882  11.366  0.00  0.00    +0.000 C 
ATOM      2  O   UNL     1      45.499   7.786  11.835  0.00  0.00    +0.000 OA
ATOM      3  N   UNL     1      47.557   6.950  11.391  0.00  0.00    +0.000 N 
ATOM      4  H   UNL     1      48.107   6.176  11.043  0.00  0.00    +0.000 HD
ENDROOT
BRANCH   1  12
ATOM      5  C   UNL     1      44.434   4.214  12.637  0.00  0.00    +0.000 A 
ATOM      6  N   UNL     1      43.732   3.085  12.863  0.00  0.00    +0.000 NA
ATOM      7  C   UNL     1      43.448   2.304  11.818  0.00  0.00    +0.000 A 
ATOM      8  N   UNL     1      43.783   2.514  10.547  0.00  0.00    +0.000 NA
ATOM      9  C   UNL     1      44.471   3.653  10.365  0.00  0.00    +0.000 A 
ATOM     10  S   UNL     1      44.981   4.084   8.804  0.00  0.00    +0.000 S 
ATOM     11  C   UNL     1      45.709   5.506   9.380  0.00  0.00    +0.000 A 
ATOM     12  C   UNL     1      45.585   5.687  10.754  0.00  0.00    +0.000 A 
ATOM     13  C   UNL     1      44.841   4.575  11.340  0.00  0.00    +0.000 A 
BRANCH   5  15
ATOM     14  C   UNL     1      45.944   4.747  14.344  0.00  0.00    +0.000 C 
ATOM     15  O   UNL     1      44.701   5.035  13.711  0.00  0.00    +0.000 OA
ENDBRANCH   5  15
ENDBRANCH   1  12
BRANCH   3  16
ATOM     16  C   UNL     1      48.272   8.068  11.948  0.00  0.00    +0.000 C 
BRANCH  16  17
ATOM     17  C   UNL     1      48.968   7.691  13.232  0.00  0.00    +0.000 A 
ATOM     18  C   UNL     1      48.287   6.980  14.229  0.00  0.00    +0.000 A 
ATOM     19  C   UNL     1      48.938   6.612  15.414  0.00  0.00    +0.000 A 
ATOM     20  C   UNL     1      50.281   6.945  15.632  0.00  0.00    +0.000 A 
ATOM     21  C   UNL     1      50.941   7.705  14.659  0.00  0.00    +0.000 A 
ATOM     22  C   UNL     1      50.292   8.075  13.473  0.00  0.00    +0.000 A 
BRANCH  20  23
ATOM     23  C   UNL     1      50.982   6.605  16.883  0.00  0.00    +0.000 C 
ATOM     24  C   UNL     1      51.940   5.668  16.994  0.00  0.00    +0.000 C 
BRANCH  24  25
ATOM     25  C   UNL     1      52.563   5.249  18.264  0.00  0.00    +0.000 A 
ATOM     26  C   UNL     1      52.772   6.146  19.320  0.00  0.00    +0.000 A 
ATOM     27  C   UNL     1      53.272   5.704  20.548  0.00  0.00    +0.000 A 
ATOM     28  C   UNL     1      53.560   4.356  20.741  0.00  0.00    +0.000 A 
ATOM     29  C   UNL     1      53.352   3.449  19.703  0.00  0.00    +0.000 A 
ATOM     30  C   UNL     1      52.854   3.893  18.473  0.00  0.00    +0.000 A 
ENDBRANCH  24  25
ENDBRANCH  20  23
ENDBRANCH  16  17
ENDBRANCH   3  16
TORSDOF 6
ENDMDL
MODEL 6
REMARK VINA RESULT:    -5.091      5.213      7.635
REMARK INTER + INTRA:          -8.154
REMARK INTER:                  -6.987
REMARK INTRA:                  -1.167
REMARK UNBOUND:                -1.277
REMARK  Name = 
REMARK  7 active torsions:
REMARK  status: ('A' for Active; 'I' for Inactive)
REMARK    1  A    between atoms: C_1  and  O_2
REMARK    2  A    between atoms: O_2  and  C_3
REMARK    3  A    between atoms: C_10  and  C_11
REMARK    4  A    between atoms: N_13  and  C_14
REMARK    5  A    between atoms: C_14  and  C_15
REMARK    6  A    between atoms: C_18  and  C_19
REMARK    7  A    between atoms: C_20  and  C_21
REMARK                            x       y       z     vdW  Elec       q    Type
REMARK                         _______ _______ _______ _____ _____    ______ ____
ROOT
ATOM      1  C   UNL     1      49.010   7.955  16.439  0.00  0.00    +0.000 C 
ATOM      2  O   UNL     1      49.903   8.786  16.616  0.00  0.00    +0.000 OA
ATOM      3  N   UNL     1      48.158   8.046  15.376  0.00  0.00    +0.000 N 
ATOM      4  H   UNL     1      47.463   7.328  15.223  0.00  0.00    +0.000 HD
ENDROOT
BRANCH   1  12
ATOM      5  C   UNL     1      47.865   4.737  16.037  0.00  0.00    +0.000 A 
ATOM      6  N   UNL     1      47.469   3.454  16.158  0.00  0.00    +0.000 NA
ATOM      7  C   UNL     1      47.509   2.899  17.372  0.00  0.00    +0.000 A 
ATOM      8  N   UNL     1      47.904   3.475  18.504  0.00  0.00    +0.000 NA
ATOM      9  C   UNL     1      48.301   4.748  18.337  0.00  0.00    +0.000 A 
ATOM     10  S   UNL     1      48.841   5.641  19.675  0.00  0.00    +0.000 S 
ATOM     11  C   UNL     1      49.123   7.011  18.712  0.00  0.00    +0.000 A 
ATOM     12  C   UNL     1      48.818   6.827  17.367  0.00  0.00    +0.000 A 
ATOM     13  C   UNL     1      48.327   5.468  17.146  0.00  0.00    +0.000 A 
BRANCH   5  15
ATOM     14  C   UNL     1      46.719   4.924  14.004  0.00  0.00    +0.000 C 
ATOM     15  O   UNL     1      47.853   5.301  14.780  0.00  0.00    +0.000 OA
ENDBRANCH   5  15
ENDBRANCH   1  12
BRANCH   3  16
ATOM     16  C   UNL     1      48.231   9.107  14.405  0.00  0.00    +0.000 C 
BRANCH  16  17
ATOM     17  C   UNL     1      49.261   8.811  13.344  0.00  0.00    +0.000 A 
ATOM     18  C   UNL     1      50.445   9.556  13.272  0.00  0.00    +0.000 A 
ATOM     19  C   UNL     1      51.411   9.269  12.298  0.00  0.00    +0.000 A 
ATOM     20  C   UNL     1      51.219   8.232  11.375  0.00  0.00    +0.000 A 
ATOM     21  C   UNL     1      50.009   7.528  11.413  0.00  0.00    +0.000 A 
ATOM     22  C   UNL     1      49.040   7.814  12.385  0.00  0.00    +0.000 A 
BRANCH  20  23
ATOM     23  C   UNL     1      52.198   7.931  10.316  0.00  0.00    +0.000 C 
ATOM     24  C   UNL     1      52.035   6.992   9.367  0.00  0.00    +0.000 C 
BRANCH  24  25
ATOM     25  C   UNL     1      53.059   6.613   8.376  0.00  0.00    +0.000 A 
ATOM     26  C   UNL     1      53.915   5.521   8.572  0.00  0.00    +0.000 A 
ATOM     27  C   UNL     1      54.809   5.121   7.575  0.00  0.00    +0.000 A 
ATOM     28  C   UNL     1      54.852   5.802   6.362  0.00  0.00    +0.000 A 
ATOM     29  C   UNL     1      54.003   6.887   6.147  0.00  0.00    +0.000 A 
ATOM     30  C   UNL     1      53.110   7.288   7.147  0.00  0.00    +0.000 A 
ENDBRANCH  24  25
ENDBRANCH  20  23
ENDBRANCH  16  17
ENDBRANCH   3  16
TORSDOF 6
ENDMDL
MODEL 7
REMARK VINA RESULT:    -4.942      6.370      8.903
REMARK INTER + INTRA:          -7.952
REMARK INTER:                  -6.745
REMARK INTRA:                  -1.207
REMARK UNBOUND:                -1.277
REMARK  Name = 
REMARK  7 active torsions:
REMARK  status: ('A' for Active; 'I' for Inactive)
REMARK    1  A    between atoms: C_1  and  O_2
REMARK    2  A    between atoms: O_2  and  C_3
REMARK    3  A    between atoms: C_10  and  C_11
REMARK    4  A    between atoms: N_13  and  C_14
REMARK    5  A    between atoms: C_14  and  C_15
REMARK    6  A    between atoms: C_18  and  C_19
REMARK    7  A    between atoms: C_20  and  C_21
REMARK                            x       y       z     vdW  Elec       q    Type
REMARK                         _______ _______ _______ _____ _____    ______ ____
ROOT
ATOM      1  C   UNL     1      49.453   7.573  14.828  0.00  0.00    +0.000 C 
ATOM      2  O   UNL     1      49.448   8.489  15.653  0.00  0.00    +0.000 OA
ATOM      3  N   UNL     1      50.305   7.588  13.760  0.00  0.00    +0.000 N 
ATOM      4  H   UNL     1      50.326   6.804  13.121  0.00  0.00    +0.000 HD
ENDROOT
BRANCH   1  12
ATOM      5  C   UNL     1      47.090   6.199  12.742  0.00  0.00    +0.000 A 
ATOM      6  N   UNL     1      46.130   5.472  12.135  0.00  0.00    +0.000 NA
ATOM      7  C   UNL     1      45.610   4.439  12.804  0.00  0.00    +0.000 A 
ATOM      8  N   UNL     1      45.936   4.031  14.027  0.00  0.00    +0.000 NA
ATOM      9  C   UNL     1      46.903   4.775  14.590  0.00  0.00    +0.000 A 
ATOM     10  S   UNL     1      47.448   4.398  16.153  0.00  0.00    +0.000 S 
ATOM     11  C   UNL     1      48.557   5.685  16.131  0.00  0.00    +0.000 A 
ATOM     12  C   UNL     1      48.542   6.423  14.952  0.00  0.00    +0.000 A 
ATOM     13  C   UNL     1      47.549   5.873  14.030  0.00  0.00    +0.000 A 
BRANCH   5  15
ATOM     14  C   UNL     1      46.943   8.473  12.207  0.00  0.00    +0.000 C 
ATOM     15  O   UNL     1      47.648   7.246  12.041  0.00  0.00    +0.000 OA
ENDBRANCH   5  15
ENDBRANCH   1  12
BRANCH   3  16
ATOM     16  C   UNL     1      51.235   8.660  13.518  0.00  0.00    +0.000 C 
BRANCH  16  17
ATOM     17  C   UNL     1      51.843   8.560  12.141  0.00  0.00    +0.000 A 
ATOM     18  C   UNL     1      51.361   7.625  11.216  0.00  0.00    +0.000 A 
ATOM     19  C   UNL     1      51.912   7.545   9.929  0.00  0.00    +0.000 A 
ATOM     20  C   UNL     1      52.953   8.396   9.537  0.00  0.00    +0.000 A 
ATOM     21  C   UNL     1      53.470   9.289  10.483  0.00  0.00    +0.000 A 
ATOM     22  C   UNL     1      52.922   9.371  11.771  0.00  0.00    +0.000 A 
BRANCH  20  23
ATOM     23  C   UNL     1      53.578   8.311   8.205  0.00  0.00    +0.000 C 
ATOM     24  C   UNL     1      52.905   8.133   7.054  0.00  0.00    +0.000 C 
BRANCH  24  25
ATOM     25  C   UNL     1      53.534   7.936   5.735  0.00  0.00    +0.000 A 
ATOM     26  C   UNL     1      54.354   6.834   5.459  0.00  0.00    +0.000 A 
ATOM     27  C   UNL     1      54.858   6.617   4.174  0.00  0.00    +0.000 A 
ATOM     28  C   UNL     1      54.539   7.495   3.142  0.00  0.00    +0.000 A 
ATOM     29  C   UNL     1      53.720   8.593   3.396  0.00  0.00    +0.000 A 
ATOM     30  C   UNL     1      53.219   8.811   4.685  0.00  0.00    +0.000 A 
ENDBRANCH  24  25
ENDBRANCH  20  23
ENDBRANCH  16  17
ENDBRANCH   3  16
TORSDOF 6
ENDMDL
MODEL 8
REMARK VINA RESULT:    -4.921     10.542     11.890
REMARK INTER + INTRA:          -7.924
REMARK INTER:                  -6.794
REMARK INTRA:                  -1.130
REMARK UNBOUND:                -1.277
REMARK  Name = 
REMARK  7 active torsions:
REMARK  status: ('A' for Active; 'I' for Inactive)
REMARK    1  A    between atoms: C_1  and  O_2
REMARK    2  A    between atoms: O_2  and  C_3
REMARK    3  A    between atoms: C_10  and  C_11
REMARK    4  A    between atoms: N_13  and  C_14
REMARK    5  A    between atoms: C_14  and  C_15
REMARK    6  A    between atoms: C_18  and  C_19
REMARK    7  A    between atoms: C_20  and  C_21
REMARK                            x       y       z     vdW  Elec       q    Type
REMARK                         _______ _______ _______ _____ _____    ______ ____
ROOT
ATOM      1  C   UNL     1      38.738  -0.874  19.422  0.00  0.00    +0.000 C 
ATOM      2  O   UNL     1      38.149  -1.549  20.269  0.00  0.00    +0.000 OA
ATOM      3  N   UNL     1      39.334  -1.458  18.341  0.00  0.00    +0.000 N 
ATOM      4  H   UNL     1      39.770  -0.883  17.633  0.00  0.00    +0.000 HD
ENDROOT
BRANCH   1  12
ATOM      5  C   UNL     1      38.091   1.708  17.245  0.00  0.00    +0.000 A 
ATOM      6  N   UNL     1      37.913   2.884  16.611  0.00  0.00    +0.000 NA
ATOM      7  C   UNL     1      38.194   4.005  17.281  0.00  0.00    +0.000 A 
ATOM      8  N   UNL     1      38.638   4.101  18.531  0.00  0.00    +0.000 NA
ATOM      9  C   UNL     1      38.791   2.908  19.129  0.00  0.00    +0.000 A 
ATOM     10  S   UNL     1      39.349   2.837  20.730  0.00  0.00    +0.000 S 
ATOM     11  C   UNL     1      39.274   1.140  20.735  0.00  0.00    +0.000 A 
ATOM     12  C   UNL     1      38.829   0.591  19.537  0.00  0.00    +0.000 A 
ATOM     13  C   UNL     1      38.539   1.655  18.577  0.00  0.00    +0.000 A 
BRANCH   5  15
ATOM     14  C   UNL     1      37.170   0.794  15.296  0.00  0.00    +0.000 C 
ATOM     15  O   UNL     1      37.772   0.553  16.565  0.00  0.00    +0.000 OA
ENDBRANCH   5  15
ENDBRANCH   1  12
BRANCH   3  16
ATOM     16  C   UNL     1      39.328  -2.881  18.120  0.00  0.00    +0.000 C 
BRANCH  16  17
ATOM     17  C   UNL     1      40.702  -3.473  18.311  0.00  0.00    +0.000 A 
ATOM     18  C   UNL     1      41.190  -3.740  19.597  0.00  0.00    +0.000 A 
ATOM     19  C   UNL     1      42.459  -4.308  19.775  0.00  0.00    +0.000 A 
ATOM     20  C   UNL     1      43.269  -4.623  18.676  0.00  0.00    +0.000 A 
ATOM     21  C   UNL     1      42.802  -4.300  17.396  0.00  0.00    +0.000 A 
ATOM     22  C   UNL     1      41.533  -3.731  17.215  0.00  0.00    +0.000 A 
BRANCH  20  23
ATOM     23  C   UNL     1      44.622  -5.185  18.832  0.00  0.00    +0.000 C 
ATOM     24  C   UNL     1      45.317  -5.789  17.851  0.00  0.00    +0.000 C 
BRANCH  24  25
ATOM     25  C   UNL     1      46.623  -6.450  18.033  0.00  0.00    +0.000 A 
ATOM     26  C   UNL     1      46.762  -7.633  18.772  0.00  0.00    +0.000 A 
ATOM     27  C   UNL     1      47.991  -8.293  18.846  0.00  0.00    +0.000 A 
ATOM     28  C   UNL     1      49.098  -7.785  18.173  0.00  0.00    +0.000 A 
ATOM     29  C   UNL     1      48.977  -6.613  17.428  0.00  0.00    +0.000 A 
ATOM     30  C   UNL     1      47.746  -5.951  17.357  0.00  0.00    +0.000 A 
ENDBRANCH  24  25
ENDBRANCH  20  23
ENDBRANCH  16  17
ENDBRANCH   3  16
TORSDOF 6
ENDMDL
MODEL 9
REMARK VINA RESULT:    -4.890     11.494     12.774
REMARK INTER + INTRA:          -7.882
REMARK INTER:                  -6.502
REMARK INTRA:                  -1.380
REMARK UNBOUND:                -1.277
REMARK  Name = 
REMARK  7 active torsions:
REMARK  status: ('A' for Active; 'I' for Inactive)
REMARK    1  A    between atoms: C_1  and  O_2
REMARK    2  A    between atoms: O_2  and  C_3
REMARK    3  A    between atoms: C_10  and  C_11
REMARK    4  A    between atoms: N_13  and  C_14
REMARK    5  A    between atoms: C_14  and  C_15
REMARK    6  A    between atoms: C_18  and  C_19
REMARK    7  A    between atoms: C_20  and  C_21
REMARK                            x       y       z     vdW  Elec       q    Type
REMARK                         _______ _______ _______ _____ _____    ______ ____
ROOT
ATOM      1  C   UNL     1      37.459  -0.796  11.998  0.00  0.00    +0.000 C 
ATOM      2  O   UNL     1      37.763   0.373  12.246  0.00  0.00    +0.000 OA
ATOM      3  N   UNL     1      37.197  -1.687  13.000  0.00  0.00    +0.000 N 
ATOM      4  H   UNL     1      36.904  -2.627  12.774  0.00  0.00    +0.000 HD
ENDROOT
BRANCH   1  12
ATOM      5  C   UNL     1      39.084  -3.279  10.260  0.00  0.00    +0.000 A 
ATOM      6  N   UNL     1      39.553  -4.171   9.365  0.00  0.00    +0.000 NA
ATOM      7  C   UNL     1      39.049  -4.140   8.127  0.00  0.00    +0.000 A 
ATOM      8  N   UNL     1      38.116  -3.313   7.663  0.00  0.00    +0.000 NA
ATOM      9  C   UNL     1      37.669  -2.449   8.590  0.00  0.00    +0.000 A 
ATOM     10  S   UNL     1      36.473  -1.319   8.176  0.00  0.00    +0.000 S 
ATOM     11  C   UNL     1      36.470  -0.670   9.745  0.00  0.00    +0.000 A 
ATOM     12  C   UNL     1      37.366  -1.287  10.613  0.00  0.00    +0.000 A 
ATOM     13  C   UNL     1      38.082  -2.355   9.916  0.00  0.00    +0.000 A 
BRANCH   5  15
ATOM     14  C   UNL     1      40.734  -2.517  11.735  0.00  0.00    +0.000 C 
ATOM     15  O   UNL     1      39.581  -3.331  11.545  0.00  0.00    +0.000 OA
ENDBRANCH   5  15
ENDBRANCH   1  12
BRANCH   3  16
ATOM     16  C   UNL     1      37.267  -1.336  14.394  0.00  0.00    +0.000 C 
BRANCH  16  17
ATOM     17  C   UNL     1      38.491  -1.924  15.049  0.00  0.00    +0.000 A 
ATOM     18  C   UNL     1      39.312  -1.135  15.864  0.00  0.00    +0.000 A 
ATOM     19  C   UNL     1      40.440  -1.686  16.489  0.00  0.00    +0.000 A 
ATOM     20  C   UNL     1      40.772  -3.036  16.316  0.00  0.00    +0.000 A 
ATOM     21  C   UNL     1      39.982  -3.807  15.454  0.00  0.00    +0.000 A 
ATOM     22  C   UNL     1      38.855  -3.258  14.827  0.00  0.00    +0.000 A 
BRANCH  20  23
ATOM     23  C   UNL     1      41.971  -3.635  16.928  0.00  0.00    +0.000 C 
ATOM     24  C   UNL     1      42.449  -4.859  16.639  0.00  0.00    +0.000 C 
BRANCH  24  25
ATOM     25  C   UNL     1      43.581  -5.503  17.329  0.00  0.00    +0.000 A 
ATOM     26  C   UNL     1      44.051  -6.771  16.962  0.00  0.00    +0.000 A 
ATOM     27  C   UNL     1      45.188  -7.318  17.565  0.00  0.00    +0.000 A 
ATOM     28  C   UNL     1      45.877  -6.598  18.537  0.00  0.00    +0.000 A 
ATOM     29  C   UNL     1      45.427  -5.333  18.910  0.00  0.00    +0.000 A 
ATOM     30  C   UNL     1      44.287  -4.788  18.308  0.00  0.00    +0.000 A 
ENDBRANCH  24  25
ENDBRANCH  20  23
ENDBRANCH  16  17
ENDBRANCH   3  16
TORSDOF 6
ENDMDL
