MODEL 1
REMARK VINA RESULT:    -8.641      0.000      0.000
REMARK INTER + INTRA:         -10.837
REMARK INTER:                 -10.156
REMARK INTRA:                  -0.681
REMARK UNBOUND:                -0.681
REMARK  Name = 
REMARK  3 active torsions:
REMARK  status: ('A' for Active; 'I' for Inactive)
REMARK    1  A    between atoms: C_2  and  C_4
REMARK    2  A    between atoms: N_8  and  C_9
REMARK    3  A    between atoms: C_9  and  C_10
REMARK                            x       y       z     vdW  Elec       q    Type
REMARK                         _______ _______ _______ _____ _____    ______ ____
ROOT
ATOM      1  C   UNL     1      46.563   2.664   7.511  0.00  0.00    +0.000 A 
ATOM      2  C   UNL     1      46.253   4.010   7.662  0.00  0.00    +0.000 A 
ATOM      3  C   UNL     1      45.367   4.403   8.665  0.00  0.00    +0.000 A 
ATOM      4  C   UNL     1      44.815   3.448   9.506  0.00  0.00    +0.000 A 
ATOM      5  N   UNL     1      43.873   3.750  10.493  0.00  0.00    +0.000 N 
ATOM      6  N   UNL     1      45.092   2.132   9.352  0.00  0.00    +0.000 NA
ATOM      7  C   UNL     1      45.944   1.763   8.360  0.00  0.00    +0.000 A 
ATOM      8  H   UNL     1      43.696   2.874  10.979  0.00  0.00    +0.000 HD
ENDROOT
BRANCH   1  10
ATOM      9  N   UNL     1      47.757   3.045   5.438  0.00  0.00    +0.000 N 
ATOM     10  C   UNL     1      47.487   2.178   6.463  0.00  0.00    +0.000 C 
ATOM     11  O   UNL     1      48.002   1.075   6.517  0.00  0.00    +0.000 OA
ATOM     12  H   UNL     1      48.447   2.752   4.763  0.00  0.00    +0.000 HD
ATOM     13  H   UNL     1      47.544   4.036   5.488  0.00  0.00    +0.000 HD
ENDBRANCH   1  10
BRANCH   5  14
ATOM     14  C   UNL     1      43.865   4.963  11.334  0.00  0.00    +0.000 C 
ATOM     15  C   UNL     1      42.542   5.163  12.068  0.00  0.00    +0.000 C 
ATOM     16  C   UNL     1      43.003   6.188  11.089  0.00  0.00    +0.000 C 
BRANCH  14  17
ATOM     17  C   UNL     1      45.181   5.206  12.070  0.00  0.00    +0.000 A 
ATOM     18  C   UNL     1      45.997   6.321  11.797  0.00  0.00    +0.000 A 
ATOM     19  C   UNL     1      47.177   6.562  12.513  0.00  0.00    +0.000 A 
ATOM     20  C   UNL     1      47.569   5.684  13.519  0.00  0.00    +0.000 A 
ATOM     21  C   UNL     1      46.786   4.571  13.789  0.00  0.00    +0.000 A 
ATOM     22  F   UNL     1      47.159   3.720  14.754  0.00  0.00    +0.000 F 
ATOM     23  C   UNL     1      45.613   4.328  13.081  0.00  0.00    +0.000 A 
ENDBRANCH  14  17
ENDBRANCH   5  14
TORSDOF 3
ENDMDL
MODEL 2
REMARK VINA RESULT:    -6.968      3.753      6.199
REMARK INTER + INTRA:          -8.870
REMARK INTER:                  -8.458
REMARK INTRA:                  -0.412
REMARK UNBOUND:                -0.681
REMARK  Name = 
REMARK  3 active torsions:
REMARK  status: ('A' for Active; 'I' for Inactive)
REMARK    1  A    between atoms: C_2  and  C_4
REMARK    2  A    between atoms: N_8  and  C_9
REMARK    3  A    between atoms: C_9  and  C_10
REMARK                            x       y       z     vdW  Elec       q    Type
REMARK                         _______ _______ _______ _____ _____    ______ ____
ROOT
ATOM      1  C   UNL     1      48.192   6.719  13.709  0.00  0.00    +0.000 A 
ATOM      2  C   UNL     1      47.455   5.594  14.059  0.00  0.00    +0.000 A 
ATOM      3  C   UNL     1      46.373   5.208  13.269  0.00  0.00    +0.000 A 
ATOM      4  C   UNL     1      46.053   5.943  12.137  0.00  0.00    +0.000 A 
ATOM      5  N   UNL     1      44.949   5.661  11.328  0.00  0.00    +0.000 N 
ATOM      6  N   UNL     1      46.750   7.054  11.800  0.00  0.00    +0.000 NA
ATOM      7  C   UNL     1      47.791   7.427  12.589  0.00  0.00    +0.000 A 
ATOM      8  H   UNL     1      45.000   6.321  10.556  0.00  0.00    +0.000 HD
ENDROOT
BRANCH   1  10
ATOM      9  N   UNL     1      49.839   8.427  14.197  0.00  0.00    +0.000 N 
ATOM     10  C   UNL     1      49.345   7.188  14.508  0.00  0.00    +0.000 C 
ATOM     11  O   UNL     1      49.819   6.522  15.411  0.00  0.00    +0.000 OA
ATOM     12  H   UNL     1      50.572   8.787  14.788  0.00  0.00    +0.000 HD
ATOM     13  H   UNL     1      49.327   9.095  13.629  0.00  0.00    +0.000 HD
ENDBRANCH   1  10
BRANCH   5  14
ATOM     14  C   UNL     1      44.452   4.314  10.988  0.00  0.00    +0.000 C 
ATOM     15  C   UNL     1      42.952   4.161  11.224  0.00  0.00    +0.000 C 
ATOM     16  C   UNL     1      43.908   3.307  11.985  0.00  0.00    +0.000 C 
BRANCH  14  17
ATOM     17  C   UNL     1      45.080   3.732   9.723  0.00  0.00    +0.000 A 
ATOM     18  C   UNL     1      45.628   4.549   8.714  0.00  0.00    +0.000 A 
ATOM     19  C   UNL     1      46.247   4.004   7.582  0.00  0.00    +0.000 A 
ATOM     20  C   UNL     1      46.328   2.622   7.433  0.00  0.00    +0.000 A 
ATOM     21  C   UNL     1      45.778   1.804   8.408  0.00  0.00    +0.000 A 
ATOM     22  F   UNL     1      45.849   0.472   8.270  0.00  0.00    +0.000 F 
ATOM     23  C   UNL     1      45.162   2.340   9.535  0.00  0.00    +0.000 A 
ENDBRANCH  14  17
ENDBRANCH   5  14
TORSDOF 3
ENDMDL
MODEL 3
REMARK VINA RESULT:    -5.758      2.348      3.063
REMARK INTER + INTRA:          -7.448
REMARK INTER:                  -7.543
REMARK INTRA:                   0.095
REMARK UNBOUND:                -0.681
REMARK  Name = 
REMARK  3 active torsions:
REMARK  status: ('A' for Active; 'I' for Inactive)
REMARK    1  A    between atoms: C_2  and  C_4
REMARK    2  A    between atoms: N_8  and  C_9
REMARK    3  A    between atoms: C_9  and  C_10
REMARK                            x       y       z     vdW  Elec       q    Type
REMARK                         _______ _______ _______ _____ _____    ______ ____
ROOT
ATOM      1  C   UNL     1      46.316   3.288   7.370  0.00  0.00    +0.000 A 
ATOM      2  C   UNL     1      46.436   4.481   8.073  0.00  0.00    +0.000 A 
ATOM      3  C   UNL     1      45.587   4.732   9.150  0.00  0.00    +0.000 A 
ATOM      4  C   UNL     1      44.641   3.784   9.514  0.00  0.00    +0.000 A 
ATOM      5  N   UNL     1      43.713   3.985  10.539  0.00  0.00    +0.000 N 
ATOM      6  N   UNL     1      44.500   2.630   8.821  0.00  0.00    +0.000 NA
ATOM      7  C   UNL     1      45.324   2.406   7.764  0.00  0.00    +0.000 A 
ATOM      8  H   UNL     1      43.195   3.112  10.613  0.00  0.00    +0.000 HD
ENDROOT
BRANCH   1  10
ATOM      9  N   UNL     1      48.456   2.561   6.497  0.00  0.00    +0.000 N 
ATOM     10  C   UNL     1      47.178   2.962   6.213  0.00  0.00    +0.000 C 
ATOM     11  O   UNL     1      46.770   3.023   5.066  0.00  0.00    +0.000 OA
ATOM     12  H   UNL     1      49.024   2.262   5.720  0.00  0.00    +0.000 HD
ATOM     13  H   UNL     1      48.746   2.271   7.426  0.00  0.00    +0.000 HD
ENDBRANCH   1  10
BRANCH   5  14
ATOM     14  C   UNL     1      43.971   4.687  11.811  0.00  0.00    +0.000 C 
ATOM     15  C   UNL     1      44.906   3.911  12.733  0.00  0.00    +0.000 C 
ATOM     16  C   UNL     1      43.516   4.209  13.179  0.00  0.00    +0.000 C 
BRANCH  14  17
ATOM     17  C   UNL     1      44.147   6.196  11.653  0.00  0.00    +0.000 A 
ATOM     18  C   UNL     1      45.357   6.846  11.966  0.00  0.00    +0.000 A 
ATOM     19  C   UNL     1      45.525   8.222  11.768  0.00  0.00    +0.000 A 
ATOM     20  C   UNL     1      44.478   8.982  11.255  0.00  0.00    +0.000 A 
ATOM     21  C   UNL     1      43.274   8.361  10.958  0.00  0.00    +0.000 A 
ATOM     22  F   UNL     1      42.260   9.087  10.466  0.00  0.00    +0.000 F 
ATOM     23  C   UNL     1      43.103   6.993  11.151  0.00  0.00    +0.000 A 
ENDBRANCH  14  17
ENDBRANCH   5  14
TORSDOF 3
ENDMDL
MODEL 4
REMARK VINA RESULT:    -5.644      3.266      4.751
REMARK INTER + INTRA:          -7.315
REMARK INTER:                  -7.518
REMARK INTRA:                   0.203
REMARK UNBOUND:                -0.681
REMARK  Name = 
REMARK  3 active torsions:
REMARK  status: ('A' for Active; 'I' for Inactive)
REMARK    1  A    between atoms: C_2  and  C_4
REMARK    2  A    between atoms: N_8  and  C_9
REMARK    3  A    between atoms: C_9  and  C_10
REMARK                            x       y       z     vdW  Elec       q    Type
REMARK                         _______ _______ _______ _____ _____    ______ ____
ROOT
ATOM      1  C   UNL     1      45.012   3.856  10.144  0.00  0.00    +0.000 A 
ATOM      2  C   UNL     1      45.462   5.138   9.854  0.00  0.00    +0.000 A 
ATOM      3  C   UNL     1      45.850   5.982  10.895  0.00  0.00    +0.000 A 
ATOM      4  C   UNL     1      45.794   5.527  12.204  0.00  0.00    +0.000 A 
ATOM      5  N   UNL     1      46.105   6.328  13.307  0.00  0.00    +0.000 N 
ATOM      6  N   UNL     1      45.335   4.288  12.499  0.00  0.00    +0.000 NA
ATOM      7  C   UNL     1      44.945   3.483  11.476  0.00  0.00    +0.000 A 
ATOM      8  H   UNL     1      46.028   5.718  14.118  0.00  0.00    +0.000 HD
ENDROOT
BRANCH   1  10
ATOM      9  N   UNL     1      44.242   3.463   7.881  0.00  0.00    +0.000 N 
ATOM     10  C   UNL     1      44.577   2.914   9.090  0.00  0.00    +0.000 C 
ATOM     11  O   UNL     1      44.539   1.710   9.275  0.00  0.00    +0.000 OA
ATOM     12  H   UNL     1      44.021   2.822   7.135  0.00  0.00    +0.000 HD
ATOM     13  H   UNL     1      44.490   4.413   7.623  0.00  0.00    +0.000 HD
ENDBRANCH   1  10
BRANCH   5  14
ATOM     14  C   UNL     1      47.179   7.338  13.362  0.00  0.00    +0.000 C 
ATOM     15  C   UNL     1      48.558   6.748  13.086  0.00  0.00    +0.000 C 
ATOM     16  C   UNL     1      48.281   7.382  14.406  0.00  0.00    +0.000 C 
BRANCH  14  17
ATOM     17  C   UNL     1      46.792   8.678  12.739  0.00  0.00    +0.000 A 
ATOM     18  C   UNL     1      47.753   9.567  12.218  0.00  0.00    +0.000 A 
ATOM     19  C   UNL     1      47.384  10.770  11.603  0.00  0.00    +0.000 A 
ATOM     20  C   UNL     1      46.039  11.113  11.501  0.00  0.00    +0.000 A 
ATOM     21  C   UNL     1      45.081  10.257  12.024  0.00  0.00    +0.000 A 
ATOM     22  F   UNL     1      43.784  10.582  11.932  0.00  0.00    +0.000 F 
ATOM     23  C   UNL     1      45.443   9.060  12.635  0.00  0.00    +0.000 A 
ENDBRANCH  14  17
ENDBRANCH   5  14
TORSDOF 3
ENDMDL
