MODEL 1
REMARK VINA RESULT:    -7.934      0.000      0.000
REMARK INTER + INTRA:         -12.453
REMARK INTER:                 -11.181
REMARK INTRA:                  -1.273
REMARK UNBOUND:                -1.273
REMARK  Name = 
REMARK  8 active torsions:
REMARK  status: ('A' for Active; 'I' for Inactive)
REMARK    1  A    between atoms: C_1  and  O_2
REMARK    2  A    between atoms: O_2  and  C_3
REMARK    3  A    between atoms: C_10  and  C_11
REMARK    4  A    between atoms: N_13  and  C_14
REMARK    5  A    between atoms: C_14  and  C_15
REMARK    6  A    between atoms: C_18  and  C_19
REMARK    7  A    between atoms: C_19  and  C_20
REMARK    8  A    between atoms: C_20  and  N_21
REMARK                            x       y       z     vdW  Elec       q    Type
REMARK                         _______ _______ _______ _____ _____    ______ ____
ROOT
ATOM      1  C   UNL     1      47.655   6.678  12.854  0.00  0.00    +0.000 A 
ATOM      2  C   UNL     1      46.831   7.546  12.132  0.00  0.00    +0.000 A 
ATOM      3  C   UNL     1      45.514   7.192  11.823  0.00  0.00    +0.000 A 
ATOM      4  C   UNL     1      44.980   5.965  12.238  0.00  0.00    +0.000 A 
ATOM      5  C   UNL     1      45.818   5.086  12.942  0.00  0.00    +0.000 A 
ATOM      6  C   UNL     1      47.137   5.439  13.251  0.00  0.00    +0.000 A 
ENDROOT
BRANCH   1   7
ATOM      7  C   UNL     1      49.044   7.103  13.248  0.00  0.00    +0.000 C 
BRANCH   7  10
ATOM      8  C   UNL     1      48.804   7.860  15.571  0.00  0.00    +0.000 C 
ATOM      9  O   UNL     1      48.221   8.877  15.197  0.00  0.00    +0.000 OA
ATOM     10  N   UNL     1      49.252   6.935  14.668  0.00  0.00    +0.000 N 
ATOM     11  H   UNL     1      49.716   6.094  14.983  0.00  0.00    +0.000 HD
BRANCH   8  19
ATOM     12  C   UNL     1      48.572   5.046  17.559  0.00  0.00    +0.000 A 
ATOM     13  N   UNL     1      48.515   4.142  18.557  0.00  0.00    +0.000 NA
ATOM     14  C   UNL     1      48.816   4.549  19.794  0.00  0.00    +0.000 A 
ATOM     15  N   UNL     1      49.182   5.771  20.164  0.00  0.00    +0.000 NA
ATOM     16  C   UNL     1      49.212   6.644  19.143  0.00  0.00    +0.000 A 
ATOM     17  S   UNL     1      49.667   8.253  19.435  0.00  0.00    +0.000 S 
ATOM     18  C   UNL     1      49.453   8.660  17.800  0.00  0.00    +0.000 A 
ATOM     19  C   UNL     1      49.035   7.600  17.003  0.00  0.00    +0.000 A 
ATOM     20  C   UNL     1      48.909   6.388  17.808  0.00  0.00    +0.000 A 
BRANCH  12  22
ATOM     21  C   UNL     1      47.843   3.258  16.254  0.00  0.00    +0.000 C 
ATOM     22  O   UNL     1      48.266   4.621  16.282  0.00  0.00    +0.000 OA
ENDBRANCH  12  22
ENDBRANCH   8  19
ENDBRANCH   7  10
ENDBRANCH   1   7
BRANCH   4  23
ATOM     23  C   UNL     1      43.541   5.551  11.980  0.00  0.00    +0.000 C 
BRANCH  23  24
ATOM     24  C   UNL     1      43.345   4.412  10.969  0.00  0.00    +0.000 C 
BRANCH  24  25
ATOM     25  N   UNL     1      43.747   4.816   9.628  0.00  0.00    +0.000 N 
ATOM     26  C   UNL     1      44.638   3.931   9.031  0.00  0.00    +0.000 A 
ATOM     27  N   UNL     1      44.593   2.621   9.324  0.00  0.00    +0.000 NA
ATOM     28  C   UNL     1      45.486   1.814   8.712  0.00  0.00    +0.000 A 
ATOM     29  C   UNL     1      46.424   2.268   7.819  0.00  0.00    +0.000 A 
ATOM     30 CL   UNL     1      47.541   1.224   7.057  0.00  0.00    +0.000 Cl
ATOM     31  C   UNL     1      46.399   3.622   7.590  0.00  0.00    +0.000 A 
ATOM     32  N   UNL     1      45.527   4.471   8.184  0.00  0.00    +0.000 NA
ATOM     33  H   UNL     1      44.165   5.737   9.543  0.00  0.00    +0.000 HD
ENDBRANCH  24  25
ENDBRANCH  23  24
ENDBRANCH   4  23
TORSDOF 7
ENDMDL
MODEL 2
REMARK VINA RESULT:    -7.280      1.915      2.160
REMARK INTER + INTRA:         -11.532
REMARK INTER:                 -10.340
REMARK INTRA:                  -1.192
REMARK UNBOUND:                -1.273
REMARK  Name = 
REMARK  8 active torsions:
REMARK  status: ('A' for Active; 'I' for Inactive)
REMARK    1  A    between atoms: C_1  and  O_2
REMARK    2  A    between atoms: O_2  and  C_3
REMARK    3  A    between atoms: C_10  and  C_11
REMARK    4  A    between atoms: N_13  and  C_14
REMARK    5  A    between atoms: C_14  and  C_15
REMARK    6  A    between atoms: C_18  and  C_19
REMARK    7  A    between atoms: C_19  and  C_20
REMARK    8  A    between atoms: C_20  and  N_21
REMARK                            x       y       z     vdW  Elec       q    Type
REMARK                         _______ _______ _______ _____ _____    ______ ____
ROOT
ATOM      1  C   UNL     1      47.078   6.848  13.307  0.00  0.00    +0.000 A 
ATOM      2  C   UNL     1      47.190   5.471  13.519  0.00  0.00    +0.000 A 
ATOM      3  C   UNL     1      46.119   4.615  13.243  0.00  0.00    +0.000 A 
ATOM      4  C   UNL     1      44.910   5.110  12.736  0.00  0.00    +0.000 A 
ATOM      5  C   UNL     1      44.794   6.496  12.547  0.00  0.00    +0.000 A 
ATOM      6  C   UNL     1      45.865   7.355  12.824  0.00  0.00    +0.000 A 
ENDROOT
BRANCH   1   7
ATOM      7  C   UNL     1      48.263   7.749  13.532  0.00  0.00    +0.000 C 
BRANCH   7  10
ATOM      8  C   UNL     1      50.094   7.733  15.168  0.00  0.00    +0.000 C 
ATOM      9  O   UNL     1      49.966   8.943  15.347  0.00  0.00    +0.000 OA
ATOM     10  N   UNL     1      49.295   7.067  14.278  0.00  0.00    +0.000 N 
ATOM     11  H   UNL     1      49.394   6.069  14.147  0.00  0.00    +0.000 HD
BRANCH   8  19
ATOM     12  C   UNL     1      49.981   4.854  17.070  0.00  0.00    +0.000 A 
ATOM     13  N   UNL     1      50.215   3.806  17.887  0.00  0.00    +0.000 NA
ATOM     14  C   UNL     1      51.461   3.619  18.330  0.00  0.00    +0.000 A 
ATOM     15  N   UNL     1      52.528   4.359  18.048  0.00  0.00    +0.000 NA
ATOM     16  C   UNL     1      52.250   5.399  17.244  0.00  0.00    +0.000 A 
ATOM     17  S   UNL     1      53.499   6.447  16.774  0.00  0.00    +0.000 S 
ATOM     18  C   UNL     1      52.423   7.402  15.872  0.00  0.00    +0.000 A 
ATOM     19  C   UNL     1      51.106   6.957  15.906  0.00  0.00    +0.000 A 
ATOM     20  C   UNL     1      51.009   5.745  16.714  0.00  0.00    +0.000 A 
BRANCH  12  22
ATOM     21  C   UNL     1      47.726   4.932  17.653  0.00  0.00    +0.000 C 
ATOM     22  O   UNL     1      48.694   5.040  16.610  0.00  0.00    +0.000 OA
ENDBRANCH  12  22
ENDBRANCH   8  19
ENDBRANCH   7  10
ENDBRANCH   1   7
BRANCH   4  23
ATOM     23  C   UNL     1      43.734   4.222  12.365  0.00  0.00    +0.000 C 
BRANCH  23  24
ATOM     24  C   UNL     1      43.972   3.251  11.200  0.00  0.00    +0.000 C 
BRANCH  24  25
ATOM     25  N   UNL     1      43.979   3.949   9.921  0.00  0.00    +0.000 N 
ATOM     26  C   UNL     1      44.917   3.446   9.024  0.00  0.00    +0.000 A 
ATOM     27  N   UNL     1      45.253   2.146   9.053  0.00  0.00    +0.000 NA
ATOM     28  C   UNL     1      46.170   1.720   8.157  0.00  0.00    +0.000 A 
ATOM     29  C   UNL     1      46.765   2.545   7.237  0.00  0.00    +0.000 A 
ATOM     30 CL   UNL     1      47.921   1.979   6.114  0.00  0.00    +0.000 Cl
ATOM     31  C   UNL     1      46.364   3.858   7.290  0.00  0.00    +0.000 A 
ATOM     32  N   UNL     1      45.454   4.333   8.173  0.00  0.00    +0.000 NA
ATOM     33  H   UNL     1      44.134   4.951   9.956  0.00  0.00    +0.000 HD
ENDBRANCH  24  25
ENDBRANCH  23  24
ENDBRANCH   4  23
TORSDOF 7
ENDMDL
MODEL 3
REMARK VINA RESULT:    -7.128      1.679      2.947
REMARK INTER + INTRA:         -11.317
REMARK INTER:                 -10.177
REMARK INTRA:                  -1.140
REMARK UNBOUND:                -1.273
REMARK  Name = 
REMARK  8 active torsions:
REMARK  status: ('A' for Active; 'I' for Inactive)
REMARK    1  A    between atoms: C_1  and  O_2
REMARK    2  A    between atoms: O_2  and  C_3
REMARK    3  A    between atoms: C_10  and  C_11
REMARK    4  A    between atoms: N_13  and  C_14
REMARK    5  A    between atoms: C_14  and  C_15
REMARK    6  A    between atoms: C_18  and  C_19
REMARK    7  A    between atoms: C_19  and  C_20
REMARK    8  A    between atoms: C_20  and  N_21
REMARK                            x       y       z     vdW  Elec       q    Type
REMARK                         _______ _______ _______ _____ _____    ______ ____
ROOT
ATOM      1  C   UNL     1      47.087   6.001  13.624  0.00  0.00    +0.000 A 
ATOM      2  C   UNL     1      46.890   4.623  13.750  0.00  0.00    +0.000 A 
ATOM      3  C   UNL     1      45.730   4.017  13.256  0.00  0.00    +0.000 A 
ATOM      4  C   UNL     1      44.740   4.772  12.612  0.00  0.00    +0.000 A 
ATOM      5  C   UNL     1      44.931   6.158  12.509  0.00  0.00    +0.000 A 
ATOM      6  C   UNL     1      46.092   6.766  13.004  0.00  0.00    +0.000 A 
ENDROOT
BRANCH   1   7
ATOM      7  C   UNL     1      48.374   6.628  14.089  0.00  0.00    +0.000 C 
BRANCH   7  10
ATOM      8  C   UNL     1      48.781   6.323  16.491  0.00  0.00    +0.000 C 
ATOM      9  O   UNL     1      49.335   5.246  16.277  0.00  0.00    +0.000 OA
ATOM     10  N   UNL     1      48.269   7.066  15.461  0.00  0.00    +0.000 N 
ATOM     11  H   UNL     1      47.829   7.957  15.643  0.00  0.00    +0.000 HD
BRANCH   8  19
ATOM     12  C   UNL     1      49.741   9.270  18.013  0.00  0.00    +0.000 A 
ATOM     13  N   UNL     1      50.041  10.278  18.857  0.00  0.00    +0.000 NA
ATOM     14  C   UNL     1      49.677  10.156  20.137  0.00  0.00    +0.000 A 
ATOM     15  N   UNL     1      49.031   9.135  20.690  0.00  0.00    +0.000 NA
ATOM     16  C   UNL     1      48.765   8.147  19.819  0.00  0.00    +0.000 A 
ATOM     17  S   UNL     1      47.935   6.766  20.353  0.00  0.00    +0.000 S 
ATOM     18  C   UNL     1      48.006   6.068  18.807  0.00  0.00    +0.000 A 
ATOM     19  C   UNL     1      48.653   6.853  17.859  0.00  0.00    +0.000 A 
ATOM     20  C   UNL     1      49.090   8.108  18.465  0.00  0.00    +0.000 A 
BRANCH  12  22
ATOM     21  C   UNL     1      49.342  10.389  16.008  0.00  0.00    +0.000 C 
ATOM     22  O   UNL     1      50.113   9.401  16.690  0.00  0.00    +0.000 OA
ENDBRANCH  12  22
ENDBRANCH   8  19
ENDBRANCH   7  10
ENDBRANCH   1   7
BRANCH   4  23
ATOM     23  C   UNL     1      43.487   4.161  12.007  0.00  0.00    +0.000 C 
BRANCH  23  24
ATOM     24  C   UNL     1      43.715   3.190  10.839  0.00  0.00    +0.000 C 
BRANCH  24  25
ATOM     25  N   UNL     1      43.871   3.904   9.578  0.00  0.00    +0.000 N 
ATOM     26  C   UNL     1      44.907   3.410   8.792  0.00  0.00    +0.000 A 
ATOM     27  N   UNL     1      45.237   2.109   8.843  0.00  0.00    +0.000 NA
ATOM     28  C   UNL     1      46.253   1.693   8.056  0.00  0.00    +0.000 A 
ATOM     29  C   UNL     1      46.952   2.528   7.221  0.00  0.00    +0.000 A 
ATOM     30 CL   UNL     1      48.231   1.974   6.234  0.00  0.00    +0.000 Cl
ATOM     31  C   UNL     1      46.547   3.841   7.244  0.00  0.00    +0.000 A 
ATOM     32  N   UNL     1      45.540   4.306   8.020  0.00  0.00    +0.000 NA
ATOM     33  H   UNL     1      44.021   4.905   9.644  0.00  0.00    +0.000 HD
ENDBRANCH  24  25
ENDBRANCH  23  24
ENDBRANCH   4  23
TORSDOF 7
ENDMDL
MODEL 4
REMARK VINA RESULT:    -7.111      2.098      2.473
REMARK INTER + INTRA:         -11.294
REMARK INTER:                 -10.178
REMARK INTRA:                  -1.116
REMARK UNBOUND:                -1.273
REMARK  Name = 
REMARK  8 active torsions:
REMARK  status: ('A' for Active; 'I' for Inactive)
REMARK    1  A    between atoms: C_1  and  O_2
REMARK    2  A    between atoms: O_2  and  C_3
REMARK    3  A    between atoms: C_10  and  C_11
REMARK    4  A    between atoms: N_13  and  C_14
REMARK    5  A    between atoms: C_14  and  C_15
REMARK    6  A    between atoms: C_18  and  C_19
REMARK    7  A    between atoms: C_19  and  C_20
REMARK    8  A    between atoms: C_20  and  N_21
REMARK                            x       y       z     vdW  Elec       q    Type
REMARK                         _______ _______ _______ _____ _____    ______ ____
ROOT
ATOM      1  C   UNL     1      47.588   7.129  13.251  0.00  0.00    +0.000 A 
ATOM      2  C   UNL     1      47.312   5.799  12.920  0.00  0.00    +0.000 A 
ATOM      3  C   UNL     1      46.046   5.423  12.461  0.00  0.00    +0.000 A 
ATOM      4  C   UNL     1      45.023   6.369  12.309  0.00  0.00    +0.000 A 
ATOM      5  C   UNL     1      45.298   7.698  12.665  0.00  0.00    +0.000 A 
ATOM      6  C   UNL     1      46.565   8.076  13.125  0.00  0.00    +0.000 A 
ENDROOT
BRANCH   1   7
ATOM      7  C   UNL     1      48.977   7.534  13.668  0.00  0.00    +0.000 C 
BRANCH   7  10
ATOM      8  C   UNL     1      49.129   7.247  16.102  0.00  0.00    +0.000 C 
ATOM      9  O   UNL     1      48.527   8.305  16.281  0.00  0.00    +0.000 OA
ATOM     10  N   UNL     1      49.400   6.798  14.837  0.00  0.00    +0.000 N 
ATOM     11  H   UNL     1      49.880   5.920  14.697  0.00  0.00    +0.000 HD
BRANCH   8  19
ATOM     12  C   UNL     1      52.169   5.905  17.039  0.00  0.00    +0.000 A 
ATOM     13  N   UNL     1      53.192   5.233  17.604  0.00  0.00    +0.000 NA
ATOM     14  C   UNL     1      52.952   4.543  18.723  0.00  0.00    +0.000 A 
ATOM     15  N   UNL     1      51.794   4.446  19.366  0.00  0.00    +0.000 NA
ATOM     16  C   UNL     1      50.798   5.117  18.763  0.00  0.00    +0.000 A 
ATOM     17  S   UNL     1      49.248   5.108  19.454  0.00  0.00    +0.000 S 
ATOM     18  C   UNL     1      48.632   6.075  18.202  0.00  0.00    +0.000 A 
ATOM     19  C   UNL     1      49.574   6.423  17.240  0.00  0.00    +0.000 A 
ATOM     20  C   UNL     1      50.876   5.863  17.589  0.00  0.00    +0.000 A 
BRANCH  12  22
ATOM     21  C   UNL     1      53.817   6.689  15.588  0.00  0.00    +0.000 C 
ATOM     22  O   UNL     1      52.423   6.620  15.886  0.00  0.00    +0.000 OA
ENDBRANCH  12  22
ENDBRANCH   8  19
ENDBRANCH   7  10
ENDBRANCH   1   7
BRANCH   4  23
ATOM     23  C   UNL     1      43.647   6.028  11.762  0.00  0.00    +0.000 C 
BRANCH  23  24
ATOM     24  C   UNL     1      43.553   4.726  10.954  0.00  0.00    +0.000 C 
BRANCH  24  25
ATOM     25  N   UNL     1      43.861   4.951   9.548  0.00  0.00    +0.000 N 
ATOM     26  C   UNL     1      44.678   3.967   9.000  0.00  0.00    +0.000 A 
ATOM     27  N   UNL     1      44.618   2.704   9.454  0.00  0.00    +0.000 NA
ATOM     28  C   UNL     1      45.437   1.797   8.881  0.00  0.00    +0.000 A 
ATOM     29  C   UNL     1      46.316   2.104   7.873  0.00  0.00    +0.000 A 
ATOM     30 CL   UNL     1      47.340   0.935   7.164  0.00  0.00    +0.000 Cl
ATOM     31  C   UNL     1      46.311   3.420   7.482  0.00  0.00    +0.000 A 
ATOM     32  N   UNL     1      45.513   4.367   8.029  0.00  0.00    +0.000 NA
ATOM     33  H   UNL     1      44.297   5.838   9.319  0.00  0.00    +0.000 HD
ENDBRANCH  24  25
ENDBRANCH  23  24
ENDBRANCH   4  23
TORSDOF 7
ENDMDL
MODEL 5
REMARK VINA RESULT:    -6.525      2.453      3.622
REMARK INTER + INTRA:         -10.468
REMARK INTER:                  -9.383
REMARK INTRA:                  -1.085
REMARK UNBOUND:                -1.273
REMARK  Name = 
REMARK  8 active torsions:
REMARK  status: ('A' for Active; 'I' for Inactive)
REMARK    1  A    between atoms: C_1  and  O_2
REMARK    2  A    between atoms: O_2  and  C_3
REMARK    3  A    between atoms: C_10  and  C_11
REMARK    4  A    between atoms: N_13  and  C_14
REMARK    5  A    between atoms: C_14  and  C_15
REMARK    6  A    between atoms: C_18  and  C_19
REMARK    7  A    between atoms: C_19  and  C_20
REMARK    8  A    between atoms: C_20  and  N_21
REMARK                            x       y       z     vdW  Elec       q    Type
REMARK                         _______ _______ _______ _____ _____    ______ ____
ROOT
ATOM      1  C   UNL     1      46.669   7.072  12.675  0.00  0.00    +0.000 A 
ATOM      2  C   UNL     1      45.713   7.258  11.672  0.00  0.00    +0.000 A 
ATOM      3  C   UNL     1      44.718   6.302  11.446  0.00  0.00    +0.000 A 
ATOM      4  C   UNL     1      44.644   5.138  12.223  0.00  0.00    +0.000 A 
ATOM      5  C   UNL     1      45.620   4.944  13.213  0.00  0.00    +0.000 A 
ATOM      6  C   UNL     1      46.618   5.900  13.440  0.00  0.00    +0.000 A 
ENDROOT
BRANCH   1   7
ATOM      7  C   UNL     1      47.687   8.144  12.961  0.00  0.00    +0.000 C 
BRANCH   7  10
ATOM      8  C   UNL     1      49.022   7.839  14.998  0.00  0.00    +0.000 C 
ATOM      9  O   UNL     1      48.239   8.541  15.636  0.00  0.00    +0.000 OA
ATOM     10  N   UNL     1      48.825   7.600  13.665  0.00  0.00    +0.000 N 
ATOM     11  H   UNL     1      49.463   7.010  13.151  0.00  0.00    +0.000 HD
BRANCH   8  19
ATOM     12  C   UNL     1      52.426   8.022  14.448  0.00  0.00    +0.000 A 
ATOM     13  N   UNL     1      53.765   7.868  14.426  0.00  0.00    +0.000 NA
ATOM     14  C   UNL     1      54.320   7.049  15.325  0.00  0.00    +0.000 A 
ATOM     15  N   UNL     1      53.690   6.356  16.268  0.00  0.00    +0.000 NA
ATOM     16  C   UNL     1      52.357   6.526  16.246  0.00  0.00    +0.000 A 
ATOM     17  S   UNL     1      51.395   5.721  17.388  0.00  0.00    +0.000 S 
ATOM     18  C   UNL     1      49.977   6.388  16.734  0.00  0.00    +0.000 A 
ATOM     19  C   UNL     1      50.195   7.226  15.646  0.00  0.00    +0.000 A 
ATOM     20  C   UNL     1      51.625   7.322  15.368  0.00  0.00    +0.000 A 
BRANCH  12  22
ATOM     21  C   UNL     1      52.823   9.415  12.622  0.00  0.00    +0.000 C 
ATOM     22  O   UNL     1      51.857   8.872  13.521  0.00  0.00    +0.000 OA
ENDBRANCH  12  22
ENDBRANCH   8  19
ENDBRANCH   7  10
ENDBRANCH   1   7
BRANCH   4  23
ATOM     23  C   UNL     1      43.553   4.093  12.060  0.00  0.00    +0.000 C 
BRANCH  23  24
ATOM     24  C   UNL     1      43.513   3.377  10.702  0.00  0.00    +0.000 C 
BRANCH  24  25
ATOM     25  N   UNL     1      44.620   2.439  10.565  0.00  0.00    +0.000 N 
ATOM     26  C   UNL     1      45.276   2.537   9.342  0.00  0.00    +0.000 A 
ATOM     27  N   UNL     1      45.345   3.716   8.702  0.00  0.00    +0.000 NA
ATOM     28  C   UNL     1      45.995   3.745   7.518  0.00  0.00    +0.000 A 
ATOM     29  C   UNL     1      46.575   2.640   6.949  0.00  0.00    +0.000 A 
ATOM     30 CL   UNL     1      47.393   2.706   5.451  0.00  0.00    +0.000 Cl
ATOM     31  C   UNL     1      46.445   1.480   7.672  0.00  0.00    +0.000 A 
ATOM     32  N   UNL     1      45.799   1.400   8.859  0.00  0.00    +0.000 NA
ATOM     33  H   UNL     1      44.394   1.457  10.684  0.00  0.00    +0.000 HD
ENDBRANCH  24  25
ENDBRANCH  23  24
ENDBRANCH   4  23
TORSDOF 7
ENDMDL
MODEL 6
REMARK VINA RESULT:    -6.102      1.959      2.845
REMARK INTER + INTRA:          -9.872
REMARK INTER:                  -8.704
REMARK INTRA:                  -1.168
REMARK UNBOUND:                -1.273
REMARK  Name = 
REMARK  8 active torsions:
REMARK  status: ('A' for Active; 'I' for Inactive)
REMARK    1  A    between atoms: C_1  and  O_2
REMARK    2  A    between atoms: O_2  and  C_3
REMARK    3  A    between atoms: C_10  and  C_11
REMARK    4  A    between atoms: N_13  and  C_14
REMARK    5  A    between atoms: C_14  and  C_15
REMARK    6  A    between atoms: C_18  and  C_19
REMARK    7  A    between atoms: C_19  and  C_20
REMARK    8  A    between atoms: C_20  and  N_21
REMARK                            x       y       z     vdW  Elec       q    Type
REMARK                         _______ _______ _______ _____ _____    ______ ____
ROOT
ATOM      1  C   UNL     1      48.812   8.320  13.083  0.00  0.00    +0.000 A 
ATOM      2  C   UNL     1      48.116   9.442  13.543  0.00  0.00    +0.000 A 
ATOM      3  C   UNL     1      46.827   9.724  13.080  0.00  0.00    +0.000 A 
ATOM      4  C   UNL     1      46.193   8.885  12.153  0.00  0.00    +0.000 A 
ATOM      5  C   UNL     1      46.905   7.774  11.676  0.00  0.00    +0.000 A 
ATOM      6  C   UNL     1      48.196   7.490  12.138  0.00  0.00    +0.000 A 
ENDROOT
BRANCH   1   7
ATOM      7  C   UNL     1      50.166   7.984  13.648  0.00  0.00    +0.000 C 
BRANCH   7  10
ATOM      8  C   UNL     1      49.946   7.199  15.963  0.00  0.00    +0.000 C 
ATOM      9  O   UNL     1      49.931   8.358  16.373  0.00  0.00    +0.000 OA
ATOM     10  N   UNL     1      50.069   6.927  14.627  0.00  0.00    +0.000 N 
ATOM     11  H   UNL     1      50.065   5.972  14.297  0.00  0.00    +0.000 HD
BRANCH   8  19
ATOM     12  C   UNL     1      47.769   4.530  16.215  0.00  0.00    +0.000 A 
ATOM     13  N   UNL     1      47.052   3.447  16.576  0.00  0.00    +0.000 NA
ATOM     14  C   UNL     1      47.436   2.770  17.661  0.00  0.00    +0.000 A 
ATOM     15  N   UNL     1      48.475   3.041  18.444  0.00  0.00    +0.000 NA
ATOM     16  C   UNL     1      49.154   4.135  18.059  0.00  0.00    +0.000 A 
ATOM     17  S   UNL     1      50.519   4.623  18.942  0.00  0.00    +0.000 S 
ATOM     18  C   UNL     1      50.763   5.956  17.917  0.00  0.00    +0.000 A 
ATOM     19  C   UNL     1      49.827   6.063  16.894  0.00  0.00    +0.000 A 
ATOM     20  C   UNL     1      48.875   4.958  16.970  0.00  0.00    +0.000 A 
BRANCH  12  22
ATOM     21  C   UNL     1      46.864   4.360  14.073  0.00  0.00    +0.000 C 
ATOM     22  O   UNL     1      47.372   5.224  15.090  0.00  0.00    +0.000 OA
ENDBRANCH  12  22
ENDBRANCH   8  19
ENDBRANCH   7  10
ENDBRANCH   1   7
BRANCH   4  23
ATOM     23  C   UNL     1      44.774   9.111  11.658  0.00  0.00    +0.000 C 
BRANCH  23  24
ATOM     24  C   UNL     1      44.122   7.923  10.936  0.00  0.00    +0.000 C 
BRANCH  24  25
ATOM     25  N   UNL     1      43.982   6.775  11.823  0.00  0.00    +0.000 N 
ATOM     26  C   UNL     1      44.145   5.555  11.174  0.00  0.00    +0.000 A 
ATOM     27  N   UNL     1      44.963   5.456  10.112  0.00  0.00    +0.000 NA
ATOM     28  C   UNL     1      45.077   4.244   9.526  0.00  0.00    +0.000 A 
ATOM     29  C   UNL     1      44.404   3.130   9.959  0.00  0.00    +0.000 A 
ATOM     30 CL   UNL     1      44.569   1.609   9.200  0.00  0.00    +0.000 Cl
ATOM     31  C   UNL     1      43.586   3.332  11.044  0.00  0.00    +0.000 A 
ATOM     32  N   UNL     1      43.434   4.528  11.662  0.00  0.00    +0.000 NA
ATOM     33  H   UNL     1      43.108   6.706  12.334  0.00  0.00    +0.000 HD
ENDBRANCH  24  25
ENDBRANCH  23  24
ENDBRANCH   4  23
TORSDOF 7
ENDMDL
MODEL 7
REMARK VINA RESULT:    -5.719      4.267      5.682
REMARK INTER + INTRA:          -9.332
REMARK INTER:                  -8.115
REMARK INTRA:                  -1.217
REMARK UNBOUND:                -1.273
REMARK  Name = 
REMARK  8 active torsions:
REMARK  status: ('A' for Active; 'I' for Inactive)
REMARK    1  A    between atoms: C_1  and  O_2
REMARK    2  A    between atoms: O_2  and  C_3
REMARK    3  A    between atoms: C_10  and  C_11
REMARK    4  A    between atoms: N_13  and  C_14
REMARK    5  A    between atoms: C_14  and  C_15
REMARK    6  A    between atoms: C_18  and  C_19
REMARK    7  A    between atoms: C_19  and  C_20
REMARK    8  A    between atoms: C_20  and  N_21
REMARK                            x       y       z     vdW  Elec       q    Type
REMARK                         _______ _______ _______ _____ _____    ______ ____
ROOT
ATOM      1  C   UNL     1      48.066   9.112  11.986  0.00  0.00    +0.000 A 
ATOM      2  C   UNL     1      46.816   9.646  12.316  0.00  0.00    +0.000 A 
ATOM      3  C   UNL     1      45.716   8.810  12.534  0.00  0.00    +0.000 A 
ATOM      4  C   UNL     1      45.838   7.417  12.441  0.00  0.00    +0.000 A 
ATOM      5  C   UNL     1      47.088   6.888  12.086  0.00  0.00    +0.000 A 
ATOM      6  C   UNL     1      48.190   7.723  11.865  0.00  0.00    +0.000 A 
ENDROOT
BRANCH   1   7
ATOM      7  C   UNL     1      49.259  10.016  11.831  0.00  0.00    +0.000 C 
BRANCH   7  10
ATOM      8  C   UNL     1      51.439   9.608  10.776  0.00  0.00    +0.000 C 
ATOM      9  O   UNL     1      51.294  10.594  10.056  0.00  0.00    +0.000 OA
ATOM     10  N   UNL     1      50.472   9.248  11.677  0.00  0.00    +0.000 N 
ATOM     11  H   UNL     1      50.605   8.445  12.276  0.00  0.00    +0.000 HD
BRANCH   8  19
ATOM     12  C   UNL     1      53.527   8.203  13.140  0.00  0.00    +0.000 A 
ATOM     13  N   UNL     1      54.518   7.600  13.828  0.00  0.00    +0.000 NA
ATOM     14  C   UNL     1      55.485   6.991  13.137  0.00  0.00    +0.000 A 
ATOM     15  N   UNL     1      55.585   6.901  11.815  0.00  0.00    +0.000 NA
ATOM     16  C   UNL     1      54.588   7.527  11.167  0.00  0.00    +0.000 A 
ATOM     17  S   UNL     1      54.554   7.506   9.471  0.00  0.00    +0.000 S 
ATOM     18  C   UNL     1      53.134   8.437   9.441  0.00  0.00    +0.000 A 
ATOM     19  C   UNL     1      52.657   8.784  10.700  0.00  0.00    +0.000 A 
ATOM     20  C   UNL     1      53.522   8.221  11.734  0.00  0.00    +0.000 A 
BRANCH  12  22
ATOM     21  C   UNL     1      52.012   7.997  14.899  0.00  0.00    +0.000 C 
ATOM     22  O   UNL     1      52.527   8.826  13.858  0.00  0.00    +0.000 OA
ENDBRANCH  12  22
ENDBRANCH   8  19
ENDBRANCH   7  10
ENDBRANCH   1   7
BRANCH   4  23
ATOM     23  C   UNL     1      44.692   6.459  12.722  0.00  0.00    +0.000 C 
BRANCH  23  24
ATOM     24  C   UNL     1      44.033   5.827  11.487  0.00  0.00    +0.000 C 
BRANCH  24  25
ATOM     25  N   UNL     1      44.364   4.413  11.374  0.00  0.00    +0.000 N 
ATOM     26  C   UNL     1      44.874   4.066  10.126  0.00  0.00    +0.000 A 
ATOM     27  N   UNL     1      45.582   4.956   9.411  0.00  0.00    +0.000 NA
ATOM     28  C   UNL     1      46.048   4.558   8.208  0.00  0.00    +0.000 A 
ATOM     29  C   UNL     1      45.830   3.306   7.691  0.00  0.00    +0.000 A 
ATOM     30 CL   UNL     1      46.433   2.828   6.166  0.00  0.00    +0.000 Cl
ATOM     31  C   UNL     1      45.089   2.470   8.490  0.00  0.00    +0.000 A 
ATOM     32  N   UNL     1      44.596   2.825   9.700  0.00  0.00    +0.000 NA
ATOM     33  H   UNL     1      43.613   3.758  11.562  0.00  0.00    +0.000 HD
ENDBRANCH  24  25
ENDBRANCH  23  24
ENDBRANCH   4  23
TORSDOF 7
ENDMDL
MODEL 8
REMARK VINA RESULT:    -5.325      3.123      3.910
REMARK INTER + INTRA:          -8.777
REMARK INTER:                  -7.523
REMARK INTRA:                  -1.254
REMARK UNBOUND:                -1.273
REMARK  Name = 
REMARK  8 active torsions:
REMARK  status: ('A' for Active; 'I' for Inactive)
REMARK    1  A    between atoms: C_1  and  O_2
REMARK    2  A    between atoms: O_2  and  C_3
REMARK    3  A    between atoms: C_10  and  C_11
REMARK    4  A    between atoms: N_13  and  C_14
REMARK    5  A    between atoms: C_14  and  C_15
REMARK    6  A    between atoms: C_18  and  C_19
REMARK    7  A    between atoms: C_19  and  C_20
REMARK    8  A    between atoms: C_20  and  N_21
REMARK                            x       y       z     vdW  Elec       q    Type
REMARK                         _______ _______ _______ _____ _____    ______ ____
ROOT
ATOM      1  C   UNL     1      49.402   9.793  12.359  0.00  0.00    +0.000 A 
ATOM      2  C   UNL     1      48.582  10.920  12.477  0.00  0.00    +0.000 A 
ATOM      3  C   UNL     1      47.192  10.807  12.381  0.00  0.00    +0.000 A 
ATOM      4  C   UNL     1      46.580   9.563  12.177  0.00  0.00    +0.000 A 
ATOM      5  C   UNL     1      47.408   8.438  12.035  0.00  0.00    +0.000 A 
ATOM      6  C   UNL     1      48.801   8.549  12.130  0.00  0.00    +0.000 A 
ENDROOT
BRANCH   1   7
ATOM      7  C   UNL     1      50.890   9.915  12.543  0.00  0.00    +0.000 C 
BRANCH   7  10
ATOM      8  C   UNL     1      52.318   9.085  14.360  0.00  0.00    +0.000 C 
ATOM      9  O   UNL     1      52.756  10.218  14.555  0.00  0.00    +0.000 OA
ATOM     10  N   UNL     1      51.397   8.849  13.375  0.00  0.00    +0.000 N 
ATOM     11  H   UNL     1      51.029   7.918  13.231  0.00  0.00    +0.000 HD
BRANCH   8  19
ATOM     12  C   UNL     1      50.669   6.596  16.094  0.00  0.00    +0.000 A 
ATOM     13  N   UNL     1      50.295   5.568  16.882  0.00  0.00    +0.000 NA
ATOM     14  C   UNL     1      51.252   4.843  17.468  0.00  0.00    +0.000 A 
ATOM     15  N   UNL     1      52.564   5.015  17.356  0.00  0.00    +0.000 NA
ATOM     16  C   UNL     1      52.894   6.058  16.575  0.00  0.00    +0.000 A 
ATOM     17  S   UNL     1      54.532   6.419  16.314  0.00  0.00    +0.000 S 
ATOM     18  C   UNL     1      54.132   7.745  15.332  0.00  0.00    +0.000 A 
ATOM     19  C   UNL     1      52.764   7.946  15.181  0.00  0.00    +0.000 A 
ATOM     20  C   UNL     1      52.025   6.920  15.912  0.00  0.00    +0.000 A 
BRANCH  12  22
ATOM     21  C   UNL     1      48.523   6.557  15.184  0.00  0.00    +0.000 C 
ATOM     22  O   UNL     1      49.677   7.340  15.487  0.00  0.00    +0.000 OA
ENDBRANCH  12  22
ENDBRANCH   8  19
ENDBRANCH   7  10
ENDBRANCH   1   7
BRANCH   4  23
ATOM     23  C   UNL     1      45.074   9.373  12.120  0.00  0.00    +0.000 C 
BRANCH  23  24
ATOM     24  C   UNL     1      44.581   8.206  11.253  0.00  0.00    +0.000 C 
BRANCH  24  25
ATOM     25  N   UNL     1      44.174   7.071  12.071  0.00  0.00    +0.000 N 
ATOM     26  C   UNL     1      44.252   5.854  11.402  0.00  0.00    +0.000 A 
ATOM     27  N   UNL     1      45.178   5.663  10.447  0.00  0.00    +0.000 NA
ATOM     28  C   UNL     1      45.201   4.460   9.834  0.00  0.00    +0.000 A 
ATOM     29  C   UNL     1      44.333   3.441  10.138  0.00  0.00    +0.000 A 
ATOM     30 CL   UNL     1      44.387   1.928   9.349  0.00  0.00    +0.000 Cl
ATOM     31  C   UNL     1      43.419   3.733  11.120  0.00  0.00    +0.000 A 
ATOM     32  N   UNL     1      43.352   4.925  11.759  0.00  0.00    +0.000 NA
ATOM     33  H   UNL     1      43.241   7.114  12.467  0.00  0.00    +0.000 HD
ENDBRANCH  24  25
ENDBRANCH  23  24
ENDBRANCH   4  23
TORSDOF 7
ENDMDL
MODEL 9
REMARK VINA RESULT:    -4.957     10.672     12.499
REMARK INTER + INTRA:          -8.258
REMARK INTER:                  -7.040
REMARK INTRA:                  -1.219
REMARK UNBOUND:                -1.273
REMARK  Name = 
REMARK  8 active torsions:
REMARK  status: ('A' for Active; 'I' for Inactive)
REMARK    1  A    between atoms: C_1  and  O_2
REMARK    2  A    between atoms: O_2  and  C_3
REMARK    3  A    between atoms: C_10  and  C_11
REMARK    4  A    between atoms: N_13  and  C_14
REMARK    5  A    between atoms: C_14  and  C_15
REMARK    6  A    between atoms: C_18  and  C_19
REMARK    7  A    between atoms: C_19  and  C_20
REMARK    8  A    between atoms: C_20  and  N_21
REMARK                            x       y       z     vdW  Elec       q    Type
REMARK                         _______ _______ _______ _____ _____    ______ ____
ROOT
ATOM      1  C   UNL     1      38.380  -1.534  11.585  0.00  0.00    +0.000 A 
ATOM      2  C   UNL     1      38.037  -0.304  11.014  0.00  0.00    +0.000 A 
ATOM      3  C   UNL     1      37.106   0.537  11.632  0.00  0.00    +0.000 A 
ATOM      4  C   UNL     1      36.501   0.178  12.844  0.00  0.00    +0.000 A 
ATOM      5  C   UNL     1      36.831  -1.067  13.401  0.00  0.00    +0.000 A 
ATOM      6  C   UNL     1      37.762  -1.912  12.784  0.00  0.00    +0.000 A 
ENDROOT
BRANCH   1   7
ATOM      7  C   UNL     1      39.441  -2.394  10.952  0.00  0.00    +0.000 C 
BRANCH   7  10
ATOM      8  C   UNL     1      41.059  -3.254  12.586  0.00  0.00    +0.000 C 
ATOM      9  O   UNL     1      41.755  -2.249  12.451  0.00  0.00    +0.000 OA
ATOM     10  N   UNL     1      39.901  -3.407  11.873  0.00  0.00    +0.000 N 
ATOM     11  H   UNL     1      39.326  -4.228  12.001  0.00  0.00    +0.000 HD
BRANCH   8  19
ATOM     12  C   UNL     1      41.266  -3.461  16.027  0.00  0.00    +0.000 A 
ATOM     13  N   UNL     1      41.484  -3.800  17.314  0.00  0.00    +0.000 NA
ATOM     14  C   UNL     1      41.934  -5.030  17.574  0.00  0.00    +0.000 A 
ATOM     15  N   UNL     1      42.192  -5.988  16.690  0.00  0.00    +0.000 NA
ATOM     16  C   UNL     1      41.977  -5.606  15.420  0.00  0.00    +0.000 A 
ATOM     17  S   UNL     1      42.248  -6.709  14.160  0.00  0.00    +0.000 S 
ATOM     18  C   UNL     1      41.803  -5.558  12.993  0.00  0.00    +0.000 A 
ATOM     19  C   UNL     1      41.444  -4.324  13.523  0.00  0.00    +0.000 A 
ATOM     20  C   UNL     1      41.531  -4.362  14.981  0.00  0.00    +0.000 A 
BRANCH  12  22
ATOM     21  C   UNL     1      40.018  -1.668  16.839  0.00  0.00    +0.000 C 
ATOM     22  O   UNL     1      40.796  -2.190  15.763  0.00  0.00    +0.000 OA
ENDBRANCH  12  22
ENDBRANCH   8  19
ENDBRANCH   7  10
ENDBRANCH   1   7
BRANCH   4  23
ATOM     23  C   UNL     1      35.526   1.075  13.588  0.00  0.00    +0.000 C 
BRANCH  23  24
ATOM     24  C   UNL     1      35.890   1.392  15.046  0.00  0.00    +0.000 C 
BRANCH  24  25
ATOM     25  N   UNL     1      37.005   2.326  15.124  0.00  0.00    +0.000 N 
ATOM     26  C   UNL     1      37.583   2.387  16.389  0.00  0.00    +0.000 A 
ATOM     27  N   UNL     1      37.588   1.306  17.186  0.00  0.00    +0.000 NA
ATOM     28  C   UNL     1      38.163   1.432  18.401  0.00  0.00    +0.000 A 
ATOM     29  C   UNL     1      38.731   2.597  18.851  0.00  0.00    +0.000 A 
ATOM     30 CL   UNL     1      39.454   2.726  20.393  0.00  0.00    +0.000 Cl
ATOM     31  C   UNL     1      38.670   3.648  17.969  0.00  0.00    +0.000 A 
ATOM     32  N   UNL     1      38.099   3.573  16.744  0.00  0.00    +0.000 NA
ATOM     33  H   UNL     1      36.808   3.285  14.859  0.00  0.00    +0.000 HD
ENDBRANCH  24  25
ENDBRANCH  23  24
ENDBRANCH   4  23
TORSDOF 7
ENDMDL
