MODEL 1
REMARK VINA RESULT:    -7.561      0.000      0.000
REMARK INTER + INTRA:          -9.579
REMARK INTER:                  -9.108
REMARK INTRA:                  -0.471
REMARK UNBOUND:                -0.471
REMARK  Name = 
REMARK  4 active torsions:
REMARK  status: ('A' for Active; 'I' for Inactive)
REMARK    1  A    between atoms: N_1  and  C_2
REMARK    2  A    between atoms: C_2  and  C_3
REMARK    3  A    between atoms: C_8  and  C_9
REMARK    4  A    between atoms: C_9  and  N_10
REMARK                            x       y       z     vdW  Elec       q    Type
REMARK                         _______ _______ _______ _____ _____    ______ ____
ROOT
ATOM      1  C   UNL     1      43.931   4.976  11.932  0.00  0.00    +0.000 A 
ATOM      2  C   UNL     1      44.448   5.507  13.141  0.00  0.00    +0.000 A 
ATOM      3  C   UNL     1      45.587   4.990  13.753  0.00  0.00    +0.000 A 
ATOM      4  C   UNL     1      46.228   3.904  13.188  0.00  0.00    +0.000 A 
ATOM      5  C   UNL     1      45.747   3.370  11.996  0.00  0.00    +0.000 A 
ATOM      6  C   UNL     1      44.606   3.894  11.326  0.00  0.00    +0.000 A 
ENDROOT
BRANCH   1   7
ATOM      7  C   UNL     1      42.629   5.594  11.470  0.00  0.00    +0.000 C 
BRANCH   7   8
ATOM      8  N   UNL     1      42.817   6.980  11.060  0.00  0.00    +0.000 NA
ATOM      9  H   UNL     1      42.137   7.204  10.334  0.00  0.00    +0.000 HD
ATOM     10  H   UNL     1      42.618   7.604  11.839  0.00  0.00    +0.000 HD
ENDBRANCH   7   8
ENDBRANCH   1   7
BRANCH   6  11
ATOM     11  C   UNL     1      44.314   3.167  10.027  0.00  0.00    +0.000 C 
BRANCH  11  12
ATOM     12  N   UNL     1      45.161   3.393   8.867  0.00  0.00    +0.000 N 
ATOM     13  C   UNL     1      45.549   4.627   8.417  0.00  0.00    +0.000 A 
ATOM     14  N   UNL     1      46.495   4.533   7.513  0.00  0.00    +0.000 NA
ATOM     15  C   UNL     1      46.751   3.187   7.389  0.00  0.00    +0.000 A 
ATOM     16  C   UNL     1      47.695   2.515   6.605  0.00  0.00    +0.000 A 
ATOM     17  N   UNL     1      47.770   1.155   6.645  0.00  0.00    +0.000 NA
ATOM     18  C   UNL     1      46.926   0.477   7.454  0.00  0.00    +0.000 A 
ATOM     19  C   UNL     1      45.966   1.053   8.277  0.00  0.00    +0.000 A 
ATOM     20  C   UNL     1      45.916   2.448   8.221  0.00  0.00    +0.000 A 
ENDBRANCH  11  12
ENDBRANCH   6  11
TORSDOF 4
ENDMDL
MODEL 2
REMARK VINA RESULT:    -7.077      1.690      2.413
REMARK INTER + INTRA:          -8.995
REMARK INTER:                  -8.473
REMARK INTRA:                  -0.523
REMARK UNBOUND:                -0.471
REMARK  Name = 
REMARK  4 active torsions:
REMARK  status: ('A' for Active; 'I' for Inactive)
REMARK    1  A    between atoms: N_1  and  C_2
REMARK    2  A    between atoms: C_2  and  C_3
REMARK    3  A    between atoms: C_8  and  C_9
REMARK    4  A    between atoms: C_9  and  N_10
REMARK                            x       y       z     vdW  Elec       q    Type
REMARK                         _______ _______ _______ _____ _____    ______ ____
ROOT
ATOM      1  C   UNL     1      44.227   4.888  11.756  0.00  0.00    +0.000 A 
ATOM      2  C   UNL     1      44.621   5.688  12.858  0.00  0.00    +0.000 A 
ATOM      3  C   UNL     1      45.637   6.636  12.764  0.00  0.00    +0.000 A 
ATOM      4  C   UNL     1      46.312   6.791  11.569  0.00  0.00    +0.000 A 
ATOM      5  C   UNL     1      45.938   6.025  10.468  0.00  0.00    +0.000 A 
ATOM      6  C   UNL     1      44.883   5.072  10.519  0.00  0.00    +0.000 A 
ENDROOT
BRANCH   1   7
ATOM      7  C   UNL     1      43.181   3.841  12.070  0.00  0.00    +0.000 C 
BRANCH   7   8
ATOM      8  N   UNL     1      43.792   2.615  12.569  0.00  0.00    +0.000 NA
ATOM      9  H   UNL     1      44.706   2.500  12.129  0.00  0.00    +0.000 HD
ATOM     10  H   UNL     1      43.967   2.694  13.568  0.00  0.00    +0.000 HD
ENDBRANCH   7   8
ENDBRANCH   1   7
BRANCH   6  11
ATOM     11  C   UNL     1      44.642   4.403   9.179  0.00  0.00    +0.000 C 
BRANCH  11  12
ATOM     12  N   UNL     1      45.235   3.105   8.903  0.00  0.00    +0.000 N 
ATOM     13  C   UNL     1      44.694   1.907   9.286  0.00  0.00    +0.000 A 
ATOM     14  N   UNL     1      45.300   0.898   8.704  0.00  0.00    +0.000 NA
ATOM     15  C   UNL     1      46.254   1.464   7.891  0.00  0.00    +0.000 A 
ATOM     16  C   UNL     1      47.156   0.865   7.004  0.00  0.00    +0.000 A 
ATOM     17  N   UNL     1      48.023   1.637   6.289  0.00  0.00    +0.000 NA
ATOM     18  C   UNL     1      47.988   2.979   6.448  0.00  0.00    +0.000 A 
ATOM     19  C   UNL     1      47.123   3.665   7.292  0.00  0.00    +0.000 A 
ATOM     20  C   UNL     1      46.242   2.850   8.007  0.00  0.00    +0.000 A 
ENDBRANCH  11  12
ENDBRANCH   6  11
TORSDOF 4
ENDMDL
MODEL 3
REMARK VINA RESULT:    -7.050      1.401      2.262
REMARK INTER + INTRA:          -8.964
REMARK INTER:                  -8.635
REMARK INTRA:                  -0.329
REMARK UNBOUND:                -0.471
REMARK  Name = 
REMARK  4 active torsions:
REMARK  status: ('A' for Active; 'I' for Inactive)
REMARK    1  A    between atoms: N_1  and  C_2
REMARK    2  A    between atoms: C_2  and  C_3
REMARK    3  A    between atoms: C_8  and  C_9
REMARK    4  A    between atoms: C_9  and  N_10
REMARK                            x       y       z     vdW  Elec       q    Type
REMARK                         _______ _______ _______ _____ _____    ______ ____
ROOT
ATOM      1  C   UNL     1      44.957   3.946  12.340  0.00  0.00    +0.000 A 
ATOM      2  C   UNL     1      44.493   4.888  13.292  0.00  0.00    +0.000 A 
ATOM      3  C   UNL     1      43.310   5.602  13.116  0.00  0.00    +0.000 A 
ATOM      4  C   UNL     1      42.569   5.417  11.964  0.00  0.00    +0.000 A 
ATOM      5  C   UNL     1      42.999   4.491  11.017  0.00  0.00    +0.000 A 
ATOM      6  C   UNL     1      44.183   3.720  11.180  0.00  0.00    +0.000 A 
ENDROOT
BRANCH   1   7
ATOM      7  C   UNL     1      46.311   3.344  12.646  0.00  0.00    +0.000 C 
BRANCH   7   8
ATOM      8  N   UNL     1      46.679   3.554  14.041  0.00  0.00    +0.000 NA
ATOM      9  H   UNL     1      46.239   4.413  14.373  0.00  0.00    +0.000 HD
ATOM     10  H   UNL     1      46.306   2.803  14.617  0.00  0.00    +0.000 HD
ENDBRANCH   7   8
ENDBRANCH   1   7
BRANCH   6  11
ATOM     11  C   UNL     1      44.405   2.752  10.033  0.00  0.00    +0.000 C 
BRANCH  11  12
ATOM     12  N   UNL     1      45.219   3.152   8.898  0.00  0.00    +0.000 N 
ATOM     13  C   UNL     1      45.505   4.450   8.566  0.00  0.00    +0.000 A 
ATOM     14  N   UNL     1      46.446   4.517   7.654  0.00  0.00    +0.000 NA
ATOM     15  C   UNL     1      46.804   3.213   7.402  0.00  0.00    +0.000 A 
ATOM     16  C   UNL     1      47.790   2.694   6.555  0.00  0.00    +0.000 A 
ATOM     17  N   UNL     1      47.971   1.346   6.465  0.00  0.00    +0.000 NA
ATOM     18  C   UNL     1      47.192   0.530   7.209  0.00  0.00    +0.000 A 
ATOM     19  C   UNL     1      46.198   0.949   8.086  0.00  0.00    +0.000 A 
ATOM     20  C   UNL     1      46.039   2.335   8.162  0.00  0.00    +0.000 A 
ENDBRANCH  11  12
ENDBRANCH   6  11
TORSDOF 4
ENDMDL
MODEL 4
REMARK VINA RESULT:    -6.825      2.878      5.732
REMARK INTER + INTRA:          -8.692
REMARK INTER:                  -8.123
REMARK INTRA:                  -0.569
REMARK UNBOUND:                -0.471
REMARK  Name = 
REMARK  4 active torsions:
REMARK  status: ('A' for Active; 'I' for Inactive)
REMARK    1  A    between atoms: N_1  and  C_2
REMARK    2  A    between atoms: C_2  and  C_3
REMARK    3  A    between atoms: C_8  and  C_9
REMARK    4  A    between atoms: C_9  and  N_10
REMARK                            x       y       z     vdW  Elec       q    Type
REMARK                         _______ _______ _______ _____ _____    ______ ____
ROOT
ATOM      1  C   UNL     1      44.310   3.561  10.585  0.00  0.00    +0.000 A 
ATOM      2  C   UNL     1      44.474   2.526   9.631  0.00  0.00    +0.000 A 
ATOM      3  C   UNL     1      45.213   2.699   8.463  0.00  0.00    +0.000 A 
ATOM      4  C   UNL     1      45.788   3.928   8.200  0.00  0.00    +0.000 A 
ATOM      5  C   UNL     1      45.650   4.960   9.126  0.00  0.00    +0.000 A 
ATOM      6  C   UNL     1      44.931   4.807  10.344  0.00  0.00    +0.000 A 
ENDROOT
BRANCH   1   7
ATOM      7  C   UNL     1      43.390   3.226  11.738  0.00  0.00    +0.000 C 
BRANCH   7   8
ATOM      8  N   UNL     1      42.995   1.823  11.710  0.00  0.00    +0.000 NA
ATOM      9  H   UNL     1      42.676   1.589  10.769  0.00  0.00    +0.000 HD
ATOM     10  H   UNL     1      43.802   1.230  11.891  0.00  0.00    +0.000 HD
ENDBRANCH   7   8
ENDBRANCH   1   7
BRANCH   6  11
ATOM     11  C   UNL     1      44.968   6.060  11.198  0.00  0.00    +0.000 C 
BRANCH  11  12
ATOM     12  N   UNL     1      46.175   6.396  11.935  0.00  0.00    +0.000 N 
ATOM     13  C   UNL     1      46.888   7.554  11.770  0.00  0.00    +0.000 A 
ATOM     14  N   UNL     1      47.781   7.708  12.719  0.00  0.00    +0.000 NA
ATOM     15  C   UNL     1      47.625   6.621  13.548  0.00  0.00    +0.000 A 
ATOM     16  C   UNL     1      48.278   6.294  14.742  0.00  0.00    +0.000 A 
ATOM     17  N   UNL     1      47.953   5.147  15.404  0.00  0.00    +0.000 NA
ATOM     18  C   UNL     1      46.992   4.346  14.892  0.00  0.00    +0.000 A 
ATOM     19  C   UNL     1      46.281   4.591  13.724  0.00  0.00    +0.000 A 
ATOM     20  C   UNL     1      46.630   5.775  13.070  0.00  0.00    +0.000 A 
ENDBRANCH  11  12
ENDBRANCH   6  11
TORSDOF 4
ENDMDL
MODEL 5
REMARK VINA RESULT:    -6.462      2.469      3.695
REMARK INTER + INTRA:          -8.254
REMARK INTER:                  -7.814
REMARK INTRA:                  -0.441
REMARK UNBOUND:                -0.471
REMARK  Name = 
REMARK  4 active torsions:
REMARK  status: ('A' for Active; 'I' for Inactive)
REMARK    1  A    between atoms: N_1  and  C_2
REMARK    2  A    between atoms: C_2  and  C_3
REMARK    3  A    between atoms: C_8  and  C_9
REMARK    4  A    between atoms: C_9  and  N_10
REMARK                            x       y       z     vdW  Elec       q    Type
REMARK                         _______ _______ _______ _____ _____    ______ ____
ROOT
ATOM      1  C   UNL     1      45.255   8.451  11.809  0.00  0.00    +0.000 A 
ATOM      2  C   UNL     1      46.460   8.938  12.373  0.00  0.00    +0.000 A 
ATOM      3  C   UNL     1      47.342   8.115  13.070  0.00  0.00    +0.000 A 
ATOM      4  C   UNL     1      47.028   6.782  13.249  0.00  0.00    +0.000 A 
ATOM      5  C   UNL     1      45.854   6.275  12.697  0.00  0.00    +0.000 A 
ATOM      6  C   UNL     1      44.948   7.079  11.951  0.00  0.00    +0.000 A 
ENDROOT
BRANCH   1   7
ATOM      7  C   UNL     1      44.372   9.506  11.181  0.00  0.00    +0.000 C 
BRANCH   7   8
ATOM      8  N   UNL     1      43.757  10.354  12.195  0.00  0.00    +0.000 NA
ATOM      9  H   UNL     1      42.752  10.179  12.206  0.00  0.00    +0.000 HD
ATOM     10  H   UNL     1      44.100  10.098  13.118  0.00  0.00    +0.000 HD
ENDBRANCH   7   8
ENDBRANCH   1   7
BRANCH   6  11
ATOM     11  C   UNL     1      43.772   6.282  11.418  0.00  0.00    +0.000 C 
BRANCH  11  12
ATOM     12  N   UNL     1      43.920   4.858  11.165  0.00  0.00    +0.000 N 
ATOM     13  C   UNL     1      43.204   3.878  11.799  0.00  0.00    +0.000 A 
ATOM     14  N   UNL     1      43.360   2.714  11.214  0.00  0.00    +0.000 NA
ATOM     15  C   UNL     1      44.189   2.952  10.142  0.00  0.00    +0.000 A 
ATOM     16  C   UNL     1      44.650   2.083   9.146  0.00  0.00    +0.000 A 
ATOM     17  N   UNL     1      45.475   2.547   8.165  0.00  0.00    +0.000 NA
ATOM     18  C   UNL     1      45.829   3.851   8.171  0.00  0.00    +0.000 A 
ATOM     19  C   UNL     1      45.414   4.791   9.107  0.00  0.00    +0.000 A 
ATOM     20  C   UNL     1      44.565   4.290  10.096  0.00  0.00    +0.000 A 
ENDBRANCH  11  12
ENDBRANCH   6  11
TORSDOF 4
ENDMDL
MODEL 6
REMARK VINA RESULT:    -6.450      3.289      6.031
REMARK INTER + INTRA:          -8.241
REMARK INTER:                  -7.792
REMARK INTRA:                  -0.448
REMARK UNBOUND:                -0.471
REMARK  Name = 
REMARK  4 active torsions:
REMARK  status: ('A' for Active; 'I' for Inactive)
REMARK    1  A    between atoms: N_1  and  C_2
REMARK    2  A    between atoms: C_2  and  C_3
REMARK    3  A    between atoms: C_8  and  C_9
REMARK    4  A    between atoms: C_9  and  N_10
REMARK                            x       y       z     vdW  Elec       q    Type
REMARK                         _______ _______ _______ _____ _____    ______ ____
ROOT
ATOM      1  C   UNL     1      44.439   3.428  10.710  0.00  0.00    +0.000 A 
ATOM      2  C   UNL     1      44.557   2.508   9.639  0.00  0.00    +0.000 A 
ATOM      3  C   UNL     1      45.172   2.842   8.435  0.00  0.00    +0.000 A 
ATOM      4  C   UNL     1      45.660   4.122   8.254  0.00  0.00    +0.000 A 
ATOM      5  C   UNL     1      45.565   5.043   9.295  0.00  0.00    +0.000 A 
ATOM      6  C   UNL     1      44.975   4.725  10.549  0.00  0.00    +0.000 A 
ENDROOT
BRANCH   1   7
ATOM      7  C   UNL     1      43.650   2.925  11.899  0.00  0.00    +0.000 C 
BRANCH   7   8
ATOM      8  N   UNL     1      43.027   1.638  11.614  0.00  0.00    +0.000 NA
ATOM      9  H   UNL     1      42.252   1.784  10.967  0.00  0.00    +0.000 HD
ATOM     10  H   UNL     1      43.686   1.029  11.135  0.00  0.00    +0.000 HD
ENDBRANCH   7   8
ENDBRANCH   1   7
BRANCH   6  11
ATOM     11  C   UNL     1      45.036   5.884  11.527  0.00  0.00    +0.000 C 
BRANCH  11  12
ATOM     12  N   UNL     1      46.095   5.935  12.521  0.00  0.00    +0.000 N 
ATOM     13  C   UNL     1      46.450   4.890  13.332  0.00  0.00    +0.000 A 
ATOM     14  N   UNL     1      47.581   5.128  13.955  0.00  0.00    +0.000 NA
ATOM     15  C   UNL     1      47.989   6.364  13.512  0.00  0.00    +0.000 A 
ATOM     16  C   UNL     1      49.148   7.092  13.806  0.00  0.00    +0.000 A 
ATOM     17  N   UNL     1      49.346   8.316  13.239  0.00  0.00    +0.000 NA
ATOM     18  C   UNL     1      48.413   8.803  12.392  0.00  0.00    +0.000 A 
ATOM     19  C   UNL     1      47.240   8.152  12.029  0.00  0.00    +0.000 A 
ATOM     20  C   UNL     1      47.066   6.898  12.619  0.00  0.00    +0.000 A 
ENDBRANCH  11  12
ENDBRANCH   6  11
TORSDOF 4
ENDMDL
MODEL 7
REMARK VINA RESULT:    -6.423      2.471      4.162
REMARK INTER + INTRA:          -8.208
REMARK INTER:                  -7.784
REMARK INTRA:                  -0.424
REMARK UNBOUND:                -0.471
REMARK  Name = 
REMARK  4 active torsions:
REMARK  status: ('A' for Active; 'I' for Inactive)
REMARK    1  A    between atoms: N_1  and  C_2
REMARK    2  A    between atoms: C_2  and  C_3
REMARK    3  A    between atoms: C_8  and  C_9
REMARK    4  A    between atoms: C_9  and  N_10
REMARK                            x       y       z     vdW  Elec       q    Type
REMARK                         _______ _______ _______ _____ _____    ______ ____
ROOT
ATOM      1  C   UNL     1      46.674   5.550  13.551  0.00  0.00    +0.000 A 
ATOM      2  C   UNL     1      47.792   6.295  14.003  0.00  0.00    +0.000 A 
ATOM      3  C   UNL     1      47.854   7.683  13.897  0.00  0.00    +0.000 A 
ATOM      4  C   UNL     1      46.807   8.366  13.307  0.00  0.00    +0.000 A 
ATOM      5  C   UNL     1      45.692   7.659  12.864  0.00  0.00    +0.000 A 
ATOM      6  C   UNL     1      45.582   6.246  12.986  0.00  0.00    +0.000 A 
ENDROOT
BRANCH   1   7
ATOM      7  C   UNL     1      46.827   4.048  13.650  0.00  0.00    +0.000 C 
BRANCH   7   8
ATOM      8  N   UNL     1      47.465   3.663  14.903  0.00  0.00    +0.000 NA
ATOM      9  H   UNL     1      47.218   4.343  15.622  0.00  0.00    +0.000 HD
ATOM     10  H   UNL     1      47.099   2.768  15.220  0.00  0.00    +0.000 HD
ENDBRANCH   7   8
ENDBRANCH   1   7
BRANCH   6  11
ATOM     11  C   UNL     1      44.254   5.723  12.471  0.00  0.00    +0.000 C 
BRANCH  11  12
ATOM     12  N   UNL     1      44.208   4.471  11.735  0.00  0.00    +0.000 N 
ATOM     13  C   UNL     1      43.419   3.402  12.070  0.00  0.00    +0.000 A 
ATOM     14  N   UNL     1      43.391   2.506  11.111  0.00  0.00    +0.000 NA
ATOM     15  C   UNL     1      44.171   3.025  10.103  0.00  0.00    +0.000 A 
ATOM     16  C   UNL     1      44.454   2.520   8.829  0.00  0.00    +0.000 A 
ATOM     17  N   UNL     1      45.265   3.218   7.984  0.00  0.00    +0.000 NA
ATOM     18  C   UNL     1      45.777   4.399   8.396  0.00  0.00    +0.000 A 
ATOM     19  C   UNL     1      45.544   4.988   9.633  0.00  0.00    +0.000 A 
ATOM     20  C   UNL     1      44.706   4.254  10.476  0.00  0.00    +0.000 A 
ENDBRANCH  11  12
ENDBRANCH   6  11
TORSDOF 4
ENDMDL
MODEL 8
REMARK VINA RESULT:    -5.675      4.005      6.003
REMARK INTER + INTRA:          -7.307
REMARK INTER:                  -6.819
REMARK INTRA:                  -0.489
REMARK UNBOUND:                -0.471
REMARK  Name = 
REMARK  4 active torsions:
REMARK  status: ('A' for Active; 'I' for Inactive)
REMARK    1  A    between atoms: N_1  and  C_2
REMARK    2  A    between atoms: C_2  and  C_3
REMARK    3  A    between atoms: C_8  and  C_9
REMARK    4  A    between atoms: C_9  and  N_10
REMARK                            x       y       z     vdW  Elec       q    Type
REMARK                         _______ _______ _______ _____ _____    ______ ____
ROOT
ATOM      1  C   UNL     1      49.000   7.446  14.133  0.00  0.00    +0.000 A 
ATOM      2  C   UNL     1      50.296   7.907  13.792  0.00  0.00    +0.000 A 
ATOM      3  C   UNL     1      50.672   8.167  12.476  0.00  0.00    +0.000 A 
ATOM      4  C   UNL     1      49.767   7.945  11.455  0.00  0.00    +0.000 A 
ATOM      5  C   UNL     1      48.483   7.502  11.764  0.00  0.00    +0.000 A 
ATOM      6  C   UNL     1      48.056   7.259  13.098  0.00  0.00    +0.000 A 
ENDROOT
BRANCH   1   7
ATOM      7  C   UNL     1      48.804   7.117  15.596  0.00  0.00    +0.000 C 
BRANCH   7   8
ATOM      8  N   UNL     1      49.123   5.721  15.872  0.00  0.00    +0.000 NA
ATOM      9  H   UNL     1      49.494   5.649  16.819  0.00  0.00    +0.000 HD
ATOM     10  H   UNL     1      48.275   5.160  15.855  0.00  0.00    +0.000 HD
ENDBRANCH   7   8
ENDBRANCH   1   7
BRANCH   6  11
ATOM     11  C   UNL     1      46.603   6.829  13.171  0.00  0.00    +0.000 C 
BRANCH  11  12
ATOM     12  N   UNL     1      46.244   5.448  12.893  0.00  0.00    +0.000 N 
ATOM     13  C   UNL     1      46.770   4.363  13.541  0.00  0.00    +0.000 A 
ATOM     14  N   UNL     1      46.101   3.268  13.267  0.00  0.00    +0.000 NA
ATOM     15  C   UNL     1      45.085   3.661  12.428  0.00  0.00    +0.000 A 
ATOM     16  C   UNL     1      44.042   2.918  11.862  0.00  0.00    +0.000 A 
ATOM     17  N   UNL     1      43.134   3.528  11.048  0.00  0.00    +0.000 NA
ATOM     18  C   UNL     1      43.257   4.853  10.808  0.00  0.00    +0.000 A 
ATOM     19  C   UNL     1      44.247   5.675  11.332  0.00  0.00    +0.000 A 
ATOM     20  C   UNL     1      45.160   5.025  12.167  0.00  0.00    +0.000 A 
ENDBRANCH  11  12
ENDBRANCH   6  11
TORSDOF 4
ENDMDL
MODEL 9
REMARK VINA RESULT:    -5.560      3.539      6.086
REMARK INTER + INTRA:          -7.169
REMARK INTER:                  -6.683
REMARK INTRA:                  -0.485
REMARK UNBOUND:                -0.471
REMARK  Name = 
REMARK  4 active torsions:
REMARK  status: ('A' for Active; 'I' for Inactive)
REMARK    1  A    between atoms: N_1  and  C_2
REMARK    2  A    between atoms: C_2  and  C_3
REMARK    3  A    between atoms: C_8  and  C_9
REMARK    4  A    between atoms: C_9  and  N_10
REMARK                            x       y       z     vdW  Elec       q    Type
REMARK                         _______ _______ _______ _____ _____    ______ ____
ROOT
ATOM      1  C   UNL     1      44.958   4.764  10.718  0.00  0.00    +0.000 A 
ATOM      2  C   UNL     1      44.441   3.559  10.180  0.00  0.00    +0.000 A 
ATOM      3  C   UNL     1      43.716   2.651  10.949  0.00  0.00    +0.000 A 
ATOM      4  C   UNL     1      43.511   2.909  12.291  0.00  0.00    +0.000 A 
ATOM      5  C   UNL     1      44.000   4.092  12.842  0.00  0.00    +0.000 A 
ATOM      6  C   UNL     1      44.715   5.056  12.079  0.00  0.00    +0.000 A 
ENDROOT
BRANCH   1   7
ATOM      7  C   UNL     1      45.807   5.575   9.764  0.00  0.00    +0.000 C 
BRANCH   7   8
ATOM      8  N   UNL     1      45.738   5.042   8.409  0.00  0.00    +0.000 NA
ATOM      9  H   UNL     1      46.523   5.409   7.870  0.00  0.00    +0.000 HD
ATOM     10  H   UNL     1      45.852   4.032   8.426  0.00  0.00    +0.000 HD
ENDBRANCH   7   8
ENDBRANCH   1   7
BRANCH   6  11
ATOM     11  C   UNL     1      45.097   6.274  12.898  0.00  0.00    +0.000 C 
BRANCH  11  12
ATOM     12  N   UNL     1      46.498   6.624  13.061  0.00  0.00    +0.000 N 
ATOM     13  C   UNL     1      47.493   5.729  13.357  0.00  0.00    +0.000 A 
ATOM     14  N   UNL     1      48.681   6.266  13.208  0.00  0.00    +0.000 NA
ATOM     15  C   UNL     1      48.451   7.550  12.773  0.00  0.00    +0.000 A 
ATOM     16  C   UNL     1      49.353   8.557  12.410  0.00  0.00    +0.000 A 
ATOM     17  N   UNL     1      48.890   9.772  12.002  0.00  0.00    +0.000 NA
ATOM     18  C   UNL     1      47.556   9.980  11.949  0.00  0.00    +0.000 A 
ATOM     19  C   UNL     1      46.584   9.042  12.276  0.00  0.00    +0.000 A 
ATOM     20  C   UNL     1      47.086   7.804  12.685  0.00  0.00    +0.000 A 
ENDBRANCH  11  12
ENDBRANCH   6  11
TORSDOF 4
ENDMDL
