MODEL 1
REMARK VINA RESULT:    -8.791      0.000      0.000
REMARK INTER + INTRA:         -12.217
REMARK INTER:                 -11.361
REMARK INTRA:                  -0.856
REMARK UNBOUND:                -0.856
REMARK  Name = 
REMARK  5 active torsions:
REMARK  status: ('A' for Active; 'I' for Inactive)
REMARK    1  A    between atoms: C_2  and  C_4
REMARK    2  A    between atoms: C_7  and  C_8
REMARK    3  A    between atoms: C_8  and  N_9
REMARK    4  A    between atoms: N_9  and  C_10
REMARK    5  A    between atoms: C_12  and  C_13
REMARK                            x       y       z     vdW  Elec       q    Type
REMARK                         _______ _______ _______ _____ _____    ______ ____
ROOT
ATOM      1  N   UNL     1      44.066   5.600  11.011  0.00  0.00    +0.000 N 
ATOM      2  H   UNL     1      43.367   6.266  11.328  0.00  0.00    +0.000 HD
ENDROOT
BRANCH   1   3
ATOM      3  C   UNL     1      45.267   5.645  11.708  0.00  0.00    +0.000 A 
ATOM      4  C   UNL     1      46.294   6.552  11.416  0.00  0.00    +0.000 A 
ATOM      5  C   UNL     1      47.438   6.704  12.229  0.00  0.00    +0.000 A 
ATOM      6  C   UNL     1      47.546   5.874  13.358  0.00  0.00    +0.000 A 
ATOM      7  C   UNL     1      46.556   4.940  13.661  0.00  0.00    +0.000 A 
ATOM      8  C   UNL     1      45.432   4.844  12.848  0.00  0.00    +0.000 A 
ATOM      9  F   UNL     1      44.476   3.961  13.177  0.00  0.00    +0.000 F 
BRANCH   5  10
ATOM     10  C   UNL     1      48.460   7.731  11.922  0.00  0.00    +0.000 A 
ATOM     11  C   UNL     1      48.117   9.086  11.792  0.00  0.00    +0.000 A 
ATOM     12  C   UNL     1      49.104  10.020  11.523  0.00  0.00    +0.000 A 
ATOM     13  N   UNL     1      50.407   9.713  11.380  0.00  0.00    +0.000 NA
ATOM     14  C   UNL     1      50.731   8.411  11.507  0.00  0.00    +0.000 A 
ATOM     15  C   UNL     1      49.812   7.404  11.765  0.00  0.00    +0.000 A 
ENDBRANCH   5  10
ENDBRANCH   1   3
BRANCH   1  16
ATOM     16  C   UNL     1      43.561   4.442  10.297  0.00  0.00    +0.000 C 
BRANCH  16  20
ATOM     17  C   UNL     1      46.438   2.461   7.739  0.00  0.00    +0.000 A 
ATOM     18  C   UNL     1      46.249   3.839   7.615  0.00  0.00    +0.000 A 
ATOM     19  C   UNL     1      45.324   4.494   8.433  0.00  0.00    +0.000 A 
ATOM     20  C   UNL     1      44.572   3.787   9.382  0.00  0.00    +0.000 A 
ATOM     21  C   UNL     1      44.768   2.399   9.490  0.00  0.00    +0.000 A 
ATOM     22  C   UNL     1      45.689   1.739   8.673  0.00  0.00    +0.000 A 
BRANCH  17  24
ATOM     23  N   UNL     1      48.516   2.405   6.470  0.00  0.00    +0.000 N 
ATOM     24  C   UNL     1      47.398   1.727   6.872  0.00  0.00    +0.000 C 
ATOM     25  O   UNL     1      47.215   0.561   6.558  0.00  0.00    +0.000 OA
ATOM     26  H   UNL     1      49.204   1.868   5.959  0.00  0.00    +0.000 HD
ATOM     27  H   UNL     1      48.816   3.265   6.905  0.00  0.00    +0.000 HD
ENDBRANCH  17  24
ENDBRANCH  16  20
ENDBRANCH   1  16
TORSDOF 5
ENDMDL
MODEL 2
REMARK VINA RESULT:    -8.358      1.787      2.182
REMARK INTER + INTRA:         -11.658
REMARK INTER:                 -10.769
REMARK INTRA:                  -0.889
REMARK UNBOUND:                -0.856
REMARK  Name = 
REMARK  5 active torsions:
REMARK  status: ('A' for Active; 'I' for Inactive)
REMARK    1  A    between atoms: C_2  and  C_4
REMARK    2  A    between atoms: C_7  and  C_8
REMARK    3  A    between atoms: C_8  and  N_9
REMARK    4  A    between atoms: N_9  and  C_10
REMARK    5  A    between atoms: C_12  and  C_13
REMARK                            x       y       z     vdW  Elec       q    Type
REMARK                         _______ _______ _______ _____ _____    ______ ____
ROOT
ATOM      1  N   UNL     1      44.156   4.038  11.939  0.00  0.00    +0.000 N 
ATOM      2  H   UNL     1      44.054   3.266  12.591  0.00  0.00    +0.000 HD
ENDROOT
BRANCH   1   3
ATOM      3  C   UNL     1      45.204   4.904  12.228  0.00  0.00    +0.000 A 
ATOM      4  C   UNL     1      45.169   6.275  11.945  0.00  0.00    +0.000 A 
ATOM      5  C   UNL     1      46.164   7.175  12.389  0.00  0.00    +0.000 A 
ATOM      6  C   UNL     1      47.243   6.643  13.115  0.00  0.00    +0.000 A 
ATOM      7  C   UNL     1      47.322   5.278  13.388  0.00  0.00    +0.000 A 
ATOM      8  C   UNL     1      46.306   4.432  12.956  0.00  0.00    +0.000 A 
ATOM      9  F   UNL     1      46.387   3.127  13.260  0.00  0.00    +0.000 F 
BRANCH   5  10
ATOM     10  C   UNL     1      46.044   8.629  12.131  0.00  0.00    +0.000 A 
ATOM     11  C   UNL     1      44.830   9.200  11.717  0.00  0.00    +0.000 A 
ATOM     12  C   UNL     1      44.753  10.566  11.505  0.00  0.00    +0.000 A 
ATOM     13  N   UNL     1      45.786  11.411  11.680  0.00  0.00    +0.000 NA
ATOM     14  C   UNL     1      46.949  10.859  12.078  0.00  0.00    +0.000 A 
ATOM     15  C   UNL     1      47.125   9.501  12.306  0.00  0.00    +0.000 A 
ENDBRANCH   5  10
ENDBRANCH   1   3
BRANCH   1  16
ATOM     16  C   UNL     1      43.581   3.837  10.623  0.00  0.00    +0.000 C 
BRANCH  16  20
ATOM     17  C   UNL     1      46.470   2.730   7.594  0.00  0.00    +0.000 A 
ATOM     18  C   UNL     1      46.136   4.076   7.759  0.00  0.00    +0.000 A 
ATOM     19  C   UNL     1      45.205   4.450   8.732  0.00  0.00    +0.000 A 
ATOM     20  C   UNL     1      44.591   3.491   9.551  0.00  0.00    +0.000 A 
ATOM     21  C   UNL     1      44.932   2.140   9.367  0.00  0.00    +0.000 A 
ATOM     22  C   UNL     1      45.860   1.760   8.394  0.00  0.00    +0.000 A 
BRANCH  17  24
ATOM     23  N   UNL     1      47.390   2.935   5.349  0.00  0.00    +0.000 N 
ATOM     24  C   UNL     1      47.441   2.292   6.555  0.00  0.00    +0.000 C 
ATOM     25  O   UNL     1      48.268   1.422   6.777  0.00  0.00    +0.000 OA
ATOM     26  H   UNL     1      48.114   2.693   4.684  0.00  0.00    +0.000 HD
ATOM     27  H   UNL     1      46.901   3.807   5.217  0.00  0.00    +0.000 HD
ENDBRANCH  17  24
ENDBRANCH  16  20
ENDBRANCH   1  16
TORSDOF 5
ENDMDL
MODEL 3
REMARK VINA RESULT:    -8.133      1.504      1.971
REMARK INTER + INTRA:         -11.367
REMARK INTER:                 -10.705
REMARK INTRA:                  -0.662
REMARK UNBOUND:                -0.856
REMARK  Name = 
REMARK  5 active torsions:
REMARK  status: ('A' for Active; 'I' for Inactive)
REMARK    1  A    between atoms: C_2  and  C_4
REMARK    2  A    between atoms: C_7  and  C_8
REMARK    3  A    between atoms: C_8  and  N_9
REMARK    4  A    between atoms: N_9  and  C_10
REMARK    5  A    between atoms: C_12  and  C_13
REMARK                            x       y       z     vdW  Elec       q    Type
REMARK                         _______ _______ _______ _____ _____    ______ ____
ROOT
ATOM      1  N   UNL     1      44.314   3.858  11.816  0.00  0.00    +0.000 N 
ATOM      2  H   UNL     1      44.772   3.212  12.452  0.00  0.00    +0.000 HD
ENDROOT
BRANCH   1   3
ATOM      3  C   UNL     1      44.718   5.181  11.942  0.00  0.00    +0.000 A 
ATOM      4  C   UNL     1      46.011   5.558  12.326  0.00  0.00    +0.000 A 
ATOM      5  C   UNL     1      46.462   6.895  12.293  0.00  0.00    +0.000 A 
ATOM      6  C   UNL     1      45.545   7.879  11.885  0.00  0.00    +0.000 A 
ATOM      7  C   UNL     1      44.241   7.541  11.525  0.00  0.00    +0.000 A 
ATOM      8  C   UNL     1      43.848   6.208  11.546  0.00  0.00    +0.000 A 
ATOM      9  F   UNL     1      42.599   5.902  11.163  0.00  0.00    +0.000 F 
BRANCH   5  10
ATOM     10  C   UNL     1      47.864   7.235  12.634  0.00  0.00    +0.000 A 
ATOM     11  C   UNL     1      48.733   7.791  11.682  0.00  0.00    +0.000 A 
ATOM     12  C   UNL     1      50.030   8.113  12.045  0.00  0.00    +0.000 A 
ATOM     13  N   UNL     1      50.529   7.933  13.282  0.00  0.00    +0.000 NA
ATOM     14  C   UNL     1      49.691   7.400  14.193  0.00  0.00    +0.000 A 
ATOM     15  C   UNL     1      48.379   7.037  13.921  0.00  0.00    +0.000 A 
ENDBRANCH   5  10
ENDBRANCH   1   3
BRANCH   1  16
ATOM     16  C   UNL     1      43.750   3.271  10.614  0.00  0.00    +0.000 C 
BRANCH  16  20
ATOM     17  C   UNL     1      46.593   2.655   7.407  0.00  0.00    +0.000 A 
ATOM     18  C   UNL     1      46.195   3.956   7.727  0.00  0.00    +0.000 A 
ATOM     19  C   UNL     1      45.279   4.172   8.759  0.00  0.00    +0.000 A 
ATOM     20  C   UNL     1      44.741   3.098   9.485  0.00  0.00    +0.000 A 
ATOM     21  C   UNL     1      45.145   1.795   9.145  0.00  0.00    +0.000 A 
ATOM     22  C   UNL     1      46.059   1.573   8.112  0.00  0.00    +0.000 A 
BRANCH  17  24
ATOM     23  N   UNL     1      47.320   3.020   5.112  0.00  0.00    +0.000 N 
ATOM     24  C   UNL     1      47.550   2.385   6.301  0.00  0.00    +0.000 C 
ATOM     25  O   UNL     1      48.517   1.656   6.455  0.00  0.00    +0.000 OA
ATOM     26  H   UNL     1      48.028   2.902   4.399  0.00  0.00    +0.000 HD
ATOM     27  H   UNL     1      46.691   3.804   5.027  0.00  0.00    +0.000 HD
ENDBRANCH  17  24
ENDBRANCH  16  20
ENDBRANCH   1  16
TORSDOF 5
ENDMDL
MODEL 4
REMARK VINA RESULT:    -7.748      3.115      6.856
REMARK INTER + INTRA:         -10.869
REMARK INTER:                 -10.232
REMARK INTRA:                  -0.637
REMARK UNBOUND:                -0.856
REMARK  Name = 
REMARK  5 active torsions:
REMARK  status: ('A' for Active; 'I' for Inactive)
REMARK    1  A    between atoms: C_2  and  C_4
REMARK    2  A    between atoms: C_7  and  C_8
REMARK    3  A    between atoms: C_8  and  N_9
REMARK    4  A    between atoms: N_9  and  C_10
REMARK    5  A    between atoms: C_12  and  C_13
REMARK                            x       y       z     vdW  Elec       q    Type
REMARK                         _______ _______ _______ _____ _____    ______ ____
ROOT
ATOM      1  N   UNL     1      43.796   6.568  11.132  0.00  0.00    +0.000 N 
ATOM      2  H   UNL     1      42.876   6.987  11.027  0.00  0.00    +0.000 HD
ENDROOT
BRANCH   1   3
ATOM      3  C   UNL     1      43.856   5.216  10.819  0.00  0.00    +0.000 A 
ATOM      4  C   UNL     1      44.578   4.708   9.732  0.00  0.00    +0.000 A 
ATOM      5  C   UNL     1      44.770   3.326   9.517  0.00  0.00    +0.000 A 
ATOM      6  C   UNL     1      44.173   2.439  10.429  0.00  0.00    +0.000 A 
ATOM      7  C   UNL     1      43.422   2.911  11.504  0.00  0.00    +0.000 A 
ATOM      8  C   UNL     1      43.282   4.281  11.694  0.00  0.00    +0.000 A 
ATOM      9  F   UNL     1      42.584   4.713  12.756  0.00  0.00    +0.000 F 
BRANCH   5  10
ATOM     10  C   UNL     1      45.607   2.839   8.396  0.00  0.00    +0.000 A 
ATOM     11  C   UNL     1      45.957   3.679   7.328  0.00  0.00    +0.000 A 
ATOM     12  C   UNL     1      46.758   3.192   6.307  0.00  0.00    +0.000 A 
ATOM     13  N   UNL     1      47.244   1.938   6.270  0.00  0.00    +0.000 NA
ATOM     14  C   UNL     1      46.906   1.135   7.298  0.00  0.00    +0.000 A 
ATOM     15  C   UNL     1      46.103   1.529   8.359  0.00  0.00    +0.000 A 
ENDBRANCH   5  10
ENDBRANCH   1   3
BRANCH   1  16
ATOM     16  C   UNL     1      44.919   7.486  11.080  0.00  0.00    +0.000 C 
BRANCH  16  20
ATOM     17  C   UNL     1      47.927   6.908  14.141  0.00  0.00    +0.000 A 
ATOM     18  C   UNL     1      47.516   5.816  13.373  0.00  0.00    +0.000 A 
ATOM     19  C   UNL     1      46.547   5.986  12.381  0.00  0.00    +0.000 A 
ATOM     20  C   UNL     1      45.969   7.241  12.142  0.00  0.00    +0.000 A 
ATOM     21  C   UNL     1      46.387   8.328  12.929  0.00  0.00    +0.000 A 
ATOM     22  C   UNL     1      47.354   8.164  13.924  0.00  0.00    +0.000 A 
BRANCH  17  24
ATOM     23  N   UNL     1      48.483   6.417  16.460  0.00  0.00    +0.000 N 
ATOM     24  C   UNL     1      48.941   6.762  15.219  0.00  0.00    +0.000 C 
ATOM     25  O   UNL     1      50.134   6.910  15.001  0.00  0.00    +0.000 OA
ATOM     26  H   UNL     1      49.188   6.230  17.161  0.00  0.00    +0.000 HD
ATOM     27  H   UNL     1      47.555   6.050  16.615  0.00  0.00    +0.000 HD
ENDBRANCH  17  24
ENDBRANCH  16  20
ENDBRANCH   1  16
TORSDOF 5
ENDMDL
MODEL 5
REMARK VINA RESULT:    -7.726      2.625      6.688
REMARK INTER + INTRA:         -10.841
REMARK INTER:                 -10.056
REMARK INTRA:                  -0.785
REMARK UNBOUND:                -0.856
REMARK  Name = 
REMARK  5 active torsions:
REMARK  status: ('A' for Active; 'I' for Inactive)
REMARK    1  A    between atoms: C_2  and  C_4
REMARK    2  A    between atoms: C_7  and  C_8
REMARK    3  A    between atoms: C_8  and  N_9
REMARK    4  A    between atoms: N_9  and  C_10
REMARK    5  A    between atoms: C_12  and  C_13
REMARK                            x       y       z     vdW  Elec       q    Type
REMARK                         _______ _______ _______ _____ _____    ______ ____
ROOT
ATOM      1  N   UNL     1      44.321   6.634  11.124  0.00  0.00    +0.000 N 
ATOM      2  H   UNL     1      44.342   7.291  10.350  0.00  0.00    +0.000 HD
ENDROOT
BRANCH   1   3
ATOM      3  C   UNL     1      44.218   5.300  10.748  0.00  0.00    +0.000 A 
ATOM      4  C   UNL     1      44.961   4.734   9.706  0.00  0.00    +0.000 A 
ATOM      5  C   UNL     1      44.974   3.347   9.438  0.00  0.00    +0.000 A 
ATOM      6  C   UNL     1      44.172   2.523  10.245  0.00  0.00    +0.000 A 
ATOM      7  C   UNL     1      43.396   3.059  11.272  0.00  0.00    +0.000 A 
ATOM      8  C   UNL     1      43.435   4.427  11.519  0.00  0.00    +0.000 A 
ATOM      9  F   UNL     1      42.707   4.915  12.535  0.00  0.00    +0.000 F 
BRANCH   5  10
ATOM     10  C   UNL     1      45.837   2.786   8.372  0.00  0.00    +0.000 A 
ATOM     11  C   UNL     1      46.144   1.417   8.327  0.00  0.00    +0.000 A 
ATOM     12  C   UNL     1      46.940   0.927   7.304  0.00  0.00    +0.000 A 
ATOM     13  N   UNL     1      47.446   1.690   6.318  0.00  0.00    +0.000 NA
ATOM     14  C   UNL     1      47.148   3.003   6.365  0.00  0.00    +0.000 A 
ATOM     15  C   UNL     1      46.369   3.587   7.354  0.00  0.00    +0.000 A 
ENDBRANCH   5  10
ENDBRANCH   1   3
BRANCH   1  16
ATOM     16  C   UNL     1      44.892   7.105  12.372  0.00  0.00    +0.000 C 
BRANCH  16  20
ATOM     17  C   UNL     1      49.148   7.882  12.190  0.00  0.00    +0.000 A 
ATOM     18  C   UNL     1      48.701   6.591  12.483  0.00  0.00    +0.000 A 
ATOM     19  C   UNL     1      47.331   6.323  12.545  0.00  0.00    +0.000 A 
ATOM     20  C   UNL     1      46.386   7.336  12.322  0.00  0.00    +0.000 A 
ATOM     21  C   UNL     1      46.852   8.631  12.038  0.00  0.00    +0.000 A 
ATOM     22  C   UNL     1      48.220   8.906  11.977  0.00  0.00    +0.000 A 
BRANCH  17  24
ATOM     23  N   UNL     1      51.357   7.515  11.236  0.00  0.00    +0.000 N 
ATOM     24  C   UNL     1      50.598   8.209  12.136  0.00  0.00    +0.000 C 
ATOM     25  O   UNL     1      51.085   9.080  12.840  0.00  0.00    +0.000 OA
ATOM     26  H   UNL     1      52.321   7.809  11.143  0.00  0.00    +0.000 HD
ATOM     27  H   UNL     1      50.953   6.979  10.482  0.00  0.00    +0.000 HD
ENDBRANCH  17  24
ENDBRANCH  16  20
ENDBRANCH   1  16
TORSDOF 5
ENDMDL
MODEL 6
REMARK VINA RESULT:    -7.675      3.091      7.157
REMARK INTER + INTRA:         -10.775
REMARK INTER:                 -10.220
REMARK INTRA:                  -0.555
REMARK UNBOUND:                -0.856
REMARK  Name = 
REMARK  5 active torsions:
REMARK  status: ('A' for Active; 'I' for Inactive)
REMARK    1  A    between atoms: C_2  and  C_4
REMARK    2  A    between atoms: C_7  and  C_8
REMARK    3  A    between atoms: C_8  and  N_9
REMARK    4  A    between atoms: N_9  and  C_10
REMARK    5  A    between atoms: C_12  and  C_13
REMARK                            x       y       z     vdW  Elec       q    Type
REMARK                         _______ _______ _______ _____ _____    ______ ____
ROOT
ATOM      1  N   UNL     1      45.338   6.567  11.187  0.00  0.00    +0.000 N 
ATOM      2  H   UNL     1      44.782   7.365  10.894  0.00  0.00    +0.000 HD
ENDROOT
BRANCH   1   3
ATOM      3  C   UNL     1      44.914   5.346  10.676  0.00  0.00    +0.000 A 
ATOM      4  C   UNL     1      45.533   4.709   9.593  0.00  0.00    +0.000 A 
ATOM      5  C   UNL     1      45.203   3.398   9.185  0.00  0.00    +0.000 A 
ATOM      6  C   UNL     1      44.184   2.736   9.890  0.00  0.00    +0.000 A 
ATOM      7  C   UNL     1      43.528   3.354  10.954  0.00  0.00    +0.000 A 
ATOM      8  C   UNL     1      43.904   4.635  11.340  0.00  0.00    +0.000 A 
ATOM      9  F   UNL     1      43.282   5.197  12.388  0.00  0.00    +0.000 F 
BRANCH   5  10
ATOM     10  C   UNL     1      45.939   2.736   8.082  0.00  0.00    +0.000 A 
ATOM     11  C   UNL     1      46.289   3.435   6.916  0.00  0.00    +0.000 A 
ATOM     12  C   UNL     1      46.993   2.786   5.914  0.00  0.00    +0.000 A 
ATOM     13  N   UNL     1      47.385   1.500   5.986  0.00  0.00    +0.000 NA
ATOM     14  C   UNL     1      47.048   0.835   7.108  0.00  0.00    +0.000 A 
ATOM     15  C   UNL     1      46.336   1.395   8.158  0.00  0.00    +0.000 A 
ENDBRANCH   5  10
ENDBRANCH   1   3
BRANCH   1  16
ATOM     16  C   UNL     1      46.690   6.862  11.624  0.00  0.00    +0.000 C 
BRANCH  16  20
ATOM     17  C   UNL     1      47.806   5.257  15.488  0.00  0.00    +0.000 A 
ATOM     18  C   UNL     1      46.897   4.555  14.693  0.00  0.00    +0.000 A 
ATOM     19  C   UNL     1      46.526   5.059  13.444  0.00  0.00    +0.000 A 
ATOM     20  C   UNL     1      47.050   6.270  12.969  0.00  0.00    +0.000 A 
ATOM     21  C   UNL     1      47.958   6.969  13.784  0.00  0.00    +0.000 A 
ATOM     22  C   UNL     1      48.330   6.471  15.035  0.00  0.00    +0.000 A 
BRANCH  17  24
ATOM     23  N   UNL     1      47.433   5.145  17.892  0.00  0.00    +0.000 N 
ATOM     24  C   UNL     1      48.208   4.762  16.832  0.00  0.00    +0.000 C 
ATOM     25  O   UNL     1      49.167   4.021  16.981  0.00  0.00    +0.000 OA
ATOM     26  H   UNL     1      47.660   4.728  18.785  0.00  0.00    +0.000 HD
ATOM     27  H   UNL     1      46.511   5.541  17.777  0.00  0.00    +0.000 HD
ENDBRANCH  17  24
ENDBRANCH  16  20
ENDBRANCH   1  16
TORSDOF 5
ENDMDL
MODEL 7
REMARK VINA RESULT:    -7.262      2.526      4.212
REMARK INTER + INTRA:         -10.241
REMARK INTER:                  -9.407
REMARK INTRA:                  -0.834
REMARK UNBOUND:                -0.856
REMARK  Name = 
REMARK  5 active torsions:
REMARK  status: ('A' for Active; 'I' for Inactive)
REMARK    1  A    between atoms: C_2  and  C_4
REMARK    2  A    between atoms: C_7  and  C_8
REMARK    3  A    between atoms: C_8  and  N_9
REMARK    4  A    between atoms: N_9  and  C_10
REMARK    5  A    between atoms: C_12  and  C_13
REMARK                            x       y       z     vdW  Elec       q    Type
REMARK                         _______ _______ _______ _____ _____    ______ ____
ROOT
ATOM      1  N   UNL     1      43.911   5.177  11.714  0.00  0.00    +0.000 N 
ATOM      2  H   UNL     1      43.116   5.764  11.951  0.00  0.00    +0.000 HD
ENDROOT
BRANCH   1   3
ATOM      3  C   UNL     1      45.090   5.504  12.373  0.00  0.00    +0.000 A 
ATOM      4  C   UNL     1      45.515   4.873  13.549  0.00  0.00    +0.000 A 
ATOM      5  C   UNL     1      46.787   5.093  14.120  0.00  0.00    +0.000 A 
ATOM      6  C   UNL     1      47.635   6.015  13.481  0.00  0.00    +0.000 A 
ATOM      7  C   UNL     1      47.230   6.682  12.326  0.00  0.00    +0.000 A 
ATOM      8  C   UNL     1      45.979   6.414  11.782  0.00  0.00    +0.000 A 
ATOM      9  F   UNL     1      45.624   7.042  10.650  0.00  0.00    +0.000 F 
BRANCH   5  10
ATOM     10  C   UNL     1      47.222   4.345  15.322  0.00  0.00    +0.000 A 
ATOM     11  C   UNL     1      47.832   3.085  15.216  0.00  0.00    +0.000 A 
ATOM     12  C   UNL     1      48.242   2.424  16.363  0.00  0.00    +0.000 A 
ATOM     13  N   UNL     1      48.100   2.921  17.606  0.00  0.00    +0.000 NA
ATOM     14  C   UNL     1      47.515   4.131  17.702  0.00  0.00    +0.000 A 
ATOM     15  C   UNL     1      47.063   4.863  16.613  0.00  0.00    +0.000 A 
ENDBRANCH   5  10
ENDBRANCH   1   3
BRANCH   1  16
ATOM     16  C   UNL     1      43.593   3.867  11.176  0.00  0.00    +0.000 C 
BRANCH  16  20
ATOM     17  C   UNL     1      46.064   2.779   7.792  0.00  0.00    +0.000 A 
ATOM     18  C   UNL     1      45.723   1.802   8.730  0.00  0.00    +0.000 A 
ATOM     19  C   UNL     1      44.926   2.136   9.828  0.00  0.00    +0.000 A 
ATOM     20  C   UNL     1      44.461   3.447  10.011  0.00  0.00    +0.000 A 
ATOM     21  C   UNL     1      44.821   4.420   9.063  0.00  0.00    +0.000 A 
ATOM     22  C   UNL     1      45.620   4.093   7.965  0.00  0.00    +0.000 A 
BRANCH  17  24
ATOM     23  N   UNL     1      47.932   1.557   6.818  0.00  0.00    +0.000 N 
ATOM     24  C   UNL     1      46.928   2.465   6.622  0.00  0.00    +0.000 C 
ATOM     25  O   UNL     1      46.731   2.968   5.527  0.00  0.00    +0.000 OA
ATOM     26  H   UNL     1      48.452   1.282   5.995  0.00  0.00    +0.000 HD
ATOM     27  H   UNL     1      47.966   0.948   7.622  0.00  0.00    +0.000 HD
ENDBRANCH  17  24
ENDBRANCH  16  20
ENDBRANCH   1  16
TORSDOF 5
ENDMDL
MODEL 8
REMARK VINA RESULT:    -7.027      5.191      8.060
REMARK INTER + INTRA:          -9.937
REMARK INTER:                  -9.238
REMARK INTRA:                  -0.699
REMARK UNBOUND:                -0.856
REMARK  Name = 
REMARK  5 active torsions:
REMARK  status: ('A' for Active; 'I' for Inactive)
REMARK    1  A    between atoms: C_2  and  C_4
REMARK    2  A    between atoms: C_7  and  C_8
REMARK    3  A    between atoms: C_8  and  N_9
REMARK    4  A    between atoms: N_9  and  C_10
REMARK    5  A    between atoms: C_12  and  C_13
REMARK                            x       y       z     vdW  Elec       q    Type
REMARK                         _______ _______ _______ _____ _____    ______ ____
ROOT
ATOM      1  N   UNL     1      48.256   6.251  15.807  0.00  0.00    +0.000 N 
ATOM      2  H   UNL     1      49.052   6.824  16.074  0.00  0.00    +0.000 HD
ENDROOT
BRANCH   1   3
ATOM      3  C   UNL     1      47.951   6.277  14.452  0.00  0.00    +0.000 A 
ATOM      4  C   UNL     1      46.921   5.521  13.880  0.00  0.00    +0.000 A 
ATOM      5  C   UNL     1      46.510   5.675  12.538  0.00  0.00    +0.000 A 
ATOM      6  C   UNL     1      47.203   6.612  11.751  0.00  0.00    +0.000 A 
ATOM      7  C   UNL     1      48.253   7.360  12.282  0.00  0.00    +0.000 A 
ATOM      8  C   UNL     1      48.606   7.195  13.617  0.00  0.00    +0.000 A 
ATOM      9  F   UNL     1      49.597   7.950  14.116  0.00  0.00    +0.000 F 
BRANCH   5  10
ATOM     10  C   UNL     1      45.364   4.907  11.999  0.00  0.00    +0.000 A 
ATOM     11  C   UNL     1      44.666   3.983  12.793  0.00  0.00    +0.000 A 
ATOM     12  C   UNL     1      43.587   3.298  12.259  0.00  0.00    +0.000 A 
ATOM     13  N   UNL     1      43.142   3.466  10.999  0.00  0.00    +0.000 NA
ATOM     14  C   UNL     1      43.814   4.354  10.241  0.00  0.00    +0.000 A 
ATOM     15  C   UNL     1      44.912   5.079  10.685  0.00  0.00    +0.000 A 
ENDBRANCH   5  10
ENDBRANCH   1   3
BRANCH   1  16
ATOM     16  C   UNL     1      47.923   5.169  16.715  0.00  0.00    +0.000 C 
BRANCH  16  20
ATOM     17  C   UNL     1      51.117   2.351  17.490  0.00  0.00    +0.000 A 
ATOM     18  C   UNL     1      51.343   3.714  17.697  0.00  0.00    +0.000 A 
ATOM     19  C   UNL     1      50.323   4.636  17.453  0.00  0.00    +0.000 A 
ATOM     20  C   UNL     1      49.065   4.218  16.993  0.00  0.00    +0.000 A 
ATOM     21  C   UNL     1      48.856   2.844  16.781  0.00  0.00    +0.000 A 
ATOM     22  C   UNL     1      49.874   1.917  17.022  0.00  0.00    +0.000 A 
BRANCH  17  24
ATOM     23  N   UNL     1      51.789   0.101  18.135  0.00  0.00    +0.000 N 
ATOM     24  C   UNL     1      52.186   1.342  17.720  0.00  0.00    +0.000 C 
ATOM     25  O   UNL     1      53.362   1.598  17.516  0.00  0.00    +0.000 OA
ATOM     26  H   UNL     1      52.514  -0.601  18.199  0.00  0.00    +0.000 HD
ATOM     27  H   UNL     1      50.832  -0.213  18.074  0.00  0.00    +0.000 HD
ENDBRANCH  17  24
ENDBRANCH  16  20
ENDBRANCH   1  16
TORSDOF 5
ENDMDL
MODEL 9
REMARK VINA RESULT:    -6.834      4.317      8.028
REMARK INTER + INTRA:          -9.687
REMARK INTER:                  -9.176
REMARK INTRA:                  -0.511
REMARK UNBOUND:                -0.856
REMARK  Name = 
REMARK  5 active torsions:
REMARK  status: ('A' for Active; 'I' for Inactive)
REMARK    1  A    between atoms: C_2  and  C_4
REMARK    2  A    between atoms: C_7  and  C_8
REMARK    3  A    between atoms: C_8  and  N_9
REMARK    4  A    between atoms: N_9  and  C_10
REMARK    5  A    between atoms: C_12  and  C_13
REMARK                            x       y       z     vdW  Elec       q    Type
REMARK                         _______ _______ _______ _____ _____    ______ ____
ROOT
ATOM      1  N   UNL     1      45.704   4.531  13.680  0.00  0.00    +0.000 N 
ATOM      2  H   UNL     1      45.105   4.256  14.453  0.00  0.00    +0.000 HD
ENDROOT
BRANCH   1   3
ATOM      3  C   UNL     1      45.078   4.548  12.439  0.00  0.00    +0.000 A 
ATOM      4  C   UNL     1      45.651   4.009  11.281  0.00  0.00    +0.000 A 
ATOM      5  C   UNL     1      44.945   3.881  10.064  0.00  0.00    +0.000 A 
ATOM      6  C   UNL     1      43.621   4.352  10.030  0.00  0.00    +0.000 A 
ATOM      7  C   UNL     1      43.031   4.920  11.158  0.00  0.00    +0.000 A 
ATOM      8  C   UNL     1      43.754   5.001  12.343  0.00  0.00    +0.000 A 
ATOM      9  F   UNL     1      43.154   5.521  13.425  0.00  0.00    +0.000 F 
BRANCH   5  10
ATOM     10  C   UNL     1      45.570   3.234   8.887  0.00  0.00    +0.000 A 
ATOM     11  C   UNL     1      46.003   3.987   7.784  0.00  0.00    +0.000 A 
ATOM     12  C   UNL     1      46.599   3.348   6.710  0.00  0.00    +0.000 A 
ATOM     13  N   UNL     1      46.806   2.019   6.649  0.00  0.00    +0.000 NA
ATOM     14  C   UNL     1      46.389   1.300   7.710  0.00  0.00    +0.000 A 
ATOM     15  C   UNL     1      45.773   1.850   8.825  0.00  0.00    +0.000 A 
ENDBRANCH   5  10
ENDBRANCH   1   3
BRANCH   1  16
ATOM     16  C   UNL     1      46.874   5.313  14.033  0.00  0.00    +0.000 C 
BRANCH  16  20
ATOM     17  C   UNL     1      48.561   4.526  17.942  0.00  0.00    +0.000 A 
ATOM     18  C   UNL     1      47.617   3.642  17.415  0.00  0.00    +0.000 A 
ATOM     19  C   UNL     1      47.063   3.881  16.155  0.00  0.00    +0.000 A 
ATOM     20  C   UNL     1      47.436   5.005  15.403  0.00  0.00    +0.000 A 
ATOM     21  C   UNL     1      48.381   5.890  15.951  0.00  0.00    +0.000 A 
ATOM     22  C   UNL     1      48.937   5.657  17.211  0.00  0.00    +0.000 A 
BRANCH  17  24
ATOM     23  N   UNL     1      48.382   3.677  20.217  0.00  0.00    +0.000 N 
ATOM     24  C   UNL     1      49.157   4.315  19.289  0.00  0.00    +0.000 C 
ATOM     25  O   UNL     1      50.298   4.666  19.546  0.00  0.00    +0.000 OA
ATOM     26  H   UNL     1      48.830   3.457  21.097  0.00  0.00    +0.000 HD
ATOM     27  H   UNL     1      47.550   3.162  19.970  0.00  0.00    +0.000 HD
ENDBRANCH  17  24
ENDBRANCH  16  20
ENDBRANCH   1  16
TORSDOF 5
ENDMDL
