MODEL 1
REMARK VINA RESULT:    -8.294      0.000      0.000
REMARK INTER + INTRA:         -12.353
REMARK INTER:                 -11.203
REMARK INTRA:                  -1.150
REMARK UNBOUND:                -1.150
REMARK  Name = 
REMARK  6 active torsions:
REMARK  status: ('A' for Active; 'I' for Inactive)
REMARK    1  A    between atoms: C_2  and  C_25
REMARK    2  A    between atoms: N_3  and  C_4
REMARK    3  A    between atoms: C_4  and  C_5
REMARK    4  A    between atoms: C_8  and  C_9
REMARK    5  A    between atoms: C_9  and  N_10
REMARK    6  A    between atoms: C_11  and  C_13
REMARK                            x       y       z     vdW  Elec       q    Type
REMARK                         _______ _______ _______ _____ _____    ______ ____
ROOT
ATOM      1  C   UNL     1      44.859   5.738  10.906  0.00  0.00    +0.000 A 
ATOM      2  C   UNL     1      46.201   6.018  10.615  0.00  0.00    +0.000 A 
ATOM      3  C   UNL     1      46.951   6.862  11.444  0.00  0.00    +0.000 A 
ATOM      4  C   UNL     1      46.382   7.427  12.593  0.00  0.00    +0.000 A 
ATOM      5  C   UNL     1      45.032   7.168  12.868  0.00  0.00    +0.000 A 
ATOM      6  C   UNL     1      44.283   6.322  12.042  0.00  0.00    +0.000 A 
ENDROOT
BRANCH   1   7
ATOM      7  C   UNL     1      44.059   4.821  10.020  0.00  0.00    +0.000 C 
BRANCH   7  10
ATOM      8  O   UNL     1      44.366   2.008   9.823  0.00  0.00    +0.000 OA
ATOM      9  C   UNL     1      44.971   2.756   9.070  0.00  0.00    +0.000 C 
ATOM     10  N   UNL     1      44.876   4.128   9.055  0.00  0.00    +0.000 N 
ATOM     11  H   UNL     1      45.463   4.638   8.401  0.00  0.00    +0.000 HD
BRANCH   9  12
ATOM     12  C   UNL     1      45.930   2.183   8.060  0.00  0.00    +0.000 C 
ATOM     13  C   UNL     1      46.465   2.970   6.937  0.00  0.00    +0.000 C 
ATOM     14  C   UNL     1      47.308   2.036   6.259  0.00  0.00    +0.000 C 
ATOM     15  C   UNL     1      47.227   0.899   6.966  0.00  0.00    +0.000 C 
ATOM     16  N   UNL     1      46.390   0.952   8.073  0.00  0.00    +0.000 NA
ENDBRANCH   9  12
ENDBRANCH   7  10
ENDBRANCH   1   7
BRANCH   4  17
ATOM     17  C   UNL     1      47.198   8.302  13.513  0.00  0.00    +0.000 C 
BRANCH  17  18
ATOM     18  N   UNL     1      47.606   7.600  14.703  0.00  0.00    +0.000 N 
ATOM     19  C   UNL     1      48.800   6.925  14.752  0.00  0.00    +0.000 C 
ATOM     20  O   UNL     1      49.600   6.942  13.821  0.00  0.00    +0.000 OA
ATOM     21  H   UNL     1      46.884   7.389  15.383  0.00  0.00    +0.000 HD
BRANCH  19  22
ATOM     22  C   UNL     1      49.103   6.220  16.008  0.00  0.00    +0.000 A 
ATOM     23  C   UNL     1      50.157   6.645  16.801  0.00  0.00    +0.000 A 
ATOM     24  S   UNL     1      50.340   5.746  18.240  0.00  0.00    +0.000 S 
ATOM     25  C   UNL     1      49.048   4.719  17.824  0.00  0.00    +0.000 A 
ATOM     26  N   UNL     1      48.689   3.687  18.633  0.00  0.00    +0.000 NA
ATOM     27  C   UNL     1      47.714   2.970  18.181  0.00  0.00    +0.000 A 
ATOM     28  N   UNL     1      47.063   3.196  16.996  0.00  0.00    +0.000 N 
ATOM     29  C   UNL     1      47.371   4.243  16.164  0.00  0.00    +0.000 A 
ATOM     30  O   UNL     1      46.738   4.445  15.133  0.00  0.00    +0.000 OA
ATOM     31  C   UNL     1      48.472   5.073  16.617  0.00  0.00    +0.000 A 
ATOM     32  H   UNL     1      46.299   2.605  16.703  0.00  0.00    +0.000 HD
ENDBRANCH  19  22
ENDBRANCH  17  18
ENDBRANCH   4  17
TORSDOF 6
ENDMDL
MODEL 2
REMARK VINA RESULT:    -7.040      1.836      2.134
REMARK INTER + INTRA:         -10.659
REMARK INTER:                  -9.713
REMARK INTRA:                  -0.946
REMARK UNBOUND:                -1.150
REMARK  Name = 
REMARK  6 active torsions:
REMARK  status: ('A' for Active; 'I' for Inactive)
REMARK    1  A    between atoms: C_2  and  C_25
REMARK    2  A    between atoms: N_3  and  C_4
REMARK    3  A    between atoms: C_4  and  C_5
REMARK    4  A    between atoms: C_8  and  C_9
REMARK    5  A    between atoms: C_9  and  N_10
REMARK    6  A    between atoms: C_11  and  C_13
REMARK                            x       y       z     vdW  Elec       q    Type
REMARK                         _______ _______ _______ _____ _____    ______ ____
ROOT
ATOM      1  C   UNL     1      45.239   5.517  11.328  0.00  0.00    +0.000 A 
ATOM      2  C   UNL     1      45.937   6.686  10.999  0.00  0.00    +0.000 A 
ATOM      3  C   UNL     1      46.803   7.286  11.921  0.00  0.00    +0.000 A 
ATOM      4  C   UNL     1      47.006   6.718  13.186  0.00  0.00    +0.000 A 
ATOM      5  C   UNL     1      46.287   5.564  13.525  0.00  0.00    +0.000 A 
ATOM      6  C   UNL     1      45.423   4.962  12.602  0.00  0.00    +0.000 A 
ENDROOT
BRANCH   1   7
ATOM      7  C   UNL     1      44.317   4.867  10.330  0.00  0.00    +0.000 C 
BRANCH   7  10
ATOM      8  O   UNL     1      44.415   2.050  10.021  0.00  0.00    +0.000 OA
ATOM      9  C   UNL     1      45.029   2.782   9.260  0.00  0.00    +0.000 C 
ATOM     10  N   UNL     1      45.030   4.157   9.298  0.00  0.00    +0.000 N 
ATOM     11  H   UNL     1      45.614   4.650   8.629  0.00  0.00    +0.000 HD
BRANCH   9  12
ATOM     12  C   UNL     1      45.888   2.183   8.179  0.00  0.00    +0.000 C 
ATOM     13  C   UNL     1      46.374   2.963   7.028  0.00  0.00    +0.000 C 
ATOM     14  C   UNL     1      47.127   2.003   6.282  0.00  0.00    +0.000 C 
ATOM     15  C   UNL     1      47.049   0.862   6.981  0.00  0.00    +0.000 C 
ATOM     16  N   UNL     1      46.296   0.935   8.145  0.00  0.00    +0.000 NA
ENDBRANCH   9  12
ENDBRANCH   7  10
ENDBRANCH   1   7
BRANCH   4  17
ATOM     17  C   UNL     1      47.972   7.336  14.168  0.00  0.00    +0.000 C 
BRANCH  17  18
ATOM     18  N   UNL     1      48.033   6.596  15.402  0.00  0.00    +0.000 N 
ATOM     19  C   UNL     1      49.236   6.321  16.004  0.00  0.00    +0.000 C 
ATOM     20  O   UNL     1      50.300   6.745  15.563  0.00  0.00    +0.000 OA
ATOM     21  H   UNL     1      47.212   6.058  15.656  0.00  0.00    +0.000 HD
BRANCH  19  22
ATOM     22  C   UNL     1      49.182   5.534  17.246  0.00  0.00    +0.000 A 
ATOM     23  C   UNL     1      49.690   4.245  17.269  0.00  0.00    +0.000 A 
ATOM     24  S   UNL     1      49.588   3.493  18.797  0.00  0.00    +0.000 S 
ATOM     25  C   UNL     1      48.807   4.847  19.470  0.00  0.00    +0.000 A 
ATOM     26  N   UNL     1      48.408   4.848  20.769  0.00  0.00    +0.000 NA
ATOM     27  C   UNL     1      47.800   5.928  21.139  0.00  0.00    +0.000 A 
ATOM     28  N   UNL     1      47.561   7.006  20.326  0.00  0.00    +0.000 N 
ATOM     29  C   UNL     1      47.973   7.060  19.018  0.00  0.00    +0.000 A 
ATOM     30  O   UNL     1      47.785   8.059  18.332  0.00  0.00    +0.000 OA
ATOM     31  C   UNL     1      48.649   5.866  18.547  0.00  0.00    +0.000 A 
ATOM     32  H   UNL     1      47.089   7.826  20.678  0.00  0.00    +0.000 HD
ENDBRANCH  19  22
ENDBRANCH  17  18
ENDBRANCH   4  17
TORSDOF 6
ENDMDL
MODEL 3
REMARK VINA RESULT:    -7.021      4.798      9.557
REMARK INTER + INTRA:         -10.633
REMARK INTER:                  -9.856
REMARK INTRA:                  -0.778
REMARK UNBOUND:                -1.150
REMARK  Name = 
REMARK  6 active torsions:
REMARK  status: ('A' for Active; 'I' for Inactive)
REMARK    1  A    between atoms: C_2  and  C_25
REMARK    2  A    between atoms: N_3  and  C_4
REMARK    3  A    between atoms: C_4  and  C_5
REMARK    4  A    between atoms: C_8  and  C_9
REMARK    5  A    between atoms: C_9  and  N_10
REMARK    6  A    between atoms: C_11  and  C_13
REMARK                            x       y       z     vdW  Elec       q    Type
REMARK                         _______ _______ _______ _____ _____    ______ ____
ROOT
ATOM      1  C   UNL     1      51.638   2.882  17.757  0.00  0.00    +0.000 A 
ATOM      2  C   UNL     1      50.957   4.039  18.159  0.00  0.00    +0.000 A 
ATOM      3  C   UNL     1      49.585   4.181  17.919  0.00  0.00    +0.000 A 
ATOM      4  C   UNL     1      48.860   3.161  17.290  0.00  0.00    +0.000 A 
ATOM      5  C   UNL     1      49.546   2.016  16.863  0.00  0.00    +0.000 A 
ATOM      6  C   UNL     1      50.918   1.871  17.106  0.00  0.00    +0.000 A 
ENDROOT
BRANCH   1   7
ATOM      7  C   UNL     1      53.111   2.726  18.028  0.00  0.00    +0.000 C 
BRANCH   7  10
ATOM      8  O   UNL     1      54.984   0.848  17.024  0.00  0.00    +0.000 OA
ATOM      9  C   UNL     1      54.343   0.609  18.036  0.00  0.00    +0.000 C 
ATOM     10  N   UNL     1      53.434   1.455  18.627  0.00  0.00    +0.000 N 
ATOM     11  H   UNL     1      52.937   1.121  19.449  0.00  0.00    +0.000 HD
BRANCH   9  12
ATOM     12  C   UNL     1      54.509  -0.717  18.730  0.00  0.00    +0.000 C 
ATOM     13  C   UNL     1      54.615  -1.989  17.997  0.00  0.00    +0.000 C 
ATOM     14  C   UNL     1      54.751  -2.955  19.042  0.00  0.00    +0.000 C 
ATOM     15  C   UNL     1      54.732  -2.254  20.185  0.00  0.00    +0.000 C 
ATOM     16  N   UNL     1      54.582  -0.882  20.031  0.00  0.00    +0.000 NA
ENDBRANCH   9  12
ENDBRANCH   7  10
ENDBRANCH   1   7
BRANCH   4  17
ATOM     17  C   UNL     1      47.372   3.290  17.067  0.00  0.00    +0.000 C 
BRANCH  17  18
ATOM     18  N   UNL     1      47.055   4.341  16.136  0.00  0.00    +0.000 N 
ATOM     19  C   UNL     1      47.093   4.123  14.781  0.00  0.00    +0.000 C 
ATOM     20  O   UNL     1      47.328   3.017  14.303  0.00  0.00    +0.000 OA
ATOM     21  H   UNL     1      47.079   5.291  16.490  0.00  0.00    +0.000 HD
BRANCH  19  22
ATOM     22  C   UNL     1      46.778   5.276  13.923  0.00  0.00    +0.000 A 
ATOM     23  C   UNL     1      47.662   6.340  13.844  0.00  0.00    +0.000 A 
ATOM     24  S   UNL     1      47.165   7.570  12.771  0.00  0.00    +0.000 S 
ATOM     25  C   UNL     1      45.718   6.747  12.416  0.00  0.00    +0.000 A 
ATOM     26  N   UNL     1      44.802   7.282  11.566  0.00  0.00    +0.000 NA
ATOM     27  C   UNL     1      43.737   6.565  11.411  0.00  0.00    +0.000 A 
ATOM     28  N   UNL     1      43.510   5.362  12.026  0.00  0.00    +0.000 N 
ATOM     29  C   UNL     1      44.420   4.771  12.867  0.00  0.00    +0.000 A 
ATOM     30  O   UNL     1      44.206   3.670  13.365  0.00  0.00    +0.000 OA
ATOM     31  C   UNL     1      45.629   5.541  13.088  0.00  0.00    +0.000 A 
ATOM     32  H   UNL     1      42.660   4.844  11.855  0.00  0.00    +0.000 HD
ENDBRANCH  19  22
ENDBRANCH  17  18
ENDBRANCH   4  17
TORSDOF 6
ENDMDL
MODEL 4
REMARK VINA RESULT:    -6.582      4.877      7.423
REMARK INTER + INTRA:         -10.041
REMARK INTER:                  -9.174
REMARK INTRA:                  -0.867
REMARK UNBOUND:                -1.150
REMARK  Name = 
REMARK  6 active torsions:
REMARK  status: ('A' for Active; 'I' for Inactive)
REMARK    1  A    between atoms: C_2  and  C_25
REMARK    2  A    between atoms: N_3  and  C_4
REMARK    3  A    between atoms: C_4  and  C_5
REMARK    4  A    between atoms: C_8  and  C_9
REMARK    5  A    between atoms: C_9  and  N_10
REMARK    6  A    between atoms: C_11  and  C_13
REMARK                            x       y       z     vdW  Elec       q    Type
REMARK                         _______ _______ _______ _____ _____    ______ ____
ROOT
ATOM      1  C   UNL     1      50.867   8.728  11.200  0.00  0.00    +0.000 A 
ATOM      2  C   UNL     1      50.315   7.470  11.482  0.00  0.00    +0.000 A 
ATOM      3  C   UNL     1      48.990   7.353  11.919  0.00  0.00    +0.000 A 
ATOM      4  C   UNL     1      48.181   8.487  12.062  0.00  0.00    +0.000 A 
ATOM      5  C   UNL     1      48.740   9.746  11.806  0.00  0.00    +0.000 A 
ATOM      6  C   UNL     1      50.064   9.865  11.366  0.00  0.00    +0.000 A 
ENDROOT
BRANCH   1   7
ATOM      7  C   UNL     1      52.288   8.851  10.718  0.00  0.00    +0.000 C 
BRANCH   7  10
ATOM      8  O   UNL     1      52.858   8.744   7.942  0.00  0.00    +0.000 OA
ATOM      9  C   UNL     1      52.953   7.744   8.637  0.00  0.00    +0.000 C 
ATOM     10  N   UNL     1      52.731   7.687   9.994  0.00  0.00    +0.000 N 
ATOM     11  H   UNL     1      52.808   6.782  10.450  0.00  0.00    +0.000 HD
BRANCH   9  12
ATOM     12  C   UNL     1      53.326   6.429   8.007  0.00  0.00    +0.000 C 
ATOM     13  C   UNL     1      54.469   5.623   8.466  0.00  0.00    +0.000 C 
ATOM     14  C   UNL     1      54.441   4.492   7.593  0.00  0.00    +0.000 C 
ATOM     15  C   UNL     1      53.389   4.688   6.784  0.00  0.00    +0.000 C 
ATOM     16  N   UNL     1      52.687   5.865   7.007  0.00  0.00    +0.000 NA
ENDBRANCH   9  12
ENDBRANCH   7  10
ENDBRANCH   1   7
BRANCH   4  17
ATOM     17  C   UNL     1      46.739   8.362  12.491  0.00  0.00    +0.000 C 
BRANCH  17  18
ATOM     18  N   UNL     1      46.224   7.035  12.272  0.00  0.00    +0.000 N 
ATOM     19  C   UNL     1      45.044   6.835  11.600  0.00  0.00    +0.000 C 
ATOM     20  O   UNL     1      44.412   7.760  11.097  0.00  0.00    +0.000 OA
ATOM     21  H   UNL     1      46.598   6.295  12.856  0.00  0.00    +0.000 HD
BRANCH  19  22
ATOM     22  C   UNL     1      44.598   5.440  11.459  0.00  0.00    +0.000 A 
ATOM     23  C   UNL     1      43.879   4.839  12.479  0.00  0.00    +0.000 A 
ATOM     24  S   UNL     1      43.404   3.237  12.135  0.00  0.00    +0.000 S 
ATOM     25  C   UNL     1      44.195   3.271  10.628  0.00  0.00    +0.000 A 
ATOM     26  N   UNL     1      44.202   2.179   9.819  0.00  0.00    +0.000 NA
ATOM     27  C   UNL     1      44.866   2.334   8.720  0.00  0.00    +0.000 A 
ATOM     28  N   UNL     1      45.517   3.484   8.359  0.00  0.00    +0.000 N 
ATOM     29  C   UNL     1      45.511   4.620   9.130  0.00  0.00    +0.000 A 
ATOM     30  O   UNL     1      46.065   5.648   8.755  0.00  0.00    +0.000 OA
ATOM     31  C   UNL     1      44.791   4.495  10.383  0.00  0.00    +0.000 A 
ATOM     32  H   UNL     1      46.011   3.546   7.480  0.00  0.00    +0.000 HD
ENDBRANCH  19  22
ENDBRANCH  17  18
ENDBRANCH   4  17
TORSDOF 6
ENDMDL
MODEL 5
REMARK VINA RESULT:    -6.525      3.718      8.399
REMARK INTER + INTRA:          -9.964
REMARK INTER:                  -8.973
REMARK INTRA:                  -0.990
REMARK UNBOUND:                -1.150
REMARK  Name = 
REMARK  6 active torsions:
REMARK  status: ('A' for Active; 'I' for Inactive)
REMARK    1  A    between atoms: C_2  and  C_25
REMARK    2  A    between atoms: N_3  and  C_4
REMARK    3  A    between atoms: C_4  and  C_5
REMARK    4  A    between atoms: C_8  and  C_9
REMARK    5  A    between atoms: C_9  and  N_10
REMARK    6  A    between atoms: C_11  and  C_13
REMARK                            x       y       z     vdW  Elec       q    Type
REMARK                         _______ _______ _______ _____ _____    ______ ____
ROOT
ATOM      1  C   UNL     1      49.481   4.925  17.444  0.00  0.00    +0.000 A 
ATOM      2  C   UNL     1      48.294   4.552  16.798  0.00  0.00    +0.000 A 
ATOM      3  C   UNL     1      47.850   5.243  15.664  0.00  0.00    +0.000 A 
ATOM      4  C   UNL     1      48.593   6.308  15.138  0.00  0.00    +0.000 A 
ATOM      5  C   UNL     1      49.765   6.698  15.800  0.00  0.00    +0.000 A 
ATOM      6  C   UNL     1      50.212   6.006  16.932  0.00  0.00    +0.000 A 
ENDROOT
BRANCH   1   7
ATOM      7  C   UNL     1      49.964   4.173  18.655  0.00  0.00    +0.000 C 
BRANCH   7  10
ATOM      8  O   UNL     1      50.393   1.794  17.172  0.00  0.00    +0.000 OA
ATOM      9  C   UNL     1      51.324   2.362  17.723  0.00  0.00    +0.000 C 
ATOM     10  N   UNL     1      51.237   3.533  18.440  0.00  0.00    +0.000 N 
ATOM     11  H   UNL     1      52.083   3.883  18.881  0.00  0.00    +0.000 HD
BRANCH   9  12
ATOM     12  C   UNL     1      52.705   1.767  17.658  0.00  0.00    +0.000 C 
ATOM     13  C   UNL     1      53.911   2.515  18.049  0.00  0.00    +0.000 C 
ATOM     14  C   UNL     1      54.964   1.574  17.823  0.00  0.00    +0.000 C 
ATOM     15  C   UNL     1      54.362   0.460  17.380  0.00  0.00    +0.000 C 
ATOM     16  N   UNL     1      52.981   0.544  17.264  0.00  0.00    +0.000 NA
ENDBRANCH   9  12
ENDBRANCH   7  10
ENDBRANCH   1   7
BRANCH   4  17
ATOM     17  C   UNL     1      48.141   7.029  13.891  0.00  0.00    +0.000 C 
BRANCH  17  18
ATOM     18  N   UNL     1      47.420   6.160  12.997  0.00  0.00    +0.000 N 
ATOM     19  C   UNL     1      46.549   6.667  12.066  0.00  0.00    +0.000 C 
ATOM     20  O   UNL     1      46.394   7.873  11.903  0.00  0.00    +0.000 OA
ATOM     21  H   UNL     1      47.361   5.181  13.256  0.00  0.00    +0.000 HD
BRANCH  19  22
ATOM     22  C   UNL     1      45.845   5.686  11.224  0.00  0.00    +0.000 A 
ATOM     23  C   UNL     1      45.973   5.741   9.846  0.00  0.00    +0.000 A 
ATOM     24  S   UNL     1      45.128   4.505   9.027  0.00  0.00    +0.000 S 
ATOM     25  C   UNL     1      44.514   3.884  10.488  0.00  0.00    +0.000 A 
ATOM     26  N   UNL     1      43.676   2.815  10.494  0.00  0.00    +0.000 NA
ATOM     27  C   UNL     1      43.261   2.469  11.669  0.00  0.00    +0.000 A 
ATOM     28  N   UNL     1      43.616   3.094  12.836  0.00  0.00    +0.000 N 
ATOM     29  C   UNL     1      44.483   4.157  12.880  0.00  0.00    +0.000 A 
ATOM     30  O   UNL     1      44.817   4.664  13.946  0.00  0.00    +0.000 OA
ATOM     31  C   UNL     1      44.967   4.596  11.585  0.00  0.00    +0.000 A 
ATOM     32  H   UNL     1      43.266   2.769  13.726  0.00  0.00    +0.000 HD
ENDBRANCH  19  22
ENDBRANCH  17  18
ENDBRANCH   4  17
TORSDOF 6
ENDMDL
MODEL 6
REMARK VINA RESULT:    -6.358      3.434      4.324
REMARK INTER + INTRA:          -9.738
REMARK INTER:                  -8.815
REMARK INTRA:                  -0.924
REMARK UNBOUND:                -1.150
REMARK  Name = 
REMARK  6 active torsions:
REMARK  status: ('A' for Active; 'I' for Inactive)
REMARK    1  A    between atoms: C_2  and  C_25
REMARK    2  A    between atoms: N_3  and  C_4
REMARK    3  A    between atoms: C_4  and  C_5
REMARK    4  A    between atoms: C_8  and  C_9
REMARK    5  A    between atoms: C_9  and  N_10
REMARK    6  A    between atoms: C_11  and  C_13
REMARK                            x       y       z     vdW  Elec       q    Type
REMARK                         _______ _______ _______ _____ _____    ______ ____
ROOT
ATOM      1  C   UNL     1      44.667   5.256  10.769  0.00  0.00    +0.000 A 
ATOM      2  C   UNL     1      45.862   5.891  10.406  0.00  0.00    +0.000 A 
ATOM      3  C   UNL     1      46.502   6.769  11.289  0.00  0.00    +0.000 A 
ATOM      4  C   UNL     1      45.973   7.015  12.562  0.00  0.00    +0.000 A 
ATOM      5  C   UNL     1      44.763   6.401  12.915  0.00  0.00    +0.000 A 
ATOM      6  C   UNL     1      44.124   5.521  12.034  0.00  0.00    +0.000 A 
ENDROOT
BRANCH   1   7
ATOM      7  C   UNL     1      43.986   4.302   9.823  0.00  0.00    +0.000 C 
BRANCH   7  10
ATOM      8  O   UNL     1      45.359   1.876   9.301  0.00  0.00    +0.000 OA
ATOM      9  C   UNL     1      45.427   2.811   8.519  0.00  0.00    +0.000 C 
ATOM     10  N   UNL     1      44.782   4.018   8.655  0.00  0.00    +0.000 N 
ATOM     11  H   UNL     1      44.951   4.730   7.949  0.00  0.00    +0.000 HD
BRANCH   9  12
ATOM     12  C   UNL     1      46.289   2.696   7.290  0.00  0.00    +0.000 C 
ATOM     13  C   UNL     1      47.290   1.630   7.120  0.00  0.00    +0.000 C 
ATOM     14  C   UNL     1      47.855   1.917   5.838  0.00  0.00    +0.000 C 
ATOM     15  C   UNL     1      47.204   3.001   5.393  0.00  0.00    +0.000 C 
ATOM     16  N   UNL     1      46.241   3.506   6.257  0.00  0.00    +0.000 NA
ENDBRANCH   9  12
ENDBRANCH   7  10
ENDBRANCH   1   7
BRANCH   4  17
ATOM     17  C   UNL     1      46.681   7.927  13.534  0.00  0.00    +0.000 C 
BRANCH  17  18
ATOM     18  N   UNL     1      48.078   8.075  13.216  0.00  0.00    +0.000 N 
ATOM     19  C   UNL     1      48.603   9.299  12.884  0.00  0.00    +0.000 C 
ATOM     20  O   UNL     1      47.933  10.327  12.908  0.00  0.00    +0.000 OA
ATOM     21  H   UNL     1      48.586   7.231  12.975  0.00  0.00    +0.000 HD
BRANCH  19  22
ATOM     22  C   UNL     1      50.036   9.328  12.549  0.00  0.00    +0.000 A 
ATOM     23  C   UNL     1      50.461   9.950  11.386  0.00  0.00    +0.000 A 
ATOM     24  S   UNL     1      52.154   9.931  11.175  0.00  0.00    +0.000 S 
ATOM     25  C   UNL     1      52.375   9.038  12.607  0.00  0.00    +0.000 A 
ATOM     26  N   UNL     1      53.616   8.652  13.005  0.00  0.00    +0.000 NA
ATOM     27  C   UNL     1      53.634   7.954  14.093  0.00  0.00    +0.000 A 
ATOM     28  N   UNL     1      52.523   7.612  14.819  0.00  0.00    +0.000 N 
ATOM     29  C   UNL     1      51.255   8.005  14.471  0.00  0.00    +0.000 A 
ATOM     30  O   UNL     1      50.286   7.721  15.169  0.00  0.00    +0.000 OA
ATOM     31  C   UNL     1      51.176   8.780  13.248  0.00  0.00    +0.000 A 
ATOM     32  H   UNL     1      52.605   7.072  15.668  0.00  0.00    +0.000 HD
ENDBRANCH  19  22
ENDBRANCH  17  18
ENDBRANCH   4  17
TORSDOF 6
ENDMDL
MODEL 7
REMARK VINA RESULT:    -6.193      4.126      6.257
REMARK INTER + INTRA:          -9.515
REMARK INTER:                  -8.790
REMARK INTRA:                  -0.725
REMARK UNBOUND:                -1.150
REMARK  Name = 
REMARK  6 active torsions:
REMARK  status: ('A' for Active; 'I' for Inactive)
REMARK    1  A    between atoms: C_2  and  C_25
REMARK    2  A    between atoms: N_3  and  C_4
REMARK    3  A    between atoms: C_4  and  C_5
REMARK    4  A    between atoms: C_8  and  C_9
REMARK    5  A    between atoms: C_9  and  N_10
REMARK    6  A    between atoms: C_11  and  C_13
REMARK                            x       y       z     vdW  Elec       q    Type
REMARK                         _______ _______ _______ _____ _____    ______ ____
ROOT
ATOM      1  C   UNL     1      45.243   8.452  12.034  0.00  0.00    +0.000 A 
ATOM      2  C   UNL     1      46.505   8.358  12.635  0.00  0.00    +0.000 A 
ATOM      3  C   UNL     1      46.913   7.173  13.261  0.00  0.00    +0.000 A 
ATOM      4  C   UNL     1      46.076   6.051  13.281  0.00  0.00    +0.000 A 
ATOM      5  C   UNL     1      44.803   6.154  12.703  0.00  0.00    +0.000 A 
ATOM      6  C   UNL     1      44.396   7.336  12.075  0.00  0.00    +0.000 A 
ENDROOT
BRANCH   1   7
ATOM      7  C   UNL     1      44.812   9.723  11.350  0.00  0.00    +0.000 C 
BRANCH   7  10
ATOM      8  O   UNL     1      42.784  10.294   9.452  0.00  0.00    +0.000 OA
ATOM      9  C   UNL     1      42.554  10.364  10.650  0.00  0.00    +0.000 C 
ATOM     10  N   UNL     1      43.449  10.081  11.655  0.00  0.00    +0.000 N 
ATOM     11  H   UNL     1      43.144  10.215  12.615  0.00  0.00    +0.000 HD
BRANCH   9  12
ATOM     12  C   UNL     1      41.197  10.808  11.125  0.00  0.00    +0.000 C 
ATOM     13  C   UNL     1      40.011  10.808  10.253  0.00  0.00    +0.000 C 
ATOM     14  C   UNL     1      38.978  11.301  11.109  0.00  0.00    +0.000 C 
ATOM     15  C   UNL     1      39.566  11.516  12.295  0.00  0.00    +0.000 C 
ATOM     16  N   UNL     1      40.924  11.228  12.339  0.00  0.00    +0.000 NA
ENDBRANCH   9  12
ENDBRANCH   7  10
ENDBRANCH   1   7
BRANCH   4  17
ATOM     17  C   UNL     1      46.527   4.758  13.916  0.00  0.00    +0.000 C 
BRANCH  17  18
ATOM     18  N   UNL     1      47.592   4.964  14.863  0.00  0.00    +0.000 N 
ATOM     19  C   UNL     1      47.570   4.360  16.096  0.00  0.00    +0.000 C 
ATOM     20  O   UNL     1      46.689   3.571  16.423  0.00  0.00    +0.000 OA
ATOM     21  H   UNL     1      48.195   5.764  14.709  0.00  0.00    +0.000 HD
BRANCH  19  22
ATOM     22  C   UNL     1      48.696   4.665  16.994  0.00  0.00    +0.000 A 
ATOM     23  C   UNL     1      48.777   5.907  17.602  0.00  0.00    +0.000 A 
ATOM     24  S   UNL     1      50.118   6.076  18.644  0.00  0.00    +0.000 S 
ATOM     25  C   UNL     1      50.669   4.509  18.274  0.00  0.00    +0.000 A 
ATOM     26  N   UNL     1      51.816   4.026  18.820  0.00  0.00    +0.000 NA
ATOM     27  C   UNL     1      52.133   2.835  18.429  0.00  0.00    +0.000 A 
ATOM     28  N   UNL     1      51.402   2.085  17.544  0.00  0.00    +0.000 N 
ATOM     29  C   UNL     1      50.223   2.520  16.992  0.00  0.00    +0.000 A 
ATOM     30  O   UNL     1      49.569   1.805  16.240  0.00  0.00    +0.000 OA
ATOM     31  C   UNL     1      49.829   3.859  17.387  0.00  0.00    +0.000 A 
ATOM     32  H   UNL     1      51.697   1.155  17.286  0.00  0.00    +0.000 HD
ENDBRANCH  19  22
ENDBRANCH  17  18
ENDBRANCH   4  17
TORSDOF 6
ENDMDL
MODEL 8
REMARK VINA RESULT:    -6.178      4.208      6.153
REMARK INTER + INTRA:          -9.495
REMARK INTER:                  -8.621
REMARK INTRA:                  -0.874
REMARK UNBOUND:                -1.150
REMARK  Name = 
REMARK  6 active torsions:
REMARK  status: ('A' for Active; 'I' for Inactive)
REMARK    1  A    between atoms: C_2  and  C_25
REMARK    2  A    between atoms: N_3  and  C_4
REMARK    3  A    between atoms: C_4  and  C_5
REMARK    4  A    between atoms: C_8  and  C_9
REMARK    5  A    between atoms: C_9  and  N_10
REMARK    6  A    between atoms: C_11  and  C_13
REMARK                            x       y       z     vdW  Elec       q    Type
REMARK                         _______ _______ _______ _____ _____    ______ ____
ROOT
ATOM      1  C   UNL     1      44.463   9.562  11.638  0.00  0.00    +0.000 A 
ATOM      2  C   UNL     1      45.603   9.677  12.445  0.00  0.00    +0.000 A 
ATOM      3  C   UNL     1      46.370   8.550  12.765  0.00  0.00    +0.000 A 
ATOM      4  C   UNL     1      46.026   7.286  12.268  0.00  0.00    +0.000 A 
ATOM      5  C   UNL     1      44.871   7.167  11.483  0.00  0.00    +0.000 A 
ATOM      6  C   UNL     1      44.106   8.293  11.160  0.00  0.00    +0.000 A 
ENDROOT
BRANCH   1   7
ATOM      7  C   UNL     1      43.647  10.777  11.285  0.00  0.00    +0.000 C 
BRANCH   7  10
ATOM      8  O   UNL     1      41.689  11.252   9.289  0.00  0.00    +0.000 OA
ATOM      9  C   UNL     1      41.367  10.844  10.394  0.00  0.00    +0.000 C 
ATOM     10  N   UNL     1      42.230  10.552  11.424  0.00  0.00    +0.000 N 
ATOM     11  H   UNL     1      41.830  10.255  12.310  0.00  0.00    +0.000 HD
BRANCH   9  12
ATOM     12  C   UNL     1      39.911  10.642  10.719  0.00  0.00    +0.000 C 
ATOM     13  C   UNL     1      38.828  11.231   9.915  0.00  0.00    +0.000 C 
ATOM     14  C   UNL     1      37.646  10.785  10.584  0.00  0.00    +0.000 C 
ATOM     15  C   UNL     1      38.075  10.035  11.610  0.00  0.00    +0.000 C 
ATOM     16  N   UNL     1      39.455   9.929  11.725  0.00  0.00    +0.000 NA
ENDBRANCH   9  12
ENDBRANCH   7  10
ENDBRANCH   1   7
BRANCH   4  17
ATOM     17  C   UNL     1      46.874   6.075  12.574  0.00  0.00    +0.000 C 
BRANCH  17  18
ATOM     18  N   UNL     1      47.177   5.969  13.977  0.00  0.00    +0.000 N 
ATOM     19  C   UNL     1      48.421   6.291  14.460  0.00  0.00    +0.000 C 
ATOM     20  O   UNL     1      49.305   6.745  13.740  0.00  0.00    +0.000 OA
ATOM     21  H   UNL     1      46.554   5.399  14.540  0.00  0.00    +0.000 HD
BRANCH  19  22
ATOM     22  C   UNL     1      48.628   6.117  15.907  0.00  0.00    +0.000 A 
ATOM     23  C   UNL     1      49.127   7.165  16.663  0.00  0.00    +0.000 A 
ATOM     24  S   UNL     1      49.262   6.809  18.326  0.00  0.00    +0.000 S 
ATOM     25  C   UNL     1      48.709   5.218  18.084  0.00  0.00    +0.000 A 
ATOM     26  N   UNL     1      48.613   4.347  19.123  0.00  0.00    +0.000 NA
ATOM     27  C   UNL     1      48.208   3.165  18.792  0.00  0.00    +0.000 A 
ATOM     28  N   UNL     1      47.887   2.779  17.517  0.00  0.00    +0.000 N 
ATOM     29  C   UNL     1      47.940   3.633  16.443  0.00  0.00    +0.000 A 
ATOM     30  O   UNL     1      47.601   3.269  15.322  0.00  0.00    +0.000 OA
ATOM     31  C   UNL     1      48.403   4.972  16.758  0.00  0.00    +0.000 A 
ATOM     32  H   UNL     1      47.567   1.842  17.324  0.00  0.00    +0.000 HD
ENDBRANCH  19  22
ENDBRANCH  17  18
ENDBRANCH   4  17
TORSDOF 6
ENDMDL
MODEL 9
REMARK VINA RESULT:    -6.084      6.158      8.572
REMARK INTER + INTRA:          -9.369
REMARK INTER:                  -8.588
REMARK INTRA:                  -0.781
REMARK UNBOUND:                -1.150
REMARK  Name = 
REMARK  6 active torsions:
REMARK  status: ('A' for Active; 'I' for Inactive)
REMARK    1  A    between atoms: C_2  and  C_25
REMARK    2  A    between atoms: N_3  and  C_4
REMARK    3  A    between atoms: C_4  and  C_5
REMARK    4  A    between atoms: C_8  and  C_9
REMARK    5  A    between atoms: C_9  and  N_10
REMARK    6  A    between atoms: C_11  and  C_13
REMARK                            x       y       z     vdW  Elec       q    Type
REMARK                         _______ _______ _______ _____ _____    ______ ____
ROOT
ATOM      1  C   UNL     1      48.749   3.473  17.107  0.00  0.00    +0.000 A 
ATOM      2  C   UNL     1      49.240   2.162  17.050  0.00  0.00    +0.000 A 
ATOM      3  C   UNL     1      50.576   1.884  17.368  0.00  0.00    +0.000 A 
ATOM      4  C   UNL     1      51.443   2.908  17.769  0.00  0.00    +0.000 A 
ATOM      5  C   UNL     1      50.959   4.223  17.799  0.00  0.00    +0.000 A 
ATOM      6  C   UNL     1      49.623   4.501  17.485  0.00  0.00    +0.000 A 
ENDROOT
BRANCH   1   7
ATOM      7  C   UNL     1      47.310   3.768  16.778  0.00  0.00    +0.000 C 
BRANCH   7  10
ATOM      8  O   UNL     1      47.186   3.186  14.005  0.00  0.00    +0.000 OA
ATOM      9  C   UNL     1      47.147   4.341  14.402  0.00  0.00    +0.000 C 
ATOM     10  N   UNL     1      47.170   4.736  15.720  0.00  0.00    +0.000 N 
ATOM     11  H   UNL     1      47.170   5.733  15.917  0.00  0.00    +0.000 HD
BRANCH   9  12
ATOM     12  C   UNL     1      47.086   5.471  13.409  0.00  0.00    +0.000 C 
ATOM     13  C   UNL     1      45.818   5.981  12.864  0.00  0.00    +0.000 C 
ATOM     14  C   UNL     1      46.241   7.022  11.980  0.00  0.00    +0.000 C 
ATOM     15  C   UNL     1      47.578   7.052  12.073  0.00  0.00    +0.000 C 
ATOM     16  N   UNL     1      48.129   6.114  12.936  0.00  0.00    +0.000 NA
ENDBRANCH   9  12
ENDBRANCH   7  10
ENDBRANCH   1   7
BRANCH   4  17
ATOM     17  C   UNL     1      52.872   2.608  18.154  0.00  0.00    +0.000 C 
BRANCH  17  18
ATOM     18  N   UNL     1      53.326   1.355  17.608  0.00  0.00    +0.000 N 
ATOM     19  C   UNL     1      54.234   0.577  18.282  0.00  0.00    +0.000 C 
ATOM     20  O   UNL     1      54.647   0.872  19.400  0.00  0.00    +0.000 OA
ATOM     21  H   UNL     1      53.178   1.206  16.616  0.00  0.00    +0.000 HD
BRANCH  19  22
ATOM     22  C   UNL     1      54.650  -0.669  17.618  0.00  0.00    +0.000 A 
ATOM     23  C   UNL     1      55.330  -0.615  16.413  0.00  0.00    +0.000 A 
ATOM     24  S   UNL     1      55.775  -2.146  15.805  0.00  0.00    +0.000 S 
ATOM     25  C   UNL     1      55.021  -2.940  17.107  0.00  0.00    +0.000 A 
ATOM     26  N   UNL     1      55.007  -4.297  17.183  0.00  0.00    +0.000 NA
ATOM     27  C   UNL     1      54.374  -4.767  18.208  0.00  0.00    +0.000 A 
ATOM     28  N   UNL     1      53.759  -4.001  19.163  0.00  0.00    +0.000 N 
ATOM     29  C   UNL     1      53.774  -2.629  19.143  0.00  0.00    +0.000 A 
ATOM     30  O   UNL     1      53.254  -1.972  20.039  0.00  0.00    +0.000 OA
ATOM     31  C   UNL     1      54.460  -2.048  18.004  0.00  0.00    +0.000 A 
ATOM     32  H   UNL     1      53.288  -4.429  19.947  0.00  0.00    +0.000 HD
ENDBRANCH  19  22
ENDBRANCH  17  18
ENDBRANCH   4  17
TORSDOF 6
ENDMDL
