MODEL 1
REMARK VINA RESULT:    -8.046      0.000      0.000
REMARK INTER + INTRA:         -10.858
REMARK INTER:                 -10.163
REMARK INTRA:                  -0.695
REMARK UNBOUND:                -0.695
REMARK  Name = 
REMARK  6 active torsions:
REMARK  status: ('A' for Active; 'I' for Inactive)
REMARK    1  A    between atoms: C_1  and  O_2
REMARK    2  A    between atoms: O_2  and  C_3
REMARK    3  A    between atoms: N_11  and  C_12
REMARK    4  A    between atoms: C_12  and  C_13
REMARK    5  A    between atoms: C_16  and  C_17
REMARK    6  A    between atoms: C_17  and  N_18
REMARK                            x       y       z     vdW  Elec       q    Type
REMARK                         _______ _______ _______ _____ _____    ______ ____
ROOT
ATOM      1  C   UNL     1      46.366   4.805  14.030  0.00  0.00    +0.000 A 
ATOM      2  C   UNL     1      47.343   5.704  13.579  0.00  0.00    +0.000 A 
ATOM      3  C   UNL     1      47.247   6.296  12.319  0.00  0.00    +0.000 A 
ATOM      4  C   UNL     1      46.200   5.977  11.451  0.00  0.00    +0.000 A 
ATOM      5  C   UNL     1      45.257   5.026  11.870  0.00  0.00    +0.000 A 
ATOM      6  C   UNL     1      45.311   4.454  13.152  0.00  0.00    +0.000 A 
ATOM      7  C   UNL     1      44.190   3.586  13.265  0.00  0.00    +0.000 A 
ATOM      8  C   UNL     1      43.510   3.611  12.071  0.00  0.00    +0.000 A 
ATOM      9  N   UNL     1      44.174   4.458  11.217  0.00  0.00    +0.000 N 
ENDROOT
BRANCH   1  11
ATOM     10  C   UNL     1      47.559   4.481  16.046  0.00  0.00    +0.000 C 
ATOM     11  O   UNL     1      46.407   4.198  15.267  0.00  0.00    +0.000 OA
ENDBRANCH   1  11
BRANCH   9  12
ATOM     12  C   UNL     1      43.850   4.589   9.795  0.00  0.00    +0.000 C 
BRANCH  12  13
ATOM     13  C   UNL     1      44.764   3.763   8.925  0.00  0.00    +0.000 A 
ATOM     14  C   UNL     1      44.802   2.370   9.054  0.00  0.00    +0.000 A 
ATOM     15  C   UNL     1      45.763   1.620   8.373  0.00  0.00    +0.000 A 
ATOM     16  C   UNL     1      46.702   2.241   7.538  0.00  0.00    +0.000 A 
ATOM     17  C   UNL     1      46.605   3.625   7.341  0.00  0.00    +0.000 A 
ATOM     18  C   UNL     1      45.641   4.377   8.020  0.00  0.00    +0.000 A 
BRANCH  16  19
ATOM     19  C   UNL     1      47.871   1.436   7.015  0.00  0.00    +0.000 C 
BRANCH  19  20
ATOM     20  N   UNL     1      48.378   1.906   5.729  0.00  0.00    +0.000 NA
ATOM     21  H   UNL     1      47.772   2.652   5.390  0.00  0.00    +0.000 HD
ATOM     22  H   UNL     1      48.294   1.147   5.053  0.00  0.00    +0.000 HD
ENDBRANCH  19  20
ENDBRANCH  16  19
ENDBRANCH  12  13
ENDBRANCH   9  12
TORSDOF 5
ENDMDL
MODEL 2
REMARK VINA RESULT:    -7.828      1.193      1.404
REMARK INTER + INTRA:         -10.582
REMARK INTER:                  -9.933
REMARK INTRA:                  -0.650
REMARK UNBOUND:                -0.695
REMARK  Name = 
REMARK  6 active torsions:
REMARK  status: ('A' for Active; 'I' for Inactive)
REMARK    1  A    between atoms: C_1  and  O_2
REMARK    2  A    between atoms: O_2  and  C_3
REMARK    3  A    between atoms: N_11  and  C_12
REMARK    4  A    between atoms: C_12  and  C_13
REMARK    5  A    between atoms: C_16  and  C_17
REMARK    6  A    between atoms: C_17  and  N_18
REMARK                            x       y       z     vdW  Elec       q    Type
REMARK                         _______ _______ _______ _____ _____    ______ ____
ROOT
ATOM      1  C   UNL     1      47.432   6.202  13.532  0.00  0.00    +0.000 A 
ATOM      2  C   UNL     1      47.425   7.463  12.918  0.00  0.00    +0.000 A 
ATOM      3  C   UNL     1      46.523   7.759  11.896  0.00  0.00    +0.000 A 
ATOM      4  C   UNL     1      45.630   6.795  11.421  0.00  0.00    +0.000 A 
ATOM      5  C   UNL     1      45.679   5.511  11.983  0.00  0.00    +0.000 A 
ATOM      6  C   UNL     1      46.549   5.207  13.045  0.00  0.00    +0.000 A 
ATOM      7  C   UNL     1      46.306   3.853  13.405  0.00  0.00    +0.000 A 
ATOM      8  C   UNL     1      45.346   3.352  12.557  0.00  0.00    +0.000 A 
ATOM      9  N   UNL     1      44.991   4.347  11.677  0.00  0.00    +0.000 N 
ENDROOT
BRANCH   1  11
ATOM     10  C   UNL     1      48.682   6.924  15.405  0.00  0.00    +0.000 C 
ATOM     11  O   UNL     1      48.295   5.859  14.551  0.00  0.00    +0.000 OA
ENDBRANCH   1  11
BRANCH   9  12
ATOM     12  C   UNL     1      44.135   4.125  10.510  0.00  0.00    +0.000 C 
BRANCH  12  13
ATOM     13  C   UNL     1      44.886   3.490   9.367  0.00  0.00    +0.000 A 
ATOM     14  C   UNL     1      44.981   2.098   9.264  0.00  0.00    +0.000 A 
ATOM     15  C   UNL     1      45.812   1.511   8.307  0.00  0.00    +0.000 A 
ATOM     16  C   UNL     1      46.559   2.302   7.421  0.00  0.00    +0.000 A 
ATOM     17  C   UNL     1      46.393   3.692   7.468  0.00  0.00    +0.000 A 
ATOM     18  C   UNL     1      45.559   4.280   8.423  0.00  0.00    +0.000 A 
BRANCH  16  19
ATOM     19  C   UNL     1      47.626   1.648   6.571  0.00  0.00    +0.000 C 
BRANCH  19  20
ATOM     20  N   UNL     1      48.675   2.568   6.138  0.00  0.00    +0.000 NA
ATOM     21  H   UNL     1      48.285   3.508   6.082  0.00  0.00    +0.000 HD
ATOM     22  H   UNL     1      48.947   2.320   5.187  0.00  0.00    +0.000 HD
ENDBRANCH  19  20
ENDBRANCH  16  19
ENDBRANCH  12  13
ENDBRANCH   9  12
TORSDOF 5
ENDMDL
MODEL 3
REMARK VINA RESULT:    -5.150      3.667      6.142
REMARK INTER + INTRA:          -7.200
REMARK INTER:                  -6.533
REMARK INTRA:                  -0.667
REMARK UNBOUND:                -0.695
REMARK  Name = 
REMARK  6 active torsions:
REMARK  status: ('A' for Active; 'I' for Inactive)
REMARK    1  A    between atoms: C_1  and  O_2
REMARK    2  A    between atoms: O_2  and  C_3
REMARK    3  A    between atoms: N_11  and  C_12
REMARK    4  A    between atoms: C_12  and  C_13
REMARK    5  A    between atoms: C_16  and  C_17
REMARK    6  A    between atoms: C_17  and  N_18
REMARK                            x       y       z     vdW  Elec       q    Type
REMARK                         _______ _______ _______ _____ _____    ______ ____
ROOT
ATOM      1  C   UNL     1      44.877   4.171  11.759  0.00  0.00    +0.000 A 
ATOM      2  C   UNL     1      45.628   3.264  12.520  0.00  0.00    +0.000 A 
ATOM      3  C   UNL     1      46.536   3.710  13.480  0.00  0.00    +0.000 A 
ATOM      4  C   UNL     1      46.759   5.074  13.682  0.00  0.00    +0.000 A 
ATOM      5  C   UNL     1      46.063   5.987  12.875  0.00  0.00    +0.000 A 
ATOM      6  C   UNL     1      45.111   5.557  11.935  0.00  0.00    +0.000 A 
ATOM      7  C   UNL     1      44.563   6.727  11.338  0.00  0.00    +0.000 A 
ATOM      8  C   UNL     1      45.197   7.819  11.880  0.00  0.00    +0.000 A 
ATOM      9  N   UNL     1      46.127   7.369  12.786  0.00  0.00    +0.000 N 
ENDROOT
BRANCH   1  11
ATOM     10  C   UNL     1      44.475   2.965   9.765  0.00  0.00    +0.000 C 
ATOM     11  O   UNL     1      43.962   3.786  10.803  0.00  0.00    +0.000 OA
ENDBRANCH   1  11
BRANCH   9  12
ATOM     12  C   UNL     1      47.123   8.235  13.420  0.00  0.00    +0.000 C 
BRANCH  12  13
ATOM     13  C   UNL     1      48.295   8.512  12.512  0.00  0.00    +0.000 A 
ATOM     14  C   UNL     1      49.185   7.489  12.166  0.00  0.00    +0.000 A 
ATOM     15  C   UNL     1      50.359   7.774  11.466  0.00  0.00    +0.000 A 
ATOM     16  C   UNL     1      50.668   9.088  11.085  0.00  0.00    +0.000 A 
ATOM     17  C   UNL     1      49.733  10.096  11.354  0.00  0.00    +0.000 A 
ATOM     18  C   UNL     1      48.555   9.811  12.051  0.00  0.00    +0.000 A 
BRANCH  16  19
ATOM     19  C   UNL     1      52.050   9.395  10.552  0.00  0.00    +0.000 C 
BRANCH  19  20
ATOM     20  N   UNL     1      53.056   8.403  10.925  0.00  0.00    +0.000 NA
ATOM     21  H   UNL     1      53.453   8.662  11.827  0.00  0.00    +0.000 HD
ATOM     22  H   UNL     1      53.822   8.455  10.256  0.00  0.00    +0.000 HD
ENDBRANCH  19  20
ENDBRANCH  16  19
ENDBRANCH  12  13
ENDBRANCH   9  12
TORSDOF 5
ENDMDL
MODEL 4
REMARK VINA RESULT:    -5.104      3.470      5.667
REMARK INTER + INTRA:          -7.142
REMARK INTER:                  -6.599
REMARK INTRA:                  -0.543
REMARK UNBOUND:                -0.695
REMARK  Name = 
REMARK  6 active torsions:
REMARK  status: ('A' for Active; 'I' for Inactive)
REMARK    1  A    between atoms: C_1  and  O_2
REMARK    2  A    between atoms: O_2  and  C_3
REMARK    3  A    between atoms: N_11  and  C_12
REMARK    4  A    between atoms: C_12  and  C_13
REMARK    5  A    between atoms: C_16  and  C_17
REMARK    6  A    between atoms: C_17  and  N_18
REMARK                            x       y       z     vdW  Elec       q    Type
REMARK                         _______ _______ _______ _____ _____    ______ ____
ROOT
ATOM      1  C   UNL     1      51.233   7.955  14.207  0.00  0.00    +0.000 A 
ATOM      2  C   UNL     1      51.115   7.380  15.480  0.00  0.00    +0.000 A 
ATOM      3  C   UNL     1      49.915   6.805  15.900  0.00  0.00    +0.000 A 
ATOM      4  C   UNL     1      48.782   6.824  15.083  0.00  0.00    +0.000 A 
ATOM      5  C   UNL     1      48.874   7.459  13.836  0.00  0.00    +0.000 A 
ATOM      6  C   UNL     1      50.086   8.003  13.377  0.00  0.00    +0.000 A 
ATOM      7  C   UNL     1      49.843   8.513  12.071  0.00  0.00    +0.000 A 
ATOM      8  C   UNL     1      48.515   8.313  11.776  0.00  0.00    +0.000 A 
ATOM      9  N   UNL     1      47.923   7.704  12.857  0.00  0.00    +0.000 N 
ENDROOT
BRANCH   1  11
ATOM     10  C   UNL     1      53.596   8.016  14.297  0.00  0.00    +0.000 C 
ATOM     11  O   UNL     1      52.396   8.529  13.738  0.00  0.00    +0.000 OA
ENDBRANCH   1  11
BRANCH   9  12
ATOM     12  C   UNL     1      46.477   7.508  12.982  0.00  0.00    +0.000 C 
BRANCH  12  13
ATOM     13  C   UNL     1      46.020   6.222  12.342  0.00  0.00    +0.000 A 
ATOM     14  C   UNL     1      45.715   6.175  10.977  0.00  0.00    +0.000 A 
ATOM     15  C   UNL     1      45.134   5.035  10.417  0.00  0.00    +0.000 A 
ATOM     16  C   UNL     1      44.854   3.909  11.205  0.00  0.00    +0.000 A 
ATOM     17  C   UNL     1      45.243   3.926  12.551  0.00  0.00    +0.000 A 
ATOM     18  C   UNL     1      45.828   5.065  13.112  0.00  0.00    +0.000 A 
BRANCH  16  19
ATOM     19  C   UNL     1      44.008   2.797  10.627  0.00  0.00    +0.000 C 
BRANCH  19  20
ATOM     20  N   UNL     1      43.075   2.211  11.587  0.00  0.00    +0.000 NA
ATOM     21  H   UNL     1      43.063   2.788  12.427  0.00  0.00    +0.000 HD
ATOM     22  H   UNL     1      43.439   1.304  11.875  0.00  0.00    +0.000 HD
ENDBRANCH  19  20
ENDBRANCH  16  19
ENDBRANCH  12  13
ENDBRANCH   9  12
TORSDOF 5
ENDMDL
