MODEL 1
REMARK VINA RESULT:    -7.601      0.000      0.000
REMARK INTER + INTRA:         -12.020
REMARK INTER:                 -10.934
REMARK INTRA:                  -1.085
REMARK UNBOUND:                -1.085
REMARK  Name = 
REMARK  8 active torsions:
REMARK  status: ('A' for Active; 'I' for Inactive)
REMARK    1  A    between atoms: C_2  and  C_20
REMARK    2  A    between atoms: N_3  and  C_4
REMARK    3  A    between atoms: C_4  and  C_5
REMARK    4  A    between atoms: C_8  and  C_9
REMARK    5  A    between atoms: C_9  and  C_10
REMARK    6  A    between atoms: C_10  and  C_11
REMARK    7  A    between atoms: C_11  and  N_12
REMARK    8  A    between atoms: C_15  and  O_16
REMARK                            x       y       z     vdW  Elec       q    Type
REMARK                         _______ _______ _______ _____ _____    ______ ____
ROOT
ATOM      1  C   UNL     1      46.980   7.655  13.041  0.00  0.00    +0.000 C 
ENDROOT
BRANCH   1   2
ATOM      2  C   UNL     1      46.168   6.695  12.213  0.00  0.00    +0.000 A 
ATOM      3  C   UNL     1      46.325   6.657  10.823  0.00  0.00    +0.000 A 
ATOM      4  C   UNL     1      45.603   5.746  10.051  0.00  0.00    +0.000 A 
ATOM      5  C   UNL     1      44.709   4.850  10.654  0.00  0.00    +0.000 A 
ATOM      6  C   UNL     1      44.518   4.923  12.039  0.00  0.00    +0.000 A 
ATOM      7  C   UNL     1      45.236   5.839  12.811  0.00  0.00    +0.000 A 
BRANCH   5   8
ATOM      8  C   UNL     1      43.943   3.841   9.833  0.00  0.00    +0.000 C 
BRANCH   8   9
ATOM      9  C   UNL     1      44.584   2.451   9.772  0.00  0.00    +0.000 C 
BRANCH   9  10
ATOM     10  C   UNL     1      45.997   2.441   9.165  0.00  0.00    +0.000 C 
BRANCH  10  11
ATOM     11  N   UNL     1      45.947   2.140   7.727  0.00  0.00    +0.000 NA
ATOM     12  C   UNL     1      45.999   3.345   6.885  0.00  0.00    +0.000 C 
ATOM     13  C   UNL     1      46.713   2.915   5.619  0.00  0.00    +0.000 C 
ATOM     14  C   UNL     1      47.747   1.938   6.142  0.00  0.00    +0.000 C 
ATOM     15  C   UNL     1      47.021   1.227   7.286  0.00  0.00    +0.000 C 
BRANCH  14  16
ATOM     16  O   UNL     1      48.887   2.649   6.628  0.00  0.00    +0.000 OA
ATOM     17  H   UNL     1      49.104   2.287   7.506  0.00  0.00    +0.000 HD
ENDBRANCH  14  16
ENDBRANCH  10  11
ENDBRANCH   9  10
ENDBRANCH   8   9
ENDBRANCH   5   8
ENDBRANCH   1   2
BRANCH   1  20
ATOM     18  O   UNL     1      49.548   6.933  13.920  0.00  0.00    +0.000 OA
ATOM     19  C   UNL     1      48.599   6.794  14.688  0.00  0.00    +0.000 C 
ATOM     20  N   UNL     1      47.312   7.099  14.328  0.00  0.00    +0.000 N 
ATOM     21  H   UNL     1      46.589   7.139  15.038  0.00  0.00    +0.000 HD
BRANCH  19  22
ATOM     22  C   UNL     1      48.782   6.230  16.031  0.00  0.00    +0.000 A 
ATOM     23  C   UNL     1      49.475   6.960  16.989  0.00  0.00    +0.000 A 
ATOM     24  S   UNL     1      49.605   6.167  18.492  0.00  0.00    +0.000 S 
ATOM     25  C   UNL     1      48.706   4.837  17.928  0.00  0.00    +0.000 A 
ATOM     26  N   UNL     1      48.413   3.795  18.750  0.00  0.00    +0.000 NA
ATOM     27  C   UNL     1      47.684   2.877  18.209  0.00  0.00    +0.000 A 
ATOM     28  N   UNL     1      47.240   2.895  16.913  0.00  0.00    +0.000 N 
ATOM     29  C   UNL     1      47.581   3.883  16.023  0.00  0.00    +0.000 A 
ATOM     30  O   UNL     1      47.293   3.797  14.833  0.00  0.00    +0.000 OA
ATOM     31  C   UNL     1      48.344   4.981  16.599  0.00  0.00    +0.000 A 
ATOM     32  H   UNL     1      46.706   2.125  16.537  0.00  0.00    +0.000 HD
ENDBRANCH  19  22
ENDBRANCH   1  20
TORSDOF 8
ENDMDL
MODEL 2
REMARK VINA RESULT:    -7.273      2.825      8.159
REMARK INTER + INTRA:         -11.547
REMARK INTER:                 -10.118
REMARK INTRA:                  -1.429
REMARK UNBOUND:                -1.085
REMARK  Name = 
REMARK  8 active torsions:
REMARK  status: ('A' for Active; 'I' for Inactive)
REMARK    1  A    between atoms: C_2  and  C_20
REMARK    2  A    between atoms: N_3  and  C_4
REMARK    3  A    between atoms: C_4  and  C_5
REMARK    4  A    between atoms: C_8  and  C_9
REMARK    5  A    between atoms: C_9  and  C_10
REMARK    6  A    between atoms: C_10  and  C_11
REMARK    7  A    between atoms: C_11  and  N_12
REMARK    8  A    between atoms: C_15  and  O_16
REMARK                            x       y       z     vdW  Elec       q    Type
REMARK                         _______ _______ _______ _____ _____    ______ ____
ROOT
ATOM      1  C   UNL     1      47.821   7.954  11.882  0.00  0.00    +0.000 C 
ENDROOT
BRANCH   1   2
ATOM      2  C   UNL     1      48.465   8.041  13.240  0.00  0.00    +0.000 A 
ATOM      3  C   UNL     1      47.837   8.745  14.273  0.00  0.00    +0.000 A 
ATOM      4  C   UNL     1      48.409   8.801  15.545  0.00  0.00    +0.000 A 
ATOM      5  C   UNL     1      49.621   8.149  15.812  0.00  0.00    +0.000 A 
ATOM      6  C   UNL     1      50.271   7.485  14.764  0.00  0.00    +0.000 A 
ATOM      7  C   UNL     1      49.702   7.435  13.490  0.00  0.00    +0.000 A 
BRANCH   5   8
ATOM      8  C   UNL     1      50.235   8.178  17.190  0.00  0.00    +0.000 C 
BRANCH   8   9
ATOM      9  C   UNL     1      50.440   6.800  17.826  0.00  0.00    +0.000 C 
BRANCH   9  10
ATOM     10  C   UNL     1      49.153   5.967  17.939  0.00  0.00    +0.000 C 
BRANCH  10  11
ATOM     11  N   UNL     1      49.152   4.869  16.962  0.00  0.00    +0.000 NA
ATOM     12  C   UNL     1      49.510   3.572  17.555  0.00  0.00    +0.000 C 
ATOM     13  C   UNL     1      48.739   2.541  16.753  0.00  0.00    +0.000 C 
ATOM     14  C   UNL     1      47.433   3.257  16.470  0.00  0.00    +0.000 C 
ATOM     15  C   UNL     1      47.860   4.712  16.263  0.00  0.00    +0.000 C 
BRANCH  14  16
ATOM     16  O   UNL     1      46.559   3.141  17.594  0.00  0.00    +0.000 OA
ATOM     17  H   UNL     1      46.994   3.575  18.349  0.00  0.00    +0.000 HD
ENDBRANCH  14  16
ENDBRANCH  10  11
ENDBRANCH   9  10
ENDBRANCH   8   9
ENDBRANCH   5   8
ENDBRANCH   1   2
BRANCH   1  20
ATOM     18  O   UNL     1      45.034   7.686  12.099  0.00  0.00    +0.000 OA
ATOM     19  C   UNL     1      45.704   6.692  11.825  0.00  0.00    +0.000 C 
ATOM     20  N   UNL     1      47.070   6.734  11.726  0.00  0.00    +0.000 N 
ATOM     21  H   UNL     1      47.568   5.945  11.328  0.00  0.00    +0.000 HD
BRANCH  19  22
ATOM     22  C   UNL     1      45.079   5.377  11.646  0.00  0.00    +0.000 A 
ATOM     23  C   UNL     1      44.405   4.790  12.710  0.00  0.00    +0.000 A 
ATOM     24  S   UNL     1      43.741   3.265  12.342  0.00  0.00    +0.000 S 
ATOM     25  C   UNL     1      44.296   3.351  10.736  0.00  0.00    +0.000 A 
ATOM     26  N   UNL     1      44.023   2.357   9.850  0.00  0.00    +0.000 NA
ATOM     27  C   UNL     1      44.461   2.572   8.655  0.00  0.00    +0.000 A 
ATOM     28  N   UNL     1      45.167   3.681   8.270  0.00  0.00    +0.000 N 
ATOM     29  C   UNL     1      45.539   4.669   9.148  0.00  0.00    +0.000 A 
ATOM     30  O   UNL     1      46.295   5.573   8.808  0.00  0.00    +0.000 OA
ATOM     31  C   UNL     1      45.011   4.512  10.495  0.00  0.00    +0.000 A 
ATOM     32  H   UNL     1      45.518   3.772   7.327  0.00  0.00    +0.000 HD
ENDBRANCH  19  22
ENDBRANCH   1  20
TORSDOF 8
ENDMDL
MODEL 3
REMARK VINA RESULT:    -7.011      1.858      2.549
REMARK INTER + INTRA:         -11.171
REMARK INTER:                 -10.349
REMARK INTRA:                  -0.821
REMARK UNBOUND:                -1.085
REMARK  Name = 
REMARK  8 active torsions:
REMARK  status: ('A' for Active; 'I' for Inactive)
REMARK    1  A    between atoms: C_2  and  C_20
REMARK    2  A    between atoms: N_3  and  C_4
REMARK    3  A    between atoms: C_4  and  C_5
REMARK    4  A    between atoms: C_8  and  C_9
REMARK    5  A    between atoms: C_9  and  C_10
REMARK    6  A    between atoms: C_10  and  C_11
REMARK    7  A    between atoms: C_11  and  N_12
REMARK    8  A    between atoms: C_15  and  O_16
REMARK                            x       y       z     vdW  Elec       q    Type
REMARK                         _______ _______ _______ _____ _____    ______ ____
ROOT
ATOM      1  C   UNL     1      47.755   7.124  13.685  0.00  0.00    +0.000 C 
ENDROOT
BRANCH   1   2
ATOM      2  C   UNL     1      46.825   6.290  12.845  0.00  0.00    +0.000 A 
ATOM      3  C   UNL     1      46.350   5.064  13.327  0.00  0.00    +0.000 A 
ATOM      4  C   UNL     1      45.459   4.301  12.571  0.00  0.00    +0.000 A 
ATOM      5  C   UNL     1      45.022   4.749  11.316  0.00  0.00    +0.000 A 
ATOM      6  C   UNL     1      45.536   5.951  10.815  0.00  0.00    +0.000 A 
ATOM      7  C   UNL     1      46.432   6.712  11.570  0.00  0.00    +0.000 A 
BRANCH   5   8
ATOM      8  C   UNL     1      44.037   3.947  10.501  0.00  0.00    +0.000 C 
BRANCH   8   9
ATOM      9  C   UNL     1      44.639   2.732   9.788  0.00  0.00    +0.000 C 
BRANCH   9  10
ATOM     10  C   UNL     1      45.948   3.033   9.039  0.00  0.00    +0.000 C 
BRANCH  10  11
ATOM     11  N   UNL     1      45.917   2.469   7.682  0.00  0.00    +0.000 NA
ATOM     12  C   UNL     1      46.069   3.487   6.633  0.00  0.00    +0.000 C 
ATOM     13  C   UNL     1      46.787   2.784   5.497  0.00  0.00    +0.000 C 
ATOM     14  C   UNL     1      47.741   1.864   6.233  0.00  0.00    +0.000 C 
ATOM     15  C   UNL     1      46.940   1.427   7.462  0.00  0.00    +0.000 C 
BRANCH  14  16
ATOM     16  O   UNL     1      48.912   2.585   6.621  0.00  0.00    +0.000 OA
ATOM     17  H   UNL     1      48.636   3.273   7.253  0.00  0.00    +0.000 HD
ENDBRANCH  14  16
ENDBRANCH  10  11
ENDBRANCH   9  10
ENDBRANCH   8   9
ENDBRANCH   5   8
ENDBRANCH   1   2
BRANCH   1  20
ATOM     18  O   UNL     1      50.060   6.626  15.210  0.00  0.00    +0.000 OA
ATOM     19  C   UNL     1      48.959   6.474  15.735  0.00  0.00    +0.000 C 
ATOM     20  N   UNL     1      47.787   6.672  15.052  0.00  0.00    +0.000 N 
ATOM     21  H   UNL     1      46.911   6.711  15.561  0.00  0.00    +0.000 HD
BRANCH  19  22
ATOM     22  C   UNL     1      48.834   6.009  17.121  0.00  0.00    +0.000 A 
ATOM     23  C   UNL     1      49.170   4.697  17.434  0.00  0.00    +0.000 A 
ATOM     24  S   UNL     1      48.964   4.313  19.082  0.00  0.00    +0.000 S 
ATOM     25  C   UNL     1      48.457   5.897  19.443  0.00  0.00    +0.000 A 
ATOM     26  N   UNL     1      48.155   6.258  20.718  0.00  0.00    +0.000 NA
ATOM     27  C   UNL     1      47.832   7.500  20.858  0.00  0.00    +0.000 A 
ATOM     28  N   UNL     1      47.760   8.408  19.835  0.00  0.00    +0.000 N 
ATOM     29  C   UNL     1      47.971   8.069  18.522  0.00  0.00    +0.000 A 
ATOM     30  O   UNL     1      47.755   8.866  17.614  0.00  0.00    +0.000 OA
ATOM     31  C   UNL     1      48.409   6.696  18.314  0.00  0.00    +0.000 A 
ATOM     32  H   UNL     1      47.460   9.358  20.004  0.00  0.00    +0.000 HD
ENDBRANCH  19  22
ENDBRANCH   1  20
TORSDOF 8
ENDMDL
MODEL 4
REMARK VINA RESULT:    -6.992      3.391      5.435
REMARK INTER + INTRA:         -11.144
REMARK INTER:                 -10.084
REMARK INTRA:                  -1.060
REMARK UNBOUND:                -1.085
REMARK  Name = 
REMARK  8 active torsions:
REMARK  status: ('A' for Active; 'I' for Inactive)
REMARK    1  A    between atoms: C_2  and  C_20
REMARK    2  A    between atoms: N_3  and  C_4
REMARK    3  A    between atoms: C_4  and  C_5
REMARK    4  A    between atoms: C_8  and  C_9
REMARK    5  A    between atoms: C_9  and  C_10
REMARK    6  A    between atoms: C_10  and  C_11
REMARK    7  A    between atoms: C_11  and  N_12
REMARK    8  A    between atoms: C_15  and  O_16
REMARK                            x       y       z     vdW  Elec       q    Type
REMARK                         _______ _______ _______ _____ _____    ______ ____
ROOT
ATOM      1  C   UNL     1      47.829   3.802  17.352  0.00  0.00    +0.000 C 
ENDROOT
BRANCH   1   2
ATOM      2  C   UNL     1      47.680   4.551  16.054  0.00  0.00    +0.000 A 
ATOM      3  C   UNL     1      46.941   3.997  15.002  0.00  0.00    +0.000 A 
ATOM      4  C   UNL     1      46.768   4.699  13.809  0.00  0.00    +0.000 A 
ATOM      5  C   UNL     1      47.327   5.975  13.643  0.00  0.00    +0.000 A 
ATOM      6  C   UNL     1      48.105   6.506  14.679  0.00  0.00    +0.000 A 
ATOM      7  C   UNL     1      48.284   5.800  15.871  0.00  0.00    +0.000 A 
BRANCH   5   8
ATOM      8  C   UNL     1      47.122   6.756  12.369  0.00  0.00    +0.000 C 
BRANCH   8   9
ATOM      9  C   UNL     1      46.294   6.034  11.302  0.00  0.00    +0.000 C 
BRANCH   9  10
ATOM     10  C   UNL     1      44.776   6.227  11.454  0.00  0.00    +0.000 C 
BRANCH  10  11
ATOM     11  N   UNL     1      44.040   5.162  10.759  0.00  0.00    +0.000 NA
ATOM     12  C   UNL     1      44.924   4.189  10.099  0.00  0.00    +0.000 C 
ATOM     13  C   UNL     1      44.176   2.871  10.155  0.00  0.00    +0.000 C 
ATOM     14  C   UNL     1      43.491   2.940  11.505  0.00  0.00    +0.000 C 
ATOM     15  C   UNL     1      43.119   4.419  11.641  0.00  0.00    +0.000 C 
BRANCH  14  16
ATOM     16  O   UNL     1      44.401   2.550  12.535  0.00  0.00    +0.000 OA
ATOM     17  H   UNL     1      43.871   2.289  13.309  0.00  0.00    +0.000 HD
ENDBRANCH  14  16
ENDBRANCH  10  11
ENDBRANCH   9  10
ENDBRANCH   8   9
ENDBRANCH   5   8
ENDBRANCH   1   2
BRANCH   1  20
ATOM     18  O   UNL     1      49.364   1.759  16.187  0.00  0.00    +0.000 OA
ATOM     19  C   UNL     1      49.895   2.503  17.009  0.00  0.00    +0.000 C 
ATOM     20  N   UNL     1      49.209   3.507  17.641  0.00  0.00    +0.000 N 
ATOM     21  H   UNL     1      49.718   4.204  18.173  0.00  0.00    +0.000 HD
BRANCH  19  22
ATOM     22  C   UNL     1      51.294   2.319  17.411  0.00  0.00    +0.000 A 
ATOM     23  C   UNL     1      51.808   1.033  17.527  0.00  0.00    +0.000 A 
ATOM     24  S   UNL     1      53.443   0.990  18.006  0.00  0.00    +0.000 S 
ATOM     25  C   UNL     1      53.534   2.688  18.038  0.00  0.00    +0.000 A 
ATOM     26  N   UNL     1      54.700   3.318  18.341  0.00  0.00    +0.000 NA
ATOM     27  C   UNL     1      54.642   4.606  18.281  0.00  0.00    +0.000 A 
ATOM     28  N   UNL     1      53.517   5.323  17.968  0.00  0.00    +0.000 N 
ATOM     29  C   UNL     1      52.299   4.734  17.739  0.00  0.00    +0.000 A 
ATOM     30  O   UNL     1      51.280   5.406  17.607  0.00  0.00    +0.000 OA
ATOM     31  C   UNL     1      52.322   3.279  17.724  0.00  0.00    +0.000 A 
ATOM     32  H   UNL     1      53.526   6.333  17.978  0.00  0.00    +0.000 HD
ENDBRANCH  19  22
ENDBRANCH   1  20
TORSDOF 8
ENDMDL
MODEL 5
REMARK VINA RESULT:    -6.870      3.541      5.228
REMARK INTER + INTRA:         -10.967
REMARK INTER:                  -9.917
REMARK INTRA:                  -1.050
REMARK UNBOUND:                -1.085
REMARK  Name = 
REMARK  8 active torsions:
REMARK  status: ('A' for Active; 'I' for Inactive)
REMARK    1  A    between atoms: C_2  and  C_20
REMARK    2  A    between atoms: N_3  and  C_4
REMARK    3  A    between atoms: C_4  and  C_5
REMARK    4  A    between atoms: C_8  and  C_9
REMARK    5  A    between atoms: C_9  and  C_10
REMARK    6  A    between atoms: C_10  and  C_11
REMARK    7  A    between atoms: C_11  and  N_12
REMARK    8  A    between atoms: C_15  and  O_16
REMARK                            x       y       z     vdW  Elec       q    Type
REMARK                         _______ _______ _______ _____ _____    ______ ____
ROOT
ATOM      1  C   UNL     1      48.256   4.411  17.263  0.00  0.00    +0.000 C 
ENDROOT
BRANCH   1   2
ATOM      2  C   UNL     1      47.928   5.037  15.933  0.00  0.00    +0.000 A 
ATOM      3  C   UNL     1      47.032   4.408  15.061  0.00  0.00    +0.000 A 
ATOM      4  C   UNL     1      46.695   4.998  13.843  0.00  0.00    +0.000 A 
ATOM      5  C   UNL     1      47.244   6.233  13.471  0.00  0.00    +0.000 A 
ATOM      6  C   UNL     1      48.177   6.837  14.323  0.00  0.00    +0.000 A 
ATOM      7  C   UNL     1      48.519   6.243  15.540  0.00  0.00    +0.000 A 
BRANCH   5   8
ATOM      8  C   UNL     1      46.865   6.895  12.169  0.00  0.00    +0.000 C 
BRANCH   8   9
ATOM      9  C   UNL     1      46.078   6.003  11.204  0.00  0.00    +0.000 C 
BRANCH   9  10
ATOM     10  C   UNL     1      44.558   6.232  11.242  0.00  0.00    +0.000 C 
BRANCH  10  11
ATOM     11  N   UNL     1      43.842   5.091  10.654  0.00  0.00    +0.000 NA
ATOM     12  C   UNL     1      44.734   4.137   9.980  0.00  0.00    +0.000 C 
ATOM     13  C   UNL     1      44.075   2.783  10.154  0.00  0.00    +0.000 C 
ATOM     14  C   UNL     1      43.482   2.884  11.545  0.00  0.00    +0.000 C 
ATOM     15  C   UNL     1      43.031   4.344  11.637  0.00  0.00    +0.000 C 
BRANCH  14  16
ATOM     16  O   UNL     1      44.484   2.601  12.524  0.00  0.00    +0.000 OA
ATOM     17  H   UNL     1      45.016   3.408  12.640  0.00  0.00    +0.000 HD
ENDBRANCH  14  16
ENDBRANCH  10  11
ENDBRANCH   9  10
ENDBRANCH   8   9
ENDBRANCH   5   8
ENDBRANCH   1   2
BRANCH   1  20
ATOM     18  O   UNL     1      50.035   4.912  19.378  0.00  0.00    +0.000 OA
ATOM     19  C   UNL     1      50.431   4.262  18.413  0.00  0.00    +0.000 C 
ATOM     20  N   UNL     1      49.634   3.996  17.331  0.00  0.00    +0.000 N 
ATOM     21  H   UNL     1      49.934   3.314  16.643  0.00  0.00    +0.000 HD
BRANCH  19  22
ATOM     22  C   UNL     1      51.814   3.778  18.337  0.00  0.00    +0.000 A 
ATOM     23  C   UNL     1      52.850   4.604  18.756  0.00  0.00    +0.000 A 
ATOM     24  S   UNL     1      54.394   3.898  18.599  0.00  0.00    +0.000 S 
ATOM     25  C   UNL     1      53.730   2.450  18.002  0.00  0.00    +0.000 A 
ATOM     26  N   UNL     1      54.527   1.391  17.699  0.00  0.00    +0.000 NA
ATOM     27  C   UNL     1      53.890   0.340  17.304  0.00  0.00    +0.000 A 
ATOM     28  N   UNL     1      52.529   0.259  17.161  0.00  0.00    +0.000 N 
ATOM     29  C   UNL     1      51.694   1.327  17.373  0.00  0.00    +0.000 A 
ATOM     30  O   UNL     1      50.500   1.267  17.095  0.00  0.00    +0.000 OA
ATOM     31  C   UNL     1      52.352   2.518  17.889  0.00  0.00    +0.000 A 
ATOM     32  H   UNL     1      52.094  -0.581  16.808  0.00  0.00    +0.000 HD
ENDBRANCH  19  22
ENDBRANCH   1  20
TORSDOF 8
ENDMDL
MODEL 6
REMARK VINA RESULT:    -6.854      3.462      7.920
REMARK INTER + INTRA:         -10.944
REMARK INTER:                  -9.649
REMARK INTRA:                  -1.295
REMARK UNBOUND:                -1.085
REMARK  Name = 
REMARK  8 active torsions:
REMARK  status: ('A' for Active; 'I' for Inactive)
REMARK    1  A    between atoms: C_2  and  C_20
REMARK    2  A    between atoms: N_3  and  C_4
REMARK    3  A    between atoms: C_4  and  C_5
REMARK    4  A    between atoms: C_8  and  C_9
REMARK    5  A    between atoms: C_9  and  C_10
REMARK    6  A    between atoms: C_10  and  C_11
REMARK    7  A    between atoms: C_11  and  N_12
REMARK    8  A    between atoms: C_15  and  O_16
REMARK                            x       y       z     vdW  Elec       q    Type
REMARK                         _______ _______ _______ _____ _____    ______ ____
ROOT
ATOM      1  C   UNL     1      48.222   8.179  12.054  0.00  0.00    +0.000 C 
ENDROOT
BRANCH   1   2
ATOM      2  C   UNL     1      48.947   7.780  13.312  0.00  0.00    +0.000 A 
ATOM      3  C   UNL     1      48.313   6.971  14.263  0.00  0.00    +0.000 A 
ATOM      4  C   UNL     1      48.988   6.566  15.415  0.00  0.00    +0.000 A 
ATOM      5  C   UNL     1      50.315   6.960  15.640  0.00  0.00    +0.000 A 
ATOM      6  C   UNL     1      50.931   7.808  14.711  0.00  0.00    +0.000 A 
ATOM      7  C   UNL     1      50.252   8.218  13.561  0.00  0.00    +0.000 A 
BRANCH   5   8
ATOM      8  C   UNL     1      51.066   6.506  16.867  0.00  0.00    +0.000 C 
BRANCH   8   9
ATOM      9  C   UNL     1      50.281   5.564  17.784  0.00  0.00    +0.000 C 
BRANCH   9  10
ATOM     10  C   UNL     1      50.829   4.128  17.821  0.00  0.00    +0.000 C 
BRANCH  10  11
ATOM     11  N   UNL     1      49.741   3.156  18.002  0.00  0.00    +0.000 NA
ATOM     12  C   UNL     1      48.428   3.791  18.189  0.00  0.00    +0.000 C 
ATOM     13  C   UNL     1      47.429   2.825  17.581  0.00  0.00    +0.000 C 
ATOM     14  C   UNL     1      48.186   2.280  16.387  0.00  0.00    +0.000 C 
ATOM     15  C   UNL     1      49.630   2.193  16.888  0.00  0.00    +0.000 C 
BRANCH  14  16
ATOM     16  O   UNL     1      48.084   3.187  15.288  0.00  0.00    +0.000 OA
ATOM     17  H   UNL     1      48.121   2.661  14.470  0.00  0.00    +0.000 HD
ENDBRANCH  14  16
ENDBRANCH  10  11
ENDBRANCH   9  10
ENDBRANCH   8   9
ENDBRANCH   5   8
ENDBRANCH   1   2
BRANCH   1  20
ATOM     18  O   UNL     1      45.436   7.856  11.909  0.00  0.00    +0.000 OA
ATOM     19  C   UNL     1      46.158   6.993  11.414  0.00  0.00    +0.000 C 
ATOM     20  N   UNL     1      47.526   7.064  11.464  0.00  0.00    +0.000 N 
ATOM     21  H   UNL     1      48.082   6.433  10.896  0.00  0.00    +0.000 HD
BRANCH  19  22
ATOM     22  C   UNL     1      45.592   5.794  10.785  0.00  0.00    +0.000 A 
ATOM     23  C   UNL     1      45.853   5.538   9.445  0.00  0.00    +0.000 A 
ATOM     24  S   UNL     1      45.120   4.113   8.866  0.00  0.00    +0.000 S 
ATOM     25  C   UNL     1      44.460   3.766  10.395  0.00  0.00    +0.000 A 
ATOM     26  N   UNL     1      43.734   2.636  10.601  0.00  0.00    +0.000 NA
ATOM     27  C   UNL     1      43.335   2.472  11.817  0.00  0.00    +0.000 A 
ATOM     28  N   UNL     1      43.576   3.348  12.843  0.00  0.00    +0.000 N 
ATOM     29  C   UNL     1      44.229   4.542  12.664  0.00  0.00    +0.000 A 
ATOM     30  O   UNL     1      44.301   5.371  13.565  0.00  0.00    +0.000 OA
ATOM     31  C   UNL     1      44.764   4.745  11.325  0.00  0.00    +0.000 A 
ATOM     32  H   UNL     1      43.200   3.183  13.766  0.00  0.00    +0.000 HD
ENDBRANCH  19  22
ENDBRANCH   1  20
TORSDOF 8
ENDMDL
MODEL 7
REMARK VINA RESULT:    -6.700      2.314      3.620
REMARK INTER + INTRA:         -10.723
REMARK INTER:                  -9.721
REMARK INTRA:                  -1.002
REMARK UNBOUND:                -1.085
REMARK  Name = 
REMARK  8 active torsions:
REMARK  status: ('A' for Active; 'I' for Inactive)
REMARK    1  A    between atoms: C_2  and  C_20
REMARK    2  A    between atoms: N_3  and  C_4
REMARK    3  A    between atoms: C_4  and  C_5
REMARK    4  A    between atoms: C_8  and  C_9
REMARK    5  A    between atoms: C_9  and  C_10
REMARK    6  A    between atoms: C_10  and  C_11
REMARK    7  A    between atoms: C_11  and  N_12
REMARK    8  A    between atoms: C_15  and  O_16
REMARK                            x       y       z     vdW  Elec       q    Type
REMARK                         _______ _______ _______ _____ _____    ______ ____
ROOT
ATOM      1  C   UNL     1      47.521   4.018  15.436  0.00  0.00    +0.000 C 
ENDROOT
BRANCH   1   2
ATOM      2  C   UNL     1      46.880   4.370  14.120  0.00  0.00    +0.000 A 
ATOM      3  C   UNL     1      46.965   5.675  13.622  0.00  0.00    +0.000 A 
ATOM      4  C   UNL     1      46.405   6.002  12.386  0.00  0.00    +0.000 A 
ATOM      5  C   UNL     1      45.750   5.028  11.619  0.00  0.00    +0.000 A 
ATOM      6  C   UNL     1      45.624   3.735  12.141  0.00  0.00    +0.000 A 
ATOM      7  C   UNL     1      46.179   3.410  13.381  0.00  0.00    +0.000 A 
BRANCH   5   8
ATOM      8  C   UNL     1      45.165   5.362  10.269  0.00  0.00    +0.000 C 
BRANCH   8   9
ATOM      9  C   UNL     1      44.155   4.339   9.740  0.00  0.00    +0.000 C 
BRANCH   9  10
ATOM     10  C   UNL     1      44.519   3.757   8.364  0.00  0.00    +0.000 C 
BRANCH  10  11
ATOM     11  N   UNL     1      45.895   3.239   8.361  0.00  0.00    +0.000 NA
ATOM     12  C   UNL     1      45.962   1.784   8.163  0.00  0.00    +0.000 C 
ATOM     13  C   UNL     1      47.262   1.542   7.421  0.00  0.00    +0.000 C 
ATOM     14  C   UNL     1      47.343   2.745   6.503  0.00  0.00    +0.000 C 
ATOM     15  C   UNL     1      46.756   3.879   7.347  0.00  0.00    +0.000 C 
BRANCH  14  16
ATOM     16  O   UNL     1      46.552   2.521   5.335  0.00  0.00    +0.000 OA
ATOM     17  H   UNL     1      46.295   1.582   5.331  0.00  0.00    +0.000 HD
ENDBRANCH  14  16
ENDBRANCH  10  11
ENDBRANCH   9  10
ENDBRANCH   8   9
ENDBRANCH   5   8
ENDBRANCH   1   2
BRANCH   1  20
ATOM     18  O   UNL     1      49.747   5.238  16.637  0.00  0.00    +0.000 OA
ATOM     19  C   UNL     1      48.627   5.679  16.882  0.00  0.00    +0.000 C 
ATOM     20  N   UNL     1      47.489   5.126  16.356  0.00  0.00    +0.000 N 
ATOM     21  H   UNL     1      46.607   5.621  16.438  0.00  0.00    +0.000 HD
BRANCH  19  22
ATOM     22  C   UNL     1      48.436   6.800  17.810  0.00  0.00    +0.000 A 
ATOM     23  C   UNL     1      48.377   6.554  19.176  0.00  0.00    +0.000 A 
ATOM     24  S   UNL     1      48.148   7.958  20.115  0.00  0.00    +0.000 S 
ATOM     25  C   UNL     1      48.159   8.949  18.732  0.00  0.00    +0.000 A 
ATOM     26  N   UNL     1      48.045  10.300  18.842  0.00  0.00    +0.000 NA
ATOM     27  C   UNL     1      48.118  10.934  17.720  0.00  0.00    +0.000 A 
ATOM     28  N   UNL     1      48.271  10.339  16.496  0.00  0.00    +0.000 N 
ATOM     29  C   UNL     1      48.305   8.978  16.328  0.00  0.00    +0.000 A 
ATOM     30  O   UNL     1      48.294   8.472  15.210  0.00  0.00    +0.000 OA
ATOM     31  C   UNL     1      48.298   8.214  17.568  0.00  0.00    +0.000 A 
ATOM     32  H   UNL     1      48.281  10.890  15.649  0.00  0.00    +0.000 HD
ENDBRANCH  19  22
ENDBRANCH   1  20
TORSDOF 8
ENDMDL
MODEL 8
REMARK VINA RESULT:    -6.464      2.527      3.309
REMARK INTER + INTRA:         -10.384
REMARK INTER:                  -9.359
REMARK INTRA:                  -1.025
REMARK UNBOUND:                -1.085
REMARK  Name = 
REMARK  8 active torsions:
REMARK  status: ('A' for Active; 'I' for Inactive)
REMARK    1  A    between atoms: C_2  and  C_20
REMARK    2  A    between atoms: N_3  and  C_4
REMARK    3  A    between atoms: C_4  and  C_5
REMARK    4  A    between atoms: C_8  and  C_9
REMARK    5  A    between atoms: C_9  and  C_10
REMARK    6  A    between atoms: C_10  and  C_11
REMARK    7  A    between atoms: C_11  and  N_12
REMARK    8  A    between atoms: C_15  and  O_16
REMARK                            x       y       z     vdW  Elec       q    Type
REMARK                         _______ _______ _______ _____ _____    ______ ____
ROOT
ATOM      1  C   UNL     1      47.740   4.612  14.927  0.00  0.00    +0.000 C 
ENDROOT
BRANCH   1   2
ATOM      2  C   UNL     1      46.759   4.591  13.785  0.00  0.00    +0.000 A 
ATOM      3  C   UNL     1      46.293   3.371  13.279  0.00  0.00    +0.000 A 
ATOM      4  C   UNL     1      45.357   3.343  12.245  0.00  0.00    +0.000 A 
ATOM      5  C   UNL     1      44.863   4.534  11.695  0.00  0.00    +0.000 A 
ATOM      6  C   UNL     1      45.366   5.752  12.170  0.00  0.00    +0.000 A 
ATOM      7  C   UNL     1      46.308   5.780  13.201  0.00  0.00    +0.000 A 
BRANCH   5   8
ATOM      8  C   UNL     1      43.829   4.517  10.596  0.00  0.00    +0.000 C 
BRANCH   8   9
ATOM      9  C   UNL     1      44.402   4.375   9.183  0.00  0.00    +0.000 C 
BRANCH   9  10
ATOM     10  C   UNL     1      44.595   2.918   8.731  0.00  0.00    +0.000 C 
BRANCH  10  11
ATOM     11  N   UNL     1      46.020   2.619   8.523  0.00  0.00    +0.000 NA
ATOM     12  C   UNL     1      46.253   1.259   8.015  0.00  0.00    +0.000 C 
ATOM     13  C   UNL     1      47.494   1.365   7.150  0.00  0.00    +0.000 C 
ATOM     14  C   UNL     1      47.329   2.727   6.507  0.00  0.00    +0.000 C 
ATOM     15  C   UNL     1      46.687   3.569   7.611  0.00  0.00    +0.000 C 
BRANCH  14  16
ATOM     16  O   UNL     1      46.463   2.630   5.375  0.00  0.00    +0.000 OA
ATOM     17  H   UNL     1      45.615   3.043   5.619  0.00  0.00    +0.000 HD
ENDBRANCH  14  16
ENDBRANCH  10  11
ENDBRANCH   9  10
ENDBRANCH   8   9
ENDBRANCH   5   8
ENDBRANCH   1   2
BRANCH   1  20
ATOM     18  O   UNL     1      49.914   6.344  15.328  0.00  0.00    +0.000 OA
ATOM     19  C   UNL     1      48.812   6.666  15.766  0.00  0.00    +0.000 C 
ATOM     20  N   UNL     1      47.707   5.867  15.634  0.00  0.00    +0.000 N 
ATOM     21  H   UNL     1      46.789   6.241  15.848  0.00  0.00    +0.000 HD
BRANCH  19  22
ATOM     22  C   UNL     1      48.626   7.914  16.516  0.00  0.00    +0.000 A 
ATOM     23  C   UNL     1      48.832   9.131  15.879  0.00  0.00    +0.000 A 
ATOM     24  S   UNL     1      48.581  10.482  16.886  0.00  0.00    +0.000 S 
ATOM     25  C   UNL     1      48.149   9.491  18.199  0.00  0.00    +0.000 A 
ATOM     26  N   UNL     1      47.773  10.033  19.387  0.00  0.00    +0.000 NA
ATOM     27  C   UNL     1      47.425   9.169  20.281  0.00  0.00    +0.000 A 
ATOM     28  N   UNL     1      47.441   7.810  20.102  0.00  0.00    +0.000 N 
ATOM     29  C   UNL     1      47.894   7.216  18.951  0.00  0.00    +0.000 A 
ATOM     30  O   UNL     1      48.037   6.000  18.875  0.00  0.00    +0.000 OA
ATOM     31  C   UNL     1      48.233   8.145  17.883  0.00  0.00    +0.000 A 
ATOM     32  H   UNL     1      47.195   7.185  20.856  0.00  0.00    +0.000 HD
ENDBRANCH  19  22
ENDBRANCH   1  20
TORSDOF 8
ENDMDL
MODEL 9
REMARK VINA RESULT:    -6.361      4.052      8.998
REMARK INTER + INTRA:         -10.235
REMARK INTER:                  -8.964
REMARK INTRA:                  -1.271
REMARK UNBOUND:                -1.085
REMARK  Name = 
REMARK  8 active torsions:
REMARK  status: ('A' for Active; 'I' for Inactive)
REMARK    1  A    between atoms: C_2  and  C_20
REMARK    2  A    between atoms: N_3  and  C_4
REMARK    3  A    between atoms: C_4  and  C_5
REMARK    4  A    between atoms: C_8  and  C_9
REMARK    5  A    between atoms: C_9  and  C_10
REMARK    6  A    between atoms: C_10  and  C_11
REMARK    7  A    between atoms: C_11  and  N_12
REMARK    8  A    between atoms: C_15  and  O_16
REMARK                            x       y       z     vdW  Elec       q    Type
REMARK                         _______ _______ _______ _____ _____    ______ ____
ROOT
ATOM      1  C   UNL     1      47.202   3.335  16.870  0.00  0.00    +0.000 C 
ENDROOT
BRANCH   1   2
ATOM      2  C   UNL     1      48.650   3.508  17.246  0.00  0.00    +0.000 A 
ATOM      3  C   UNL     1      49.094   4.716  17.797  0.00  0.00    +0.000 A 
ATOM      4  C   UNL     1      50.427   4.873  18.182  0.00  0.00    +0.000 A 
ATOM      5  C   UNL     1      51.343   3.823  18.027  0.00  0.00    +0.000 A 
ATOM      6  C   UNL     1      50.907   2.633  17.432  0.00  0.00    +0.000 A 
ATOM      7  C   UNL     1      49.575   2.478  17.041  0.00  0.00    +0.000 A 
BRANCH   5   8
ATOM      8  C   UNL     1      52.779   3.971  18.466  0.00  0.00    +0.000 C 
BRANCH   8   9
ATOM      9  C   UNL     1      53.669   4.746  17.489  0.00  0.00    +0.000 C 
BRANCH   9  10
ATOM     10  C   UNL     1      54.104   6.128  18.004  0.00  0.00    +0.000 C 
BRANCH  10  11
ATOM     11  N   UNL     1      53.809   7.173  17.013  0.00  0.00    +0.000 NA
ATOM     12  C   UNL     1      52.822   6.750  16.008  0.00  0.00    +0.000 C 
ATOM     13  C   UNL     1      52.074   8.013  15.629  0.00  0.00    +0.000 C 
ATOM     14  C   UNL     1      51.998   8.756  16.948  0.00  0.00    +0.000 C 
ATOM     15  C   UNL     1      53.335   8.433  17.618  0.00  0.00    +0.000 C 
BRANCH  14  16
ATOM     16  O   UNL     1      50.908   8.259  17.726  0.00  0.00    +0.000 OA
ATOM     17  H   UNL     1      50.095   8.381  17.203  0.00  0.00    +0.000 HD
ENDBRANCH  14  16
ENDBRANCH  10  11
ENDBRANCH   9  10
ENDBRANCH   8   9
ENDBRANCH   5   8
ENDBRANCH   1   2
BRANCH   1  20
ATOM     18  O   UNL     1      47.317   3.081  14.075  0.00  0.00    +0.000 OA
ATOM     19  C   UNL     1      46.849   4.111  14.557  0.00  0.00    +0.000 C 
ATOM     20  N   UNL     1      46.780   4.322  15.909  0.00  0.00    +0.000 N 
ATOM     21  H   UNL     1      46.231   5.096  16.268  0.00  0.00    +0.000 HD
BRANCH  19  22
ATOM     22  C   UNL     1      46.385   5.210  13.702  0.00  0.00    +0.000 A 
ATOM     23  C   UNL     1      47.212   6.307  13.493  0.00  0.00    +0.000 A 
ATOM     24  S   UNL     1      46.527   7.496  12.482  0.00  0.00    +0.000 S 
ATOM     25  C   UNL     1      45.118   6.570  12.257  0.00  0.00    +0.000 A 
ATOM     26  N   UNL     1      44.118   7.008  11.446  0.00  0.00    +0.000 NA
ATOM     27  C   UNL     1      43.130   6.186  11.326  0.00  0.00    +0.000 A 
ATOM     28  N   UNL     1      43.040   4.975  11.961  0.00  0.00    +0.000 N 
ATOM     29  C   UNL     1      43.983   4.531  12.853  0.00  0.00    +0.000 A 
ATOM     30  O   UNL     1      43.804   3.514  13.517  0.00  0.00    +0.000 OA
ATOM     31  C   UNL     1      45.155   5.386  12.973  0.00  0.00    +0.000 A 
ATOM     32  H   UNL     1      42.220   4.395  11.857  0.00  0.00    +0.000 HD
ENDBRANCH  19  22
ENDBRANCH   1  20
TORSDOF 8
ENDMDL
