MODEL 1
REMARK VINA RESULT:    -7.839      0.000      0.000
REMARK INTER + INTRA:         -12.306
REMARK INTER:                 -11.047
REMARK INTRA:                  -1.258
REMARK UNBOUND:                -1.258
REMARK  Name = 
REMARK  8 active torsions:
REMARK  status: ('A' for Active; 'I' for Inactive)
REMARK    1  A    between atoms: C_1  and  O_2
REMARK    2  A    between atoms: O_2  and  C_3
REMARK    3  A    between atoms: C_10  and  C_11
REMARK    4  A    between atoms: N_13  and  C_14
REMARK    5  A    between atoms: C_14  and  C_15
REMARK    6  A    between atoms: C_18  and  N_19
REMARK    7  A    between atoms: N_19  and  C_20
REMARK    8  A    between atoms: C_20  and  C_21
REMARK                            x       y       z     vdW  Elec       q    Type
REMARK                         _______ _______ _______ _____ _____    ______ ____
ROOT
ATOM      1  C   UNL     1      46.223   7.750  12.798  0.00  0.00    +0.000 C 
ENDROOT
BRANCH   1   2
ATOM      2  C   UNL     1      45.721   6.711  11.834  0.00  0.00    +0.000 A 
ATOM      3  C   UNL     1      44.493   6.080  12.051  0.00  0.00    +0.000 A 
ATOM      4  C   UNL     1      43.953   5.223  11.085  0.00  0.00    +0.000 A 
ATOM      5  C   UNL     1      44.633   4.938   9.895  0.00  0.00    +0.000 A 
ATOM      6  C   UNL     1      45.893   5.525   9.718  0.00  0.00    +0.000 A 
ATOM      7  C   UNL     1      46.437   6.393  10.676  0.00  0.00    +0.000 A 
BRANCH   5   8
ATOM      8  N   UNL     1      44.070   4.226   8.827  0.00  0.00    +0.000 N 
ATOM      9  H   UNL     1      44.133   4.752   7.957  0.00  0.00    +0.000 HD
BRANCH   8  10
ATOM     10  C   UNL     1      44.318   2.794   8.712  0.00  0.00    +0.000 C 
BRANCH  10  11
ATOM     11  C   UNL     1      45.754   2.475   8.269  0.00  0.00    +0.000 C 
ATOM     12  C   UNL     1      46.017   3.169   6.919  0.00  0.00    +0.000 C 
ATOM     13  C   UNL     1      47.349   2.753   6.314  0.00  0.00    +0.000 C 
ATOM     14  O   UNL     1      47.424   1.335   6.199  0.00  0.00    +0.000 OA
ATOM     15  C   UNL     1      47.358   0.696   7.472  0.00  0.00    +0.000 C 
ATOM     16  C   UNL     1      46.017   0.968   8.141  0.00  0.00    +0.000 C 
ENDBRANCH  10  11
ENDBRANCH   8  10
ENDBRANCH   5   8
ENDBRANCH   1   2
BRANCH   1  19
ATOM     17  C   UNL     1      48.141   6.953  14.073  0.00  0.00    +0.000 C 
ATOM     18  O   UNL     1      48.880   7.203  13.123  0.00  0.00    +0.000 OA
ATOM     19  N   UNL     1      46.794   7.184  13.993  0.00  0.00    +0.000 N 
ATOM     20  H   UNL     1      46.185   7.007  14.781  0.00  0.00    +0.000 HD
BRANCH  17  28
ATOM     21  C   UNL     1      47.297   4.240  16.024  0.00  0.00    +0.000 A 
ATOM     22  N   UNL     1      47.159   3.299  16.980  0.00  0.00    +0.000 NA
ATOM     23  C   UNL     1      47.999   3.330  18.019  0.00  0.00    +0.000 A 
ATOM     24  N   UNL     1      48.987   4.195  18.223  0.00  0.00    +0.000 NA
ATOM     25  C   UNL     1      49.081   5.123  17.255  0.00  0.00    +0.000 A 
ATOM     26  S   UNL     1      50.294   6.306  17.351  0.00  0.00    +0.000 S 
ATOM     27  C   UNL     1      49.770   7.025  15.905  0.00  0.00    +0.000 A 
ATOM     28  C   UNL     1      48.678   6.392  15.321  0.00  0.00    +0.000 A 
ATOM     29  C   UNL     1      48.277   5.241  16.125  0.00  0.00    +0.000 A 
BRANCH  21  31
ATOM     30  C   UNL     1      46.999   3.555  13.811  0.00  0.00    +0.000 C 
ATOM     31  O   UNL     1      46.433   4.203  14.949  0.00  0.00    +0.000 OA
ENDBRANCH  21  31
ENDBRANCH  17  28
ENDBRANCH   1  19
TORSDOF 7
ENDMDL
MODEL 2
REMARK VINA RESULT:    -7.595      1.948      3.365
REMARK INTER + INTRA:         -11.962
REMARK INTER:                 -10.751
REMARK INTRA:                  -1.211
REMARK UNBOUND:                -1.258
REMARK  Name = 
REMARK  8 active torsions:
REMARK  status: ('A' for Active; 'I' for Inactive)
REMARK    1  A    between atoms: C_1  and  O_2
REMARK    2  A    between atoms: O_2  and  C_3
REMARK    3  A    between atoms: C_10  and  C_11
REMARK    4  A    between atoms: N_13  and  C_14
REMARK    5  A    between atoms: C_14  and  C_15
REMARK    6  A    between atoms: C_18  and  N_19
REMARK    7  A    between atoms: N_19  and  C_20
REMARK    8  A    between atoms: C_20  and  C_21
REMARK                            x       y       z     vdW  Elec       q    Type
REMARK                         _______ _______ _______ _____ _____    ______ ____
ROOT
ATOM      1  C   UNL     1      46.606   4.387  14.578  0.00  0.00    +0.000 C 
ENDROOT
BRANCH   1   2
ATOM      2  C   UNL     1      46.069   4.633  13.195  0.00  0.00    +0.000 A 
ATOM      3  C   UNL     1      46.349   5.829  12.530  0.00  0.00    +0.000 A 
ATOM      4  C   UNL     1      45.979   6.004  11.191  0.00  0.00    +0.000 A 
ATOM      5  C   UNL     1      45.286   5.012  10.487  0.00  0.00    +0.000 A 
ATOM      6  C   UNL     1      44.953   3.842  11.184  0.00  0.00    +0.000 A 
ATOM      7  C   UNL     1      45.330   3.655  12.522  0.00  0.00    +0.000 A 
BRANCH   5   8
ATOM      8  N   UNL     1      45.039   5.063   9.108  0.00  0.00    +0.000 N 
ATOM      9  H   UNL     1      45.674   5.708   8.642  0.00  0.00    +0.000 HD
BRANCH   8  10
ATOM     10  C   UNL     1      44.757   3.829   8.386  0.00  0.00    +0.000 C 
BRANCH  10  11
ATOM     11  C   UNL     1      46.033   3.060   8.009  0.00  0.00    +0.000 C 
ATOM     12  C   UNL     1      46.342   3.321   6.523  0.00  0.00    +0.000 C 
ATOM     13  C   UNL     1      47.480   2.450   6.014  0.00  0.00    +0.000 C 
ATOM     14  O   UNL     1      47.202   1.073   6.259  0.00  0.00    +0.000 OA
ATOM     15  C   UNL     1      47.090   0.795   7.653  0.00  0.00    +0.000 C 
ATOM     16  C   UNL     1      45.914   1.549   8.259  0.00  0.00    +0.000 C 
ENDBRANCH  10  11
ENDBRANCH   8  10
ENDBRANCH   5   8
ENDBRANCH   1   2
BRANCH   1  19
ATOM     17  C   UNL     1      48.374   5.220  16.034  0.00  0.00    +0.000 C 
ATOM     18  O   UNL     1      48.496   4.101  16.530  0.00  0.00    +0.000 OA
ATOM     19  N   UNL     1      47.443   5.457  15.058  0.00  0.00    +0.000 N 
ATOM     20  H   UNL     1      47.357   6.367  14.627  0.00  0.00    +0.000 HD
BRANCH  17  28
ATOM     21  C   UNL     1      50.132   7.678  14.376  0.00  0.00    +0.000 A 
ATOM     22  N   UNL     1      50.933   8.694  13.997  0.00  0.00    +0.000 NA
ATOM     23  C   UNL     1      51.542   9.404  14.952  0.00  0.00    +0.000 A 
ATOM     24  N   UNL     1      51.443   9.229  16.265  0.00  0.00    +0.000 NA
ATOM     25  C   UNL     1      50.647   8.199  16.599  0.00  0.00    +0.000 A 
ATOM     26  S   UNL     1      50.400   7.834  18.239  0.00  0.00    +0.000 S 
ATOM     27  C   UNL     1      49.392   6.526  17.842  0.00  0.00    +0.000 A 
ATOM     28  C   UNL     1      49.218   6.339  16.476  0.00  0.00    +0.000 A 
ATOM     29  C   UNL     1      49.960   7.354  15.732  0.00  0.00    +0.000 A 
BRANCH  21  31
ATOM     30  C   UNL     1      49.750   7.461  12.082  0.00  0.00    +0.000 C 
ATOM     31  O   UNL     1      49.498   6.949  13.390  0.00  0.00    +0.000 OA
ENDBRANCH  21  31
ENDBRANCH  17  28
ENDBRANCH   1  19
TORSDOF 7
ENDMDL
MODEL 3
REMARK VINA RESULT:    -7.532      2.085      3.207
REMARK INTER + INTRA:         -11.873
REMARK INTER:                 -10.982
REMARK INTRA:                  -0.891
REMARK UNBOUND:                -1.258
REMARK  Name = 
REMARK  8 active torsions:
REMARK  status: ('A' for Active; 'I' for Inactive)
REMARK    1  A    between atoms: C_1  and  O_2
REMARK    2  A    between atoms: O_2  and  C_3
REMARK    3  A    between atoms: C_10  and  C_11
REMARK    4  A    between atoms: N_13  and  C_14
REMARK    5  A    between atoms: C_14  and  C_15
REMARK    6  A    between atoms: C_18  and  N_19
REMARK    7  A    between atoms: N_19  and  C_20
REMARK    8  A    between atoms: C_20  and  C_21
REMARK                            x       y       z     vdW  Elec       q    Type
REMARK                         _______ _______ _______ _____ _____    ______ ____
ROOT
ATOM      1  C   UNL     1      45.813   4.389  14.728  0.00  0.00    +0.000 C 
ENDROOT
BRANCH   1   2
ATOM      2  C   UNL     1      45.727   4.453  13.228  0.00  0.00    +0.000 A 
ATOM      3  C   UNL     1      45.152   3.403  12.507  0.00  0.00    +0.000 A 
ATOM      4  C   UNL     1      44.936   3.520  11.129  0.00  0.00    +0.000 A 
ATOM      5  C   UNL     1      45.319   4.666  10.421  0.00  0.00    +0.000 A 
ATOM      6  C   UNL     1      45.954   5.685  11.143  0.00  0.00    +0.000 A 
ATOM      7  C   UNL     1      46.165   5.581  12.526  0.00  0.00    +0.000 A 
BRANCH   5   8
ATOM      8  N   UNL     1      44.979   4.905   9.082  0.00  0.00    +0.000 N 
ATOM      9  H   UNL     1      45.512   5.683   8.698  0.00  0.00    +0.000 HD
BRANCH   8  10
ATOM     10  C   UNL     1      44.780   3.777   8.183  0.00  0.00    +0.000 C 
BRANCH  10  11
ATOM     11  C   UNL     1      46.071   2.983   7.934  0.00  0.00    +0.000 C 
ATOM     12  C   UNL     1      46.550   3.261   6.497  0.00  0.00    +0.000 C 
ATOM     13  C   UNL     1      47.717   2.370   6.101  0.00  0.00    +0.000 C 
ATOM     14  O   UNL     1      47.382   0.997   6.287  0.00  0.00    +0.000 OA
ATOM     15  C   UNL     1      47.109   0.699   7.654  0.00  0.00    +0.000 C 
ATOM     16  C   UNL     1      45.891   1.472   8.140  0.00  0.00    +0.000 C 
ENDBRANCH  10  11
ENDBRANCH   8  10
ENDBRANCH   5   8
ENDBRANCH   1   2
BRANCH   1  19
ATOM     17  C   UNL     1      47.343   3.618  16.461  0.00  0.00    +0.000 C 
ATOM     18  O   UNL     1      46.391   3.384  17.202  0.00  0.00    +0.000 OA
ATOM     19  N   UNL     1      47.147   4.134  15.207  0.00  0.00    +0.000 N 
ATOM     20  H   UNL     1      47.925   4.302  14.583  0.00  0.00    +0.000 HD
BRANCH  17  28
ATOM     21  C   UNL     1      49.735   5.513  18.064  0.00  0.00    +0.000 A 
ATOM     22  N   UNL     1      50.849   6.027  18.622  0.00  0.00    +0.000 NA
ATOM     23  C   UNL     1      51.928   5.243  18.710  0.00  0.00    +0.000 A 
ATOM     24  N   UNL     1      52.033   3.980  18.311  0.00  0.00    +0.000 NA
ATOM     25  C   UNL     1      50.906   3.511  17.749  0.00  0.00    +0.000 A 
ATOM     26  S   UNL     1      50.858   1.910  17.187  0.00  0.00    +0.000 S 
ATOM     27  C   UNL     1      49.254   2.094  16.661  0.00  0.00    +0.000 A 
ATOM     28  C   UNL     1      48.722   3.357  16.897  0.00  0.00    +0.000 A 
ATOM     29  C   UNL     1      49.710   4.200  17.565  0.00  0.00    +0.000 A 
BRANCH  21  31
ATOM     30  C   UNL     1      47.787   6.233  19.135  0.00  0.00    +0.000 C 
ATOM     31  O   UNL     1      48.619   6.322  17.979  0.00  0.00    +0.000 OA
ENDBRANCH  21  31
ENDBRANCH  17  28
ENDBRANCH   1  19
TORSDOF 7
ENDMDL
MODEL 4
REMARK VINA RESULT:    -7.309      1.778      2.433
REMARK INTER + INTRA:         -11.558
REMARK INTER:                 -10.316
REMARK INTRA:                  -1.242
REMARK UNBOUND:                -1.258
REMARK  Name = 
REMARK  8 active torsions:
REMARK  status: ('A' for Active; 'I' for Inactive)
REMARK    1  A    between atoms: C_1  and  O_2
REMARK    2  A    between atoms: O_2  and  C_3
REMARK    3  A    between atoms: C_10  and  C_11
REMARK    4  A    between atoms: N_13  and  C_14
REMARK    5  A    between atoms: C_14  and  C_15
REMARK    6  A    between atoms: C_18  and  N_19
REMARK    7  A    between atoms: N_19  and  C_20
REMARK    8  A    between atoms: C_20  and  C_21
REMARK                            x       y       z     vdW  Elec       q    Type
REMARK                         _______ _______ _______ _____ _____    ______ ____
ROOT
ATOM      1  C   UNL     1      47.827   7.112  13.636  0.00  0.00    +0.000 C 
ENDROOT
BRANCH   1   2
ATOM      2  C   UNL     1      46.912   6.099  13.004  0.00  0.00    +0.000 A 
ATOM      3  C   UNL     1      46.243   6.396  11.814  0.00  0.00    +0.000 A 
ATOM      4  C   UNL     1      45.508   5.409  11.144  0.00  0.00    +0.000 A 
ATOM      5  C   UNL     1      45.385   4.113  11.657  0.00  0.00    +0.000 A 
ATOM      6  C   UNL     1      46.006   3.845  12.885  0.00  0.00    +0.000 A 
ATOM      7  C   UNL     1      46.753   4.824  13.556  0.00  0.00    +0.000 A 
BRANCH   5   8
ATOM      8  N   UNL     1      44.807   3.047  10.953  0.00  0.00    +0.000 N 
ATOM      9  H   UNL     1      44.376   2.376  11.585  0.00  0.00    +0.000 HD
BRANCH   8  10
ATOM     10  C   UNL     1      44.068   3.318   9.727  0.00  0.00    +0.000 C 
BRANCH  10  11
ATOM     11  C   UNL     1      44.834   2.886   8.466  0.00  0.00    +0.000 C 
ATOM     12  C   UNL     1      45.694   1.656   8.811  0.00  0.00    +0.000 C 
ATOM     13  C   UNL     1      46.629   1.276   7.674  0.00  0.00    +0.000 C 
ATOM     14  O   UNL     1      47.433   2.390   7.295  0.00  0.00    +0.000 OA
ATOM     15  C   UNL     1      46.643   3.471   6.806  0.00  0.00    +0.000 C 
ATOM     16  C   UNL     1      45.723   4.001   7.898  0.00  0.00    +0.000 C 
ENDBRANCH  10  11
ENDBRANCH   8  10
ENDBRANCH   5   8
ENDBRANCH   1   2
BRANCH   1  19
ATOM     17  C   UNL     1      48.983   7.479  15.749  0.00  0.00    +0.000 C 
ATOM     18  O   UNL     1      49.919   8.004  15.149  0.00  0.00    +0.000 OA
ATOM     19  N   UNL     1      47.898   6.992  15.069  0.00  0.00    +0.000 N 
ATOM     20  H   UNL     1      47.114   6.584  15.560  0.00  0.00    +0.000 HD
BRANCH  17  28
ATOM     21  C   UNL     1      48.863   4.794  17.908  0.00  0.00    +0.000 A 
ATOM     22  N   UNL     1      48.782   3.955  18.960  0.00  0.00    +0.000 NA
ATOM     23  C   UNL     1      48.795   4.482  20.188  0.00  0.00    +0.000 A 
ATOM     24  N   UNL     1      48.890   5.769  20.505  0.00  0.00    +0.000 NA
ATOM     25  C   UNL     1      48.955   6.572  19.429  0.00  0.00    +0.000 A 
ATOM     26  S   UNL     1      49.087   8.250  19.647  0.00  0.00    +0.000 S 
ATOM     27  C   UNL     1      49.094   8.514  17.970  0.00  0.00    +0.000 A 
ATOM     28  C   UNL     1      49.001   7.351  17.213  0.00  0.00    +0.000 A 
ATOM     29  C   UNL     1      48.933   6.186  18.091  0.00  0.00    +0.000 A 
BRANCH  21  31
ATOM     30  C   UNL     1      48.060   3.068  16.556  0.00  0.00    +0.000 C 
ATOM     31  O   UNL     1      48.856   4.249  16.641  0.00  0.00    +0.000 OA
ENDBRANCH  21  31
ENDBRANCH  17  28
ENDBRANCH   1  19
TORSDOF 7
ENDMDL
MODEL 5
REMARK VINA RESULT:    -6.974      2.768      3.916
REMARK INTER + INTRA:         -11.086
REMARK INTER:                 -10.222
REMARK INTRA:                  -0.864
REMARK UNBOUND:                -1.258
REMARK  Name = 
REMARK  8 active torsions:
REMARK  status: ('A' for Active; 'I' for Inactive)
REMARK    1  A    between atoms: C_1  and  O_2
REMARK    2  A    between atoms: O_2  and  C_3
REMARK    3  A    between atoms: C_10  and  C_11
REMARK    4  A    between atoms: N_13  and  C_14
REMARK    5  A    between atoms: C_14  and  C_15
REMARK    6  A    between atoms: C_18  and  N_19
REMARK    7  A    between atoms: N_19  and  C_20
REMARK    8  A    between atoms: C_20  and  C_21
REMARK                            x       y       z     vdW  Elec       q    Type
REMARK                         _______ _______ _______ _____ _____    ______ ____
ROOT
ATOM      1  C   UNL     1      47.234   4.894  14.426  0.00  0.00    +0.000 C 
ENDROOT
BRANCH   1   2
ATOM      2  C   UNL     1      46.371   4.585  13.234  0.00  0.00    +0.000 A 
ATOM      3  C   UNL     1      46.094   5.574  12.287  0.00  0.00    +0.000 A 
ATOM      4  C   UNL     1      45.417   5.256  11.103  0.00  0.00    +0.000 A 
ATOM      5  C   UNL     1      44.962   3.958  10.844  0.00  0.00    +0.000 A 
ATOM      6  C   UNL     1      45.188   2.989  11.831  0.00  0.00    +0.000 A 
ATOM      7  C   UNL     1      45.876   3.296  13.015  0.00  0.00    +0.000 A 
BRANCH   5   8
ATOM      8  N   UNL     1      44.431   3.549   9.613  0.00  0.00    +0.000 N 
ATOM      9  H   UNL     1      43.414   3.510   9.643  0.00  0.00    +0.000 HD
BRANCH   8  10
ATOM     10  C   UNL     1      45.003   4.072   8.379  0.00  0.00    +0.000 C 
BRANCH  10  11
ATOM     11  C   UNL     1      45.616   2.973   7.498  0.00  0.00    +0.000 C 
ATOM     12  C   UNL     1      46.024   1.791   8.398  0.00  0.00    +0.000 C 
ATOM     13  C   UNL     1      46.811   0.738   7.636  0.00  0.00    +0.000 C 
ATOM     14  O   UNL     1      47.942   1.325   6.997  0.00  0.00    +0.000 OA
ATOM     15  C   UNL     1      47.556   2.299   6.030  0.00  0.00    +0.000 C 
ATOM     16  C   UNL     1      46.832   3.461   6.697  0.00  0.00    +0.000 C 
ENDBRANCH  10  11
ENDBRANCH   8  10
ENDBRANCH   5   8
ENDBRANCH   1   2
BRANCH   1  19
ATOM     17  C   UNL     1      48.604   6.722  15.274  0.00  0.00    +0.000 C 
ATOM     18  O   UNL     1      49.373   5.912  15.788  0.00  0.00    +0.000 OA
ATOM     19  N   UNL     1      47.499   6.301  14.583  0.00  0.00    +0.000 N 
ATOM     20  H   UNL     1      46.880   6.962  14.135  0.00  0.00    +0.000 HD
BRANCH  17  28
ATOM     21  C   UNL     1      48.146   9.018  17.804  0.00  0.00    +0.000 A 
ATOM     22  N   UNL     1      48.027  10.114  18.579  0.00  0.00    +0.000 NA
ATOM     23  C   UNL     1      48.396  11.292  18.065  0.00  0.00    +0.000 A 
ATOM     24  N   UNL     1      48.887  11.516  16.851  0.00  0.00    +0.000 NA
ATOM     25  C   UNL     1      48.977  10.401  16.107  0.00  0.00    +0.000 A 
ATOM     26  S   UNL     1      49.591  10.500  14.527  0.00  0.00    +0.000 S 
ATOM     27  C   UNL     1      49.376   8.832  14.290  0.00  0.00    +0.000 A 
ATOM     28  C   UNL     1      48.842   8.168  15.389  0.00  0.00    +0.000 A 
ATOM     29  C   UNL     1      48.619   9.109  16.483  0.00  0.00    +0.000 A 
BRANCH  21  31
ATOM     30  C   UNL     1      48.557   7.433  19.470  0.00  0.00    +0.000 C 
ATOM     31  O   UNL     1      47.771   7.802  18.337  0.00  0.00    +0.000 OA
ENDBRANCH  21  31
ENDBRANCH  17  28
ENDBRANCH   1  19
TORSDOF 7
ENDMDL
MODEL 6
REMARK VINA RESULT:    -6.901      2.266      3.157
REMARK INTER + INTRA:         -10.983
REMARK INTER:                 -10.158
REMARK INTRA:                  -0.825
REMARK UNBOUND:                -1.258
REMARK  Name = 
REMARK  8 active torsions:
REMARK  status: ('A' for Active; 'I' for Inactive)
REMARK    1  A    between atoms: C_1  and  O_2
REMARK    2  A    between atoms: O_2  and  C_3
REMARK    3  A    between atoms: C_10  and  C_11
REMARK    4  A    between atoms: N_13  and  C_14
REMARK    5  A    between atoms: C_14  and  C_15
REMARK    6  A    between atoms: C_18  and  N_19
REMARK    7  A    between atoms: N_19  and  C_20
REMARK    8  A    between atoms: C_20  and  C_21
REMARK                            x       y       z     vdW  Elec       q    Type
REMARK                         _______ _______ _______ _____ _____    ______ ____
ROOT
ATOM      1  C   UNL     1      46.473   4.420  14.536  0.00  0.00    +0.000 C 
ENDROOT
BRANCH   1   2
ATOM      2  C   UNL     1      46.068   4.423  13.088  0.00  0.00    +0.000 A 
ATOM      3  C   UNL     1      45.385   3.333  12.543  0.00  0.00    +0.000 A 
ATOM      4  C   UNL     1      44.876   3.390  11.240  0.00  0.00    +0.000 A 
ATOM      5  C   UNL     1      45.066   4.515  10.428  0.00  0.00    +0.000 A 
ATOM      6  C   UNL     1      45.810   5.576  10.962  0.00  0.00    +0.000 A 
ATOM      7  C   UNL     1      46.313   5.531  12.271  0.00  0.00    +0.000 A 
BRANCH   5   8
ATOM      8  N   UNL     1      44.442   4.694   9.186  0.00  0.00    +0.000 N 
ATOM      9  H   UNL     1      44.634   5.618   8.804  0.00  0.00    +0.000 HD
BRANCH   8  10
ATOM     10  C   UNL     1      44.447   3.603   8.219  0.00  0.00    +0.000 C 
BRANCH  10  11
ATOM     11  C   UNL     1      45.834   2.964   8.055  0.00  0.00    +0.000 C 
ATOM     12  C   UNL     1      46.429   3.420   6.710  0.00  0.00    +0.000 C 
ATOM     13  C   UNL     1      47.719   2.686   6.378  0.00  0.00    +0.000 C 
ATOM     14  O   UNL     1      47.514   1.276   6.412  0.00  0.00    +0.000 OA
ATOM     15  C   UNL     1      47.132   0.827   7.709  0.00  0.00    +0.000 C 
ATOM     16  C   UNL     1      45.794   1.430   8.115  0.00  0.00    +0.000 C 
ENDBRANCH  10  11
ENDBRANCH   8  10
ENDBRANCH   5   8
ENDBRANCH   1   2
BRANCH   1  19
ATOM     17  C   UNL     1      48.271   5.478  15.797  0.00  0.00    +0.000 C 
ATOM     18  O   UNL     1      48.562   4.393  16.297  0.00  0.00    +0.000 OA
ATOM     19  N   UNL     1      47.230   5.586  14.914  0.00  0.00    +0.000 N 
ATOM     20  H   UNL     1      47.004   6.471  14.479  0.00  0.00    +0.000 HD
BRANCH  17  28
ATOM     21  C   UNL     1      49.090   7.024  18.767  0.00  0.00    +0.000 A 
ATOM     22  N   UNL     1      49.501   7.849  19.750  0.00  0.00    +0.000 NA
ATOM     23  C   UNL     1      50.175   8.951  19.407  0.00  0.00    +0.000 A 
ATOM     24  N   UNL     1      50.505   9.336  18.178  0.00  0.00    +0.000 NA
ATOM     25  C   UNL     1      50.065   8.494  17.228  0.00  0.00    +0.000 A 
ATOM     26  S   UNL     1      50.403   8.827  15.598  0.00  0.00    +0.000 S 
ATOM     27  C   UNL     1      49.570   7.435  15.094  0.00  0.00    +0.000 A 
ATOM     28  C   UNL     1      49.025   6.693  16.136  0.00  0.00    +0.000 A 
ATOM     29  C   UNL     1      49.337   7.322  17.416  0.00  0.00    +0.000 A 
BRANCH  21  31
ATOM     30  C   UNL     1      47.376   6.139  20.084  0.00  0.00    +0.000 C 
ATOM     31  O   UNL     1      48.400   5.883  19.123  0.00  0.00    +0.000 OA
ENDBRANCH  21  31
ENDBRANCH  17  28
ENDBRANCH   1  19
TORSDOF 7
ENDMDL
MODEL 7
REMARK VINA RESULT:    -6.781      4.456      9.351
REMARK INTER + INTRA:         -10.814
REMARK INTER:                  -9.813
REMARK INTRA:                  -1.001
REMARK UNBOUND:                -1.258
REMARK  Name = 
REMARK  8 active torsions:
REMARK  status: ('A' for Active; 'I' for Inactive)
REMARK    1  A    between atoms: C_1  and  O_2
REMARK    2  A    between atoms: O_2  and  C_3
REMARK    3  A    between atoms: C_10  and  C_11
REMARK    4  A    between atoms: N_13  and  C_14
REMARK    5  A    between atoms: C_14  and  C_15
REMARK    6  A    between atoms: C_18  and  N_19
REMARK    7  A    between atoms: N_19  and  C_20
REMARK    8  A    between atoms: C_20  and  C_21
REMARK                            x       y       z     vdW  Elec       q    Type
REMARK                         _______ _______ _______ _____ _____    ______ ____
ROOT
ATOM      1  C   UNL     1      47.392   3.411  16.744  0.00  0.00    +0.000 C 
ENDROOT
BRANCH   1   2
ATOM      2  C   UNL     1      48.866   3.336  17.034  0.00  0.00    +0.000 A 
ATOM      3  C   UNL     1      49.558   4.468  17.472  0.00  0.00    +0.000 A 
ATOM      4  C   UNL     1      50.893   4.371  17.884  0.00  0.00    +0.000 A 
ATOM      5  C   UNL     1      51.588   3.157  17.837  0.00  0.00    +0.000 A 
ATOM      6  C   UNL     1      50.903   2.043  17.334  0.00  0.00    +0.000 A 
ATOM      7  C   UNL     1      49.563   2.128  16.930  0.00  0.00    +0.000 A 
BRANCH   5   8
ATOM      8  N   UNL     1      52.863   2.967  18.389  0.00  0.00    +0.000 N 
ATOM      9  H   UNL     1      52.809   2.503  19.294  0.00  0.00    +0.000 HD
BRANCH   8  10
ATOM     10  C   UNL     1      53.958   2.538  17.529  0.00  0.00    +0.000 C 
BRANCH  10  11
ATOM     11  C   UNL     1      54.729   1.341  18.106  0.00  0.00    +0.000 C 
ATOM     12  C   UNL     1      53.887   0.068  17.899  0.00  0.00    +0.000 C 
ATOM     13  C   UNL     1      54.488  -1.136  18.608  0.00  0.00    +0.000 C 
ATOM     14  O   UNL     1      54.684  -0.853  19.992  0.00  0.00    +0.000 OA
ATOM     15  C   UNL     1      55.605   0.216  20.189  0.00  0.00    +0.000 C 
ATOM     16  C   UNL     1      55.063   1.509  19.595  0.00  0.00    +0.000 C 
ENDBRANCH  10  11
ENDBRANCH   8  10
ENDBRANCH   5   8
ENDBRANCH   1   2
BRANCH   1  19
ATOM     17  C   UNL     1      46.957   4.293  14.515  0.00  0.00    +0.000 C 
ATOM     18  O   UNL     1      47.195   3.189  14.028  0.00  0.00    +0.000 OA
ATOM     19  N   UNL     1      47.043   4.498  15.866  0.00  0.00    +0.000 N 
ATOM     20  H   UNL     1      46.821   5.396  16.274  0.00  0.00    +0.000 HD
BRANCH  17  28
ATOM     21  C   UNL     1      44.119   5.087  12.727  0.00  0.00    +0.000 A 
ATOM     22  N   UNL     1      43.181   5.613  11.915  0.00  0.00    +0.000 NA
ATOM     23  C   UNL     1      43.454   6.770  11.303  0.00  0.00    +0.000 A 
ATOM     24  N   UNL     1      44.568   7.487  11.410  0.00  0.00    +0.000 NA
ATOM     25  C   UNL     1      45.482   6.921  12.216  0.00  0.00    +0.000 A 
ATOM     26  S   UNL     1      46.966   7.705  12.475  0.00  0.00    +0.000 S 
ATOM     27  C   UNL     1      47.500   6.456  13.493  0.00  0.00    +0.000 A 
ATOM     28  C   UNL     1      46.578   5.429  13.662  0.00  0.00    +0.000 A 
ATOM     29  C   UNL     1      45.361   5.718  12.908  0.00  0.00    +0.000 A 
BRANCH  21  31
ATOM     30  C   UNL     1      43.634   2.819  12.447  0.00  0.00    +0.000 C 
ATOM     31  O   UNL     1      43.833   3.896  13.362  0.00  0.00    +0.000 OA
ENDBRANCH  21  31
ENDBRANCH  17  28
ENDBRANCH   1  19
TORSDOF 7
ENDMDL
MODEL 8
REMARK VINA RESULT:    -6.564      2.441      3.432
REMARK INTER + INTRA:         -10.508
REMARK INTER:                  -9.127
REMARK INTRA:                  -1.382
REMARK UNBOUND:                -1.258
REMARK  Name = 
REMARK  8 active torsions:
REMARK  status: ('A' for Active; 'I' for Inactive)
REMARK    1  A    between atoms: C_1  and  O_2
REMARK    2  A    between atoms: O_2  and  C_3
REMARK    3  A    between atoms: C_10  and  C_11
REMARK    4  A    between atoms: N_13  and  C_14
REMARK    5  A    between atoms: C_14  and  C_15
REMARK    6  A    between atoms: C_18  and  N_19
REMARK    7  A    between atoms: N_19  and  C_20
REMARK    8  A    between atoms: C_20  and  C_21
REMARK                            x       y       z     vdW  Elec       q    Type
REMARK                         _______ _______ _______ _____ _____    ______ ____
ROOT
ATOM      1  C   UNL     1      48.479   8.391  13.830  0.00  0.00    +0.000 C 
ENDROOT
BRANCH   1   2
ATOM      2  C   UNL     1      47.277   8.175  12.953  0.00  0.00    +0.000 A 
ATOM      3  C   UNL     1      47.195   7.049  12.129  0.00  0.00    +0.000 A 
ATOM      4  C   UNL     1      46.019   6.766  11.424  0.00  0.00    +0.000 A 
ATOM      5  C   UNL     1      44.906   7.613  11.485  0.00  0.00    +0.000 A 
ATOM      6  C   UNL     1      45.023   8.773  12.263  0.00  0.00    +0.000 A 
ATOM      7  C   UNL     1      46.193   9.059  12.981  0.00  0.00    +0.000 A 
BRANCH   5   8
ATOM      8  N   UNL     1      43.655   7.296  10.939  0.00  0.00    +0.000 N 
ATOM      9  H   UNL     1      43.728   7.079   9.947  0.00  0.00    +0.000 HD
BRANCH   8  10
ATOM     10  C   UNL     1      42.735   6.458  11.697  0.00  0.00    +0.000 C 
BRANCH  10  11
ATOM     11  C   UNL     1      42.878   4.966  11.359  0.00  0.00    +0.000 C 
ATOM     12  C   UNL     1      43.480   4.241  12.577  0.00  0.00    +0.000 C 
ATOM     13  C   UNL     1      43.832   2.795  12.265  0.00  0.00    +0.000 C 
ATOM     14  O   UNL     1      44.695   2.725  11.133  0.00  0.00    +0.000 OA
ATOM     15  C   UNL     1      44.070   3.237   9.958  0.00  0.00    +0.000 C 
ATOM     16  C   UNL     1      43.751   4.717  10.121  0.00  0.00    +0.000 C 
ENDBRANCH  10  11
ENDBRANCH   8  10
ENDBRANCH   5   8
ENDBRANCH   1   2
BRANCH   1  19
ATOM     17  C   UNL     1      48.708   7.675  16.148  0.00  0.00    +0.000 C 
ATOM     18  O   UNL     1      48.633   8.844  16.520  0.00  0.00    +0.000 OA
ATOM     19  N   UNL     1      48.652   7.357  14.817  0.00  0.00    +0.000 N 
ATOM     20  H   UNL     1      48.685   6.395  14.507  0.00  0.00    +0.000 HD
BRANCH  17  28
ATOM     21  C   UNL     1      47.647   4.396  16.236  0.00  0.00    +0.000 A 
ATOM     22  N   UNL     1      47.329   3.125  16.552  0.00  0.00    +0.000 NA
ATOM     23  C   UNL     1      47.755   2.643  17.723  0.00  0.00    +0.000 A 
ATOM     24  N   UNL     1      48.482   3.280  18.635  0.00  0.00    +0.000 NA
ATOM     25  C   UNL     1      48.766   4.547  18.287  0.00  0.00    +0.000 A 
ATOM     26  S   UNL     1      49.695   5.510  19.332  0.00  0.00    +0.000 S 
ATOM     27  C   UNL     1      49.594   6.835  18.275  0.00  0.00    +0.000 A 
ATOM     28  C   UNL     1      48.865   6.582  17.118  0.00  0.00    +0.000 A 
ATOM     29  C   UNL     1      48.383   5.203  17.120  0.00  0.00    +0.000 A 
BRANCH  21  31
ATOM     30  C   UNL     1      46.944   3.862  14.074  0.00  0.00    +0.000 C 
ATOM     31  O   UNL     1      47.212   4.892  15.024  0.00  0.00    +0.000 OA
ENDBRANCH  21  31
ENDBRANCH  17  28
ENDBRANCH   1  19
TORSDOF 7
ENDMDL
MODEL 9
REMARK VINA RESULT:    -6.459      2.367      3.360
REMARK INTER + INTRA:         -10.361
REMARK INTER:                  -9.191
REMARK INTRA:                  -1.170
REMARK UNBOUND:                -1.258
REMARK  Name = 
REMARK  8 active torsions:
REMARK  status: ('A' for Active; 'I' for Inactive)
REMARK    1  A    between atoms: C_1  and  O_2
REMARK    2  A    between atoms: O_2  and  C_3
REMARK    3  A    between atoms: C_10  and  C_11
REMARK    4  A    between atoms: N_13  and  C_14
REMARK    5  A    between atoms: C_14  and  C_15
REMARK    6  A    between atoms: C_18  and  N_19
REMARK    7  A    between atoms: N_19  and  C_20
REMARK    8  A    between atoms: C_20  and  C_21
REMARK                            x       y       z     vdW  Elec       q    Type
REMARK                         _______ _______ _______ _____ _____    ______ ____
ROOT
ATOM      1  C   UNL     1      47.777   8.964  14.481  0.00  0.00    +0.000 C 
ENDROOT
BRANCH   1   2
ATOM      2  C   UNL     1      46.990   8.330  13.367  0.00  0.00    +0.000 A 
ATOM      3  C   UNL     1      47.306   7.045  12.920  0.00  0.00    +0.000 A 
ATOM      4  C   UNL     1      46.489   6.393  11.989  0.00  0.00    +0.000 A 
ATOM      5  C   UNL     1      45.357   7.013  11.446  0.00  0.00    +0.000 A 
ATOM      6  C   UNL     1      45.087   8.327  11.853  0.00  0.00    +0.000 A 
ATOM      7  C   UNL     1      45.894   8.983  12.794  0.00  0.00    +0.000 A 
BRANCH   5   8
ATOM      8  N   UNL     1      44.416   6.353  10.644  0.00  0.00    +0.000 N 
ATOM      9  H   UNL     1      44.494   6.640   9.670  0.00  0.00    +0.000 HD
BRANCH   8  10
ATOM     10  C   UNL     1      44.160   4.935  10.862  0.00  0.00    +0.000 C 
BRANCH  10  11
ATOM     11  C   UNL     1      44.382   4.093   9.596  0.00  0.00    +0.000 C 
ATOM     12  C   UNL     1      44.634   2.633  10.016  0.00  0.00    +0.000 C 
ATOM     13  C   UNL     1      45.051   1.764   8.839  0.00  0.00    +0.000 C 
ATOM     14  O   UNL     1      46.185   2.325   8.182  0.00  0.00    +0.000 OA
ATOM     15  C   UNL     1      45.899   3.610   7.636  0.00  0.00    +0.000 C 
ATOM     16  C   UNL     1      45.554   4.599   8.742  0.00  0.00    +0.000 C 
ENDBRANCH  10  11
ENDBRANCH   8  10
ENDBRANCH   5   8
ENDBRANCH   1   2
BRANCH   1  19
ATOM     17  C   UNL     1      48.161   8.503  16.843  0.00  0.00    +0.000 C 
ATOM     18  O   UNL     1      48.008   9.694  17.104  0.00  0.00    +0.000 OA
ATOM     19  N   UNL     1      48.075   8.049  15.554  0.00  0.00    +0.000 N 
ATOM     20  H   UNL     1      48.172   7.066  15.338  0.00  0.00    +0.000 HD
BRANCH  17  28
ATOM     21  C   UNL     1      50.289   5.802  17.088  0.00  0.00    +0.000 A 
ATOM     22  N   UNL     1      50.971   4.692  17.435  0.00  0.00    +0.000 NA
ATOM     23  C   UNL     1      50.751   4.172  18.646  0.00  0.00    +0.000 A 
ATOM     24  N   UNL     1      49.924   4.635  19.578  0.00  0.00    +0.000 NA
ATOM     25  C   UNL     1      49.254   5.732  19.187  0.00  0.00    +0.000 A 
ATOM     26  S   UNL     1      48.158   6.465  20.256  0.00  0.00    +0.000 S 
ATOM     27  C   UNL     1      47.764   7.654  19.110  0.00  0.00    +0.000 A 
ATOM     28  C   UNL     1      48.447   7.528  17.905  0.00  0.00    +0.000 A 
ATOM     29  C   UNL     1      49.353   6.383  17.960  0.00  0.00    +0.000 A 
BRANCH  21  31
ATOM     30  C   UNL     1      51.642   7.225  15.823  0.00  0.00    +0.000 C 
ATOM     31  O   UNL     1      50.521   6.342  15.840  0.00  0.00    +0.000 OA
ENDBRANCH  21  31
ENDBRANCH  17  28
ENDBRANCH   1  19
TORSDOF 7
ENDMDL
