MODEL 1
REMARK VINA RESULT:    -8.235      0.000      0.000
REMARK INTER + INTRA:         -12.049
REMARK INTER:                 -11.123
REMARK INTRA:                  -0.925
REMARK UNBOUND:                -0.925
REMARK  Name = 
REMARK  7 active torsions:
REMARK  status: ('A' for Active; 'I' for Inactive)
REMARK    1  A    between atoms: C_1  and  N_2
REMARK    2  A    between atoms: C_6  and  C_7
REMARK    3  A    between atoms: N_9  and  C_10
REMARK    4  A    between atoms: C_10  and  C_11
REMARK    5  A    between atoms: C_14  and  C_15
REMARK    6  A    between atoms: C_15  and  N_16
REMARK    7  A    between atoms: C_17  and  C_19
REMARK                            x       y       z     vdW  Elec       q    Type
REMARK                         _______ _______ _______ _____ _____    ______ ____
ROOT
ATOM      1  C   UNL     1      45.093   5.304  11.072  0.00  0.00    +0.000 C 
ATOM      2  C   UNL     1      44.199   6.377  11.707  0.00  0.00    +0.000 C 
ATOM      3  C   UNL     1      44.949   7.181  12.769  0.00  0.00    +0.000 C 
ATOM      4  C   UNL     1      46.206   7.854  12.196  0.00  0.00    +0.000 C 
ATOM      5  C   UNL     1      47.110   6.796  11.542  0.00  0.00    +0.000 C 
ATOM      6  C   UNL     1      46.366   5.955  10.502  0.00  0.00    +0.000 C 
ENDROOT
BRANCH   1   7
ATOM      7  C   UNL     1      44.355   4.524   9.969  0.00  0.00    +0.000 C 
BRANCH   7  10
ATOM      8  C   UNL     1      45.373   2.755   8.523  0.00  0.00    +0.000 C 
ATOM      9  O   UNL     1      44.759   1.847   9.075  0.00  0.00    +0.000 OA
ATOM     10  N   UNL     1      45.233   4.072   8.906  0.00  0.00    +0.000 N 
ATOM     11  H   UNL     1      45.732   4.782   8.396  0.00  0.00    +0.000 HD
BRANCH   8  17
ATOM     12  C   UNL     1      46.750   0.063   7.774  0.00  0.00    +0.000 C 
ATOM     13  N   UNL     1      46.891   1.337   7.104  0.00  0.00    +0.000 N 
ATOM     14  N   UNL     1      47.708   1.403   6.029  0.00  0.00    +0.000 NA
ATOM     15  C   UNL     1      47.647   2.677   5.656  0.00  0.00    +0.000 A 
ATOM     16  C   UNL     1      46.798   3.428   6.482  0.00  0.00    +0.000 A 
ATOM     17  C   UNL     1      46.298   2.541   7.426  0.00  0.00    +0.000 A 
ENDBRANCH   8  17
ENDBRANCH   7  10
ENDBRANCH   1   7
BRANCH   4  18
ATOM     18  C   UNL     1      46.982   8.630  13.275  0.00  0.00    +0.000 C 
BRANCH  18  19
ATOM     19  N   UNL     1      47.321   7.807  14.420  0.00  0.00    +0.000 N 
ATOM     20  C   UNL     1      48.619   7.513  14.747  0.00  0.00    +0.000 C 
ATOM     21  O   UNL     1      49.561   7.954  14.092  0.00  0.00    +0.000 OA
ATOM     22  H   UNL     1      46.563   7.435  14.984  0.00  0.00    +0.000 HD
BRANCH  20  23
ATOM     23  C   UNL     1      48.842   6.638  15.912  0.00  0.00    +0.000 A 
ATOM     24  C   UNL     1      49.735   7.046  16.898  0.00  0.00    +0.000 A 
ATOM     25  S   UNL     1      49.912   5.935  18.176  0.00  0.00    +0.000 S 
ATOM     26  C   UNL     1      48.806   4.858  17.463  0.00  0.00    +0.000 A 
ATOM     27  N   UNL     1      48.515   3.671  18.061  0.00  0.00    +0.000 NA
ATOM     28  C   UNL     1      47.659   2.946  17.423  0.00  0.00    +0.000 A 
ATOM     29  N   UNL     1      47.065   3.303  16.243  0.00  0.00    +0.000 N 
ATOM     30  C   UNL     1      47.320   4.496  15.607  0.00  0.00    +0.000 A 
ATOM     31  O   UNL     1      46.749   4.785  14.561  0.00  0.00    +0.000 OA
ATOM     32  C   UNL     1      48.293   5.345  16.272  0.00  0.00    +0.000 A 
ATOM     33  H   UNL     1      46.393   2.694  15.800  0.00  0.00    +0.000 HD
ENDBRANCH  20  23
ENDBRANCH  18  19
ENDBRANCH   4  18
TORSDOF 6
ENDMDL
MODEL 2
REMARK VINA RESULT:    -7.713      2.055      2.613
REMARK INTER + INTRA:         -11.344
REMARK INTER:                 -10.592
REMARK INTRA:                  -0.753
REMARK UNBOUND:                -0.925
REMARK  Name = 
REMARK  7 active torsions:
REMARK  status: ('A' for Active; 'I' for Inactive)
REMARK    1  A    between atoms: C_1  and  N_2
REMARK    2  A    between atoms: C_6  and  C_7
REMARK    3  A    between atoms: N_9  and  C_10
REMARK    4  A    between atoms: C_10  and  C_11
REMARK    5  A    between atoms: C_14  and  C_15
REMARK    6  A    between atoms: C_15  and  N_16
REMARK    7  A    between atoms: C_17  and  C_19
REMARK                            x       y       z     vdW  Elec       q    Type
REMARK                         _______ _______ _______ _____ _____    ______ ____
ROOT
ATOM      1  C   UNL     1      45.128   4.874  11.615  0.00  0.00    +0.000 C 
ATOM      2  C   UNL     1      45.948   5.908  10.832  0.00  0.00    +0.000 C 
ATOM      3  C   UNL     1      46.515   6.991  11.748  0.00  0.00    +0.000 C 
ATOM      4  C   UNL     1      47.393   6.398  12.861  0.00  0.00    +0.000 C 
ATOM      5  C   UNL     1      46.593   5.349  13.651  0.00  0.00    +0.000 C 
ATOM      6  C   UNL     1      45.985   4.275  12.745  0.00  0.00    +0.000 C 
ENDROOT
BRANCH   1   7
ATOM      7  C   UNL     1      44.595   3.757  10.702  0.00  0.00    +0.000 C 
BRANCH   7  10
ATOM      8  C   UNL     1      45.328   2.379   8.746  0.00  0.00    +0.000 C 
ATOM      9  O   UNL     1      44.420   1.565   8.885  0.00  0.00    +0.000 OA
ATOM     10  N   UNL     1      45.479   3.460   9.590  0.00  0.00    +0.000 N 
ATOM     11  H   UNL     1      46.220   4.117   9.410  0.00  0.00    +0.000 HD
BRANCH   8  17
ATOM     12  C   UNL     1      46.708  -0.222   7.729  0.00  0.00    +0.000 C 
ATOM     13  N   UNL     1      46.918   1.127   7.252  0.00  0.00    +0.000 N 
ATOM     14  N   UNL     1      47.810   1.317   6.254  0.00  0.00    +0.000 NA
ATOM     15  C   UNL     1      47.798   2.630   6.056  0.00  0.00    +0.000 A 
ATOM     16  C   UNL     1      46.906   3.285   6.918  0.00  0.00    +0.000 A 
ATOM     17  C   UNL     1      46.325   2.292   7.695  0.00  0.00    +0.000 A 
ENDBRANCH   8  17
ENDBRANCH   7  10
ENDBRANCH   1   7
BRANCH   4  18
ATOM     18  C   UNL     1      47.931   7.486  13.808  0.00  0.00    +0.000 C 
BRANCH  18  19
ATOM     19  N   UNL     1      47.932   7.069  15.196  0.00  0.00    +0.000 N 
ATOM     20  C   UNL     1      49.072   6.647  15.830  0.00  0.00    +0.000 C 
ATOM     21  O   UNL     1      50.156   6.624  15.251  0.00  0.00    +0.000 OA
ATOM     22  H   UNL     1      47.051   7.084  15.702  0.00  0.00    +0.000 HD
BRANCH  20  23
ATOM     23  C   UNL     1      48.946   6.213  17.233  0.00  0.00    +0.000 A 
ATOM     24  C   UNL     1      49.370   4.935  17.581  0.00  0.00    +0.000 A 
ATOM     25  S   UNL     1      49.151   4.555  19.226  0.00  0.00    +0.000 S 
ATOM     26  C   UNL     1      48.475   6.083  19.543  0.00  0.00    +0.000 A 
ATOM     27  N   UNL     1      48.049   6.403  20.795  0.00  0.00    +0.000 NA
ATOM     28  C   UNL     1      47.559   7.591  20.906  0.00  0.00    +0.000 A 
ATOM     29  N   UNL     1      47.462   8.491  19.879  0.00  0.00    +0.000 N 
ATOM     30  C   UNL     1      47.887   8.215  18.599  0.00  0.00    +0.000 A 
ATOM     31  O   UNL     1      47.800   9.059  17.714  0.00  0.00    +0.000 OA
ATOM     32  C   UNL     1      48.431   6.882  18.412  0.00  0.00    +0.000 A 
ATOM     33  H   UNL     1      47.078   9.411  20.035  0.00  0.00    +0.000 HD
ENDBRANCH  20  23
ENDBRANCH  18  19
ENDBRANCH   4  18
TORSDOF 6
ENDMDL
MODEL 3
REMARK VINA RESULT:    -7.575      1.874      2.503
REMARK INTER + INTRA:         -11.157
REMARK INTER:                 -10.204
REMARK INTRA:                  -0.953
REMARK UNBOUND:                -0.925
REMARK  Name = 
REMARK  7 active torsions:
REMARK  status: ('A' for Active; 'I' for Inactive)
REMARK    1  A    between atoms: C_1  and  N_2
REMARK    2  A    between atoms: C_6  and  C_7
REMARK    3  A    between atoms: N_9  and  C_10
REMARK    4  A    between atoms: C_10  and  C_11
REMARK    5  A    between atoms: C_14  and  C_15
REMARK    6  A    between atoms: C_15  and  N_16
REMARK    7  A    between atoms: C_17  and  C_19
REMARK                            x       y       z     vdW  Elec       q    Type
REMARK                         _______ _______ _______ _____ _____    ______ ____
ROOT
ATOM      1  C   UNL     1      44.998   4.789  12.233  0.00  0.00    +0.000 C 
ATOM      2  C   UNL     1      45.662   5.844  11.337  0.00  0.00    +0.000 C 
ATOM      3  C   UNL     1      46.546   6.794  12.142  0.00  0.00    +0.000 C 
ATOM      4  C   UNL     1      47.637   6.042  12.919  0.00  0.00    +0.000 C 
ATOM      5  C   UNL     1      46.993   4.971  13.815  0.00  0.00    +0.000 C 
ATOM      6  C   UNL     1      46.074   4.031  13.031  0.00  0.00    +0.000 C 
ENDROOT
BRANCH   1   7
ATOM      7  C   UNL     1      44.144   3.801  11.418  0.00  0.00    +0.000 C 
BRANCH   7  10
ATOM      8  C   UNL     1      44.899   3.187   9.113  0.00  0.00    +0.000 C 
ATOM      9  O   UNL     1      44.190   4.032   8.576  0.00  0.00    +0.000 OA
ATOM     10  N   UNL     1      44.924   3.013  10.482  0.00  0.00    +0.000 N 
ATOM     11  H   UNL     1      45.550   2.330  10.873  0.00  0.00    +0.000 HD
BRANCH   8  17
ATOM     12  C   UNL     1      47.124   4.030   7.104  0.00  0.00    +0.000 C 
ATOM     13  N   UNL     1      46.760   2.687   7.497  0.00  0.00    +0.000 N 
ATOM     14  N   UNL     1      47.441   1.656   6.946  0.00  0.00    +0.000 NA
ATOM     15  C   UNL     1      46.874   0.577   7.474  0.00  0.00    +0.000 A 
ATOM     16  C   UNL     1      45.838   0.906   8.360  0.00  0.00    +0.000 A 
ATOM     17  C   UNL     1      45.773   2.293   8.377  0.00  0.00    +0.000 A 
ENDBRANCH   8  17
ENDBRANCH   7  10
ENDBRANCH   1   7
BRANCH   4  18
ATOM     18  C   UNL     1      48.502   6.997  13.762  0.00  0.00    +0.000 C 
BRANCH  18  19
ATOM     19  N   UNL     1      48.258   6.862  15.185  0.00  0.00    +0.000 N 
ATOM     20  C   UNL     1      48.959   7.585  16.116  0.00  0.00    +0.000 C 
ATOM     21  O   UNL     1      49.816   8.399  15.783  0.00  0.00    +0.000 OA
ATOM     22  H   UNL     1      47.550   6.201  15.490  0.00  0.00    +0.000 HD
BRANCH  20  23
ATOM     23  C   UNL     1      48.650   7.338  17.536  0.00  0.00    +0.000 A 
ATOM     24  C   UNL     1      48.169   8.389  18.311  0.00  0.00    +0.000 A 
ATOM     25  S   UNL     1      47.870   7.973  19.935  0.00  0.00    +0.000 S 
ATOM     26  C   UNL     1      48.377   6.371  19.673  0.00  0.00    +0.000 A 
ATOM     27  N   UNL     1      48.381   5.473  20.694  0.00  0.00    +0.000 NA
ATOM     28  C   UNL     1      48.783   4.292  20.367  0.00  0.00    +0.000 A 
ATOM     29  N   UNL     1      49.176   3.926  19.108  0.00  0.00    +0.000 N 
ATOM     30  C   UNL     1      49.179   4.797  18.042  0.00  0.00    +0.000 A 
ATOM     31  O   UNL     1      49.519   4.421  16.926  0.00  0.00    +0.000 OA
ATOM     32  C   UNL     1      48.754   6.149  18.358  0.00  0.00    +0.000 A 
ATOM     33  H   UNL     1      49.469   2.980  18.914  0.00  0.00    +0.000 HD
ENDBRANCH  20  23
ENDBRANCH  18  19
ENDBRANCH   4  18
TORSDOF 6
ENDMDL
MODEL 4
REMARK VINA RESULT:    -7.393      2.247      2.677
REMARK INTER + INTRA:         -10.912
REMARK INTER:                 -10.308
REMARK INTRA:                  -0.605
REMARK UNBOUND:                -0.925
REMARK  Name = 
REMARK  7 active torsions:
REMARK  status: ('A' for Active; 'I' for Inactive)
REMARK    1  A    between atoms: C_1  and  N_2
REMARK    2  A    between atoms: C_6  and  C_7
REMARK    3  A    between atoms: N_9  and  C_10
REMARK    4  A    between atoms: C_10  and  C_11
REMARK    5  A    between atoms: C_14  and  C_15
REMARK    6  A    between atoms: C_15  and  N_16
REMARK    7  A    between atoms: C_17  and  C_19
REMARK                            x       y       z     vdW  Elec       q    Type
REMARK                         _______ _______ _______ _____ _____    ______ ____
ROOT
ATOM      1  C   UNL     1      45.206   4.731  11.865  0.00  0.00    +0.000 C 
ATOM      2  C   UNL     1      46.023   5.802  11.129  0.00  0.00    +0.000 C 
ATOM      3  C   UNL     1      46.607   6.831  12.095  0.00  0.00    +0.000 C 
ATOM      4  C   UNL     1      47.494   6.174  13.165  0.00  0.00    +0.000 C 
ATOM      5  C   UNL     1      46.696   5.088  13.906  0.00  0.00    +0.000 C 
ATOM      6  C   UNL     1      46.072   4.068  12.950  0.00  0.00    +0.000 C 
ENDROOT
BRANCH   1   7
ATOM      7  C   UNL     1      44.656   3.667  10.899  0.00  0.00    +0.000 C 
BRANCH   7  10
ATOM      8  C   UNL     1      45.366   2.375   8.878  0.00  0.00    +0.000 C 
ATOM      9  O   UNL     1      44.436   1.579   8.969  0.00  0.00    +0.000 OA
ATOM     10  N   UNL     1      45.539   3.405   9.778  0.00  0.00    +0.000 N 
ATOM     11  H   UNL     1      46.298   4.051   9.636  0.00  0.00    +0.000 HD
BRANCH   8  17
ATOM     12  C   UNL     1      46.706  -0.203   7.756  0.00  0.00    +0.000 C 
ATOM     13  N   UNL     1      46.941   1.161   7.338  0.00  0.00    +0.000 N 
ATOM     14  N   UNL     1      47.842   1.378   6.354  0.00  0.00    +0.000 NA
ATOM     15  C   UNL     1      47.855   2.699   6.214  0.00  0.00    +0.000 A 
ATOM     16  C   UNL     1      46.969   3.331   7.098  0.00  0.00    +0.000 A 
ATOM     17  C   UNL     1      46.366   2.316   7.829  0.00  0.00    +0.000 A 
ENDBRANCH   8  17
ENDBRANCH   7  10
ENDBRANCH   1   7
BRANCH   4  18
ATOM     18  C   UNL     1      48.048   7.207  14.162  0.00  0.00    +0.000 C 
BRANCH  18  19
ATOM     19  N   UNL     1      49.314   6.801  14.741  0.00  0.00    +0.000 N 
ATOM     20  C   UNL     1      49.449   6.528  16.078  0.00  0.00    +0.000 C 
ATOM     21  O   UNL     1      48.493   6.597  16.847  0.00  0.00    +0.000 OA
ATOM     22  H   UNL     1      50.120   6.728  14.129  0.00  0.00    +0.000 HD
BRANCH  20  23
ATOM     23  C   UNL     1      50.792   6.159  16.561  0.00  0.00    +0.000 A 
ATOM     24  C   UNL     1      51.838   7.060  16.394  0.00  0.00    +0.000 A 
ATOM     25  S   UNL     1      53.336   6.501  16.978  0.00  0.00    +0.000 S 
ATOM     26  C   UNL     1      52.651   5.027  17.476  0.00  0.00    +0.000 A 
ATOM     27  N   UNL     1      53.423   4.068  18.056  0.00  0.00    +0.000 NA
ATOM     28  C   UNL     1      52.786   2.998  18.392  0.00  0.00    +0.000 A 
ATOM     29  N   UNL     1      51.444   2.803  18.206  0.00  0.00    +0.000 N 
ATOM     30  C   UNL     1      50.622   3.746  17.633  0.00  0.00    +0.000 A 
ATOM     31  O   UNL     1      49.421   3.537  17.504  0.00  0.00    +0.000 OA
ATOM     32  C   UNL     1      51.292   4.965  17.216  0.00  0.00    +0.000 A 
ATOM     33  H   UNL     1      51.002   1.945  18.502  0.00  0.00    +0.000 HD
ENDBRANCH  20  23
ENDBRANCH  18  19
ENDBRANCH   4  18
TORSDOF 6
ENDMDL
MODEL 5
REMARK VINA RESULT:    -7.069      4.877      8.828
REMARK INTER + INTRA:         -10.474
REMARK INTER:                  -9.662
REMARK INTRA:                  -0.813
REMARK UNBOUND:                -0.925
REMARK  Name = 
REMARK  7 active torsions:
REMARK  status: ('A' for Active; 'I' for Inactive)
REMARK    1  A    between atoms: C_1  and  N_2
REMARK    2  A    between atoms: C_6  and  C_7
REMARK    3  A    between atoms: N_9  and  C_10
REMARK    4  A    between atoms: C_10  and  C_11
REMARK    5  A    between atoms: C_14  and  C_15
REMARK    6  A    between atoms: C_15  and  N_16
REMARK    7  A    between atoms: C_17  and  C_19
REMARK                            x       y       z     vdW  Elec       q    Type
REMARK                         _______ _______ _______ _____ _____    ______ ____
ROOT
ATOM      1  C   UNL     1      50.540   2.627  17.234  0.00  0.00    +0.000 C 
ATOM      2  C   UNL     1      51.276   3.843  17.812  0.00  0.00    +0.000 C 
ATOM      3  C   UNL     1      50.911   5.129  17.072  0.00  0.00    +0.000 C 
ATOM      4  C   UNL     1      49.398   5.399  17.107  0.00  0.00    +0.000 C 
ATOM      5  C   UNL     1      48.640   4.186  16.543  0.00  0.00    +0.000 C 
ATOM      6  C   UNL     1      49.022   2.881  17.247  0.00  0.00    +0.000 C 
ENDROOT
BRANCH   1   7
ATOM      7  C   UNL     1      50.870   1.338  18.007  0.00  0.00    +0.000 C 
BRANCH   7  10
ATOM      8  C   UNL     1      53.290   0.704  17.955  0.00  0.00    +0.000 C 
ATOM      9  O   UNL     1      53.573   1.416  18.913  0.00  0.00    +0.000 OA
ATOM     10  N   UNL     1      52.006   0.620  17.458  0.00  0.00    +0.000 N 
ATOM     11  H   UNL     1      51.822  -0.007  16.693  0.00  0.00    +0.000 HD
BRANCH   8  17
ATOM     12  C   UNL     1      54.237  -2.146  18.783  0.00  0.00    +0.000 C 
ATOM     13  N   UNL     1      54.662  -1.380  17.632  0.00  0.00    +0.000 N 
ATOM     14  N   UNL     1      55.575  -1.932  16.803  0.00  0.00    +0.000 NA
ATOM     15  C   UNL     1      55.775  -1.000  15.877  0.00  0.00    +0.000 A 
ATOM     16  C   UNL     1      54.997   0.144  16.105  0.00  0.00    +0.000 A 
ATOM     17  C   UNL     1      54.262  -0.114  17.254  0.00  0.00    +0.000 A 
ENDBRANCH   8  17
ENDBRANCH   7  10
ENDBRANCH   1   7
BRANCH   4  18
ATOM     18  C   UNL     1      49.027   6.673  16.327  0.00  0.00    +0.000 C 
BRANCH  18  19
ATOM     19  N   UNL     1      47.920   6.466  15.413  0.00  0.00    +0.000 N 
ATOM     20  C   UNL     1      48.087   6.472  14.053  0.00  0.00    +0.000 C 
ATOM     21  O   UNL     1      49.194   6.635  13.543  0.00  0.00    +0.000 OA
ATOM     22  H   UNL     1      46.995   6.323  15.806  0.00  0.00    +0.000 HD
BRANCH  20  23
ATOM     23  C   UNL     1      46.883   6.287  13.222  0.00  0.00    +0.000 A 
ATOM     24  C   UNL     1      46.284   7.404  12.649  0.00  0.00    +0.000 A 
ATOM     25  S   UNL     1      44.895   7.051  11.731  0.00  0.00    +0.000 S 
ATOM     26  C   UNL     1      45.031   5.390  12.064  0.00  0.00    +0.000 A 
ATOM     27  N   UNL     1      44.118   4.509  11.574  0.00  0.00    +0.000 NA
ATOM     28  C   UNL     1      44.334   3.279  11.894  0.00  0.00    +0.000 A 
ATOM     29  N   UNL     1      45.386   2.848  12.657  0.00  0.00    +0.000 N 
ATOM     30  C   UNL     1      46.339   3.699  13.167  0.00  0.00    +0.000 A 
ATOM     31  O   UNL     1      47.277   3.267  13.828  0.00  0.00    +0.000 OA
ATOM     32  C   UNL     1      46.134   5.102  12.853  0.00  0.00    +0.000 A 
ATOM     33  H   UNL     1      45.505   1.867  12.863  0.00  0.00    +0.000 HD
ENDBRANCH  20  23
ENDBRANCH  18  19
ENDBRANCH   4  18
TORSDOF 6
ENDMDL
MODEL 6
REMARK VINA RESULT:    -7.054      2.967      9.326
REMARK INTER + INTRA:         -10.454
REMARK INTER:                  -9.514
REMARK INTRA:                  -0.941
REMARK UNBOUND:                -0.925
REMARK  Name = 
REMARK  7 active torsions:
REMARK  status: ('A' for Active; 'I' for Inactive)
REMARK    1  A    between atoms: C_1  and  N_2
REMARK    2  A    between atoms: C_6  and  C_7
REMARK    3  A    between atoms: N_9  and  C_10
REMARK    4  A    between atoms: C_10  and  C_11
REMARK    5  A    between atoms: C_14  and  C_15
REMARK    6  A    between atoms: C_15  and  N_16
REMARK    7  A    between atoms: C_17  and  C_19
REMARK                            x       y       z     vdW  Elec       q    Type
REMARK                         _______ _______ _______ _____ _____    ______ ____
ROOT
ATOM      1  C   UNL     1      47.339   5.980  13.198  0.00  0.00    +0.000 C 
ATOM      2  C   UNL     1      45.980   6.619  12.878  0.00  0.00    +0.000 C 
ATOM      3  C   UNL     1      45.088   5.675  12.072  0.00  0.00    +0.000 C 
ATOM      4  C   UNL     1      44.854   4.345  12.804  0.00  0.00    +0.000 C 
ATOM      5  C   UNL     1      46.205   3.694  13.145  0.00  0.00    +0.000 C 
ATOM      6  C   UNL     1      47.127   4.638  13.921  0.00  0.00    +0.000 C 
ENDROOT
BRANCH   1   7
ATOM      7  C   UNL     1      48.221   6.910  14.050  0.00  0.00    +0.000 C 
BRANCH   7  10
ATOM      8  C   UNL     1      49.012   6.459  16.380  0.00  0.00    +0.000 C 
ATOM      9  O   UNL     1      50.179   6.308  16.034  0.00  0.00    +0.000 OA
ATOM     10  N   UNL     1      48.010   6.746  15.476  0.00  0.00    +0.000 N 
ATOM     11  H   UNL     1      47.076   6.895  15.819  0.00  0.00    +0.000 HD
BRANCH   8  17
ATOM     12  C   UNL     1      47.601   4.003  17.677  0.00  0.00    +0.000 C 
ATOM     13  N   UNL     1      47.953   5.252  18.317  0.00  0.00    +0.000 N 
ATOM     14  N   UNL     1      47.646   5.405  19.624  0.00  0.00    +0.000 NA
ATOM     15  C   UNL     1      48.063   6.633  19.911  0.00  0.00    +0.000 A 
ATOM     16  C   UNL     1      48.636   7.269  18.800  0.00  0.00    +0.000 A 
ATOM     17  C   UNL     1      48.568   6.354  17.758  0.00  0.00    +0.000 A 
ENDBRANCH   8  17
ENDBRANCH   7  10
ENDBRANCH   1   7
BRANCH   4  18
ATOM     18  C   UNL     1      43.989   3.380  11.973  0.00  0.00    +0.000 C 
BRANCH  18  19
ATOM     19  N   UNL     1      44.756   2.660  10.975  0.00  0.00    +0.000 N 
ATOM     20  C   UNL     1      44.702   2.980   9.643  0.00  0.00    +0.000 C 
ATOM     21  O   UNL     1      44.011   3.911   9.235  0.00  0.00    +0.000 OA
ATOM     22  H   UNL     1      45.341   1.889  11.284  0.00  0.00    +0.000 HD
BRANCH  20  23
ATOM     23  C   UNL     1      45.498   2.155   8.716  0.00  0.00    +0.000 A 
ATOM     24  C   UNL     1      45.356   0.772   8.757  0.00  0.00    +0.000 A 
ATOM     25  S   UNL     1      46.345  -0.060   7.648  0.00  0.00    +0.000 S 
ATOM     26  C   UNL     1      47.009   1.394   7.068  0.00  0.00    +0.000 A 
ATOM     27  N   UNL     1      47.956   1.380   6.093  0.00  0.00    +0.000 NA
ATOM     28  C   UNL     1      48.377   2.547   5.738  0.00  0.00    +0.000 A 
ATOM     29  N   UNL     1      47.931   3.728   6.267  0.00  0.00    +0.000 N 
ATOM     30  C   UNL     1      46.968   3.792   7.248  0.00  0.00    +0.000 A 
ATOM     31  O   UNL     1      46.582   4.874   7.679  0.00  0.00    +0.000 OA
ATOM     32  C   UNL     1      46.472   2.505   7.700  0.00  0.00    +0.000 A 
ATOM     33  H   UNL     1      48.293   4.610   5.937  0.00  0.00    +0.000 HD
ENDBRANCH  20  23
ENDBRANCH  18  19
ENDBRANCH   4  18
TORSDOF 6
ENDMDL
MODEL 7
REMARK VINA RESULT:    -6.906      2.237      3.037
REMARK INTER + INTRA:         -10.254
REMARK INTER:                  -9.239
REMARK INTRA:                  -1.015
REMARK UNBOUND:                -0.925
REMARK  Name = 
REMARK  7 active torsions:
REMARK  status: ('A' for Active; 'I' for Inactive)
REMARK    1  A    between atoms: C_1  and  N_2
REMARK    2  A    between atoms: C_6  and  C_7
REMARK    3  A    between atoms: N_9  and  C_10
REMARK    4  A    between atoms: C_10  and  C_11
REMARK    5  A    between atoms: C_14  and  C_15
REMARK    6  A    between atoms: C_15  and  N_16
REMARK    7  A    between atoms: C_17  and  C_19
REMARK                            x       y       z     vdW  Elec       q    Type
REMARK                         _______ _______ _______ _____ _____    ______ ____
ROOT
ATOM      1  C   UNL     1      46.108   7.678  12.436  0.00  0.00    +0.000 C 
ATOM      2  C   UNL     1      46.520   9.133  12.699  0.00  0.00    +0.000 C 
ATOM      3  C   UNL     1      47.625   9.226  13.749  0.00  0.00    +0.000 C 
ATOM      4  C   UNL     1      48.870   8.421  13.344  0.00  0.00    +0.000 C 
ATOM      5  C   UNL     1      48.476   6.962  13.063  0.00  0.00    +0.000 C 
ATOM      6  C   UNL     1      47.343   6.850  12.040  0.00  0.00    +0.000 C 
ENDROOT
BRANCH   1   7
ATOM      7  C   UNL     1      45.027   7.578  11.345  0.00  0.00    +0.000 C 
BRANCH   7  10
ATOM      8  C   UNL     1      43.909   5.460  10.624  0.00  0.00    +0.000 C 
ATOM      9  O   UNL     1      42.844   5.754  11.159  0.00  0.00    +0.000 OA
ATOM     10  N   UNL     1      45.009   6.290  10.678  0.00  0.00    +0.000 N 
ATOM     11  H   UNL     1      45.847   6.017  10.192  0.00  0.00    +0.000 HD
BRANCH   8  17
ATOM     12  C   UNL     1      43.428   2.575  11.696  0.00  0.00    +0.000 C 
ATOM     13  N   UNL     1      43.891   2.956  10.380  0.00  0.00    +0.000 N 
ATOM     14  N   UNL     1      44.159   1.974   9.491  0.00  0.00    +0.000 NA
ATOM     15  C   UNL     1      44.576   2.623   8.410  0.00  0.00    +0.000 A 
ATOM     16  C   UNL     1      44.578   4.013   8.597  0.00  0.00    +0.000 A 
ATOM     17  C   UNL     1      44.119   4.226   9.890  0.00  0.00    +0.000 A 
ENDBRANCH   8  17
ENDBRANCH   7  10
ENDBRANCH   1   7
BRANCH   4  18
ATOM     18  C   UNL     1      49.968   8.483  14.421  0.00  0.00    +0.000 C 
BRANCH  18  19
ATOM     19  N   UNL     1      49.850   7.421  15.400  0.00  0.00    +0.000 N 
ATOM     20  C   UNL     1      49.277   7.622  16.630  0.00  0.00    +0.000 C 
ATOM     21  O   UNL     1      48.817   8.715  16.951  0.00  0.00    +0.000 OA
ATOM     22  H   UNL     1      50.215   6.504  15.160  0.00  0.00    +0.000 HD
BRANCH  20  23
ATOM     23  C   UNL     1      49.244   6.477  17.557  0.00  0.00    +0.000 A 
ATOM     24  C   UNL     1      49.927   6.571  18.765  0.00  0.00    +0.000 A 
ATOM     25  S   UNL     1      49.822   5.174  19.732  0.00  0.00    +0.000 S 
ATOM     26  C   UNL     1      48.863   4.381  18.575  0.00  0.00    +0.000 A 
ATOM     27  N   UNL     1      48.435   3.107  18.788  0.00  0.00    +0.000 NA
ATOM     28  C   UNL     1      47.713   2.618  17.838  0.00  0.00    +0.000 A 
ATOM     29  N   UNL     1      47.375   3.291  16.694  0.00  0.00    +0.000 N 
ATOM     30  C   UNL     1      47.776   4.582  16.439  0.00  0.00    +0.000 A 
ATOM     31  O   UNL     1      47.432   5.155  15.411  0.00  0.00    +0.000 OA
ATOM     32  C   UNL     1      48.610   5.176  17.469  0.00  0.00    +0.000 A 
ATOM     33  H   UNL     1      46.795   2.855  15.993  0.00  0.00    +0.000 HD
ENDBRANCH  20  23
ENDBRANCH  18  19
ENDBRANCH   4  18
TORSDOF 6
ENDMDL
MODEL 8
REMARK VINA RESULT:    -6.902      3.196      8.563
REMARK INTER + INTRA:         -10.248
REMARK INTER:                  -9.337
REMARK INTRA:                  -0.911
REMARK UNBOUND:                -0.925
REMARK  Name = 
REMARK  7 active torsions:
REMARK  status: ('A' for Active; 'I' for Inactive)
REMARK    1  A    between atoms: C_1  and  N_2
REMARK    2  A    between atoms: C_6  and  C_7
REMARK    3  A    between atoms: N_9  and  C_10
REMARK    4  A    between atoms: C_10  and  C_11
REMARK    5  A    between atoms: C_14  and  C_15
REMARK    6  A    between atoms: C_15  and  N_16
REMARK    7  A    between atoms: C_17  and  C_19
REMARK                            x       y       z     vdW  Elec       q    Type
REMARK                         _______ _______ _______ _____ _____    ______ ____
ROOT
ATOM      1  C   UNL     1      50.088   7.112  15.069  0.00  0.00    +0.000 C 
ATOM      2  C   UNL     1      50.049   8.520  14.458  0.00  0.00    +0.000 C 
ATOM      3  C   UNL     1      49.226   8.554  13.171  0.00  0.00    +0.000 C 
ATOM      4  C   UNL     1      47.786   8.068  13.398  0.00  0.00    +0.000 C 
ATOM      5  C   UNL     1      47.804   6.663  14.022  0.00  0.00    +0.000 C 
ATOM      6  C   UNL     1      48.654   6.600  15.293  0.00  0.00    +0.000 C 
ENDROOT
BRANCH   1   7
ATOM      7  C   UNL     1      50.877   7.084  16.390  0.00  0.00    +0.000 C 
BRANCH   7  10
ATOM      8  C   UNL     1      50.964   4.965  17.718  0.00  0.00    +0.000 C 
ATOM      9  O   UNL     1      50.047   5.306  18.459  0.00  0.00    +0.000 OA
ATOM     10  N   UNL     1      51.422   5.776  16.700  0.00  0.00    +0.000 N 
ATOM     11  H   UNL     1      52.153   5.433  16.098  0.00  0.00    +0.000 HD
BRANCH   8  17
ATOM     12  C   UNL     1      49.830   2.179  16.910  0.00  0.00    +0.000 C 
ATOM     13  N   UNL     1      51.136   2.469  17.459  0.00  0.00    +0.000 N 
ATOM     14  N   UNL     1      51.984   1.436  17.660  0.00  0.00    +0.000 NA
ATOM     15  C   UNL     1      53.066   2.005  18.182  0.00  0.00    +0.000 A 
ATOM     16  C   UNL     1      52.919   3.393  18.316  0.00  0.00    +0.000 A 
ATOM     17  C   UNL     1      51.653   3.693  17.832  0.00  0.00    +0.000 A 
ENDBRANCH   8  17
ENDBRANCH   7  10
ENDBRANCH   1   7
BRANCH   4  18
ATOM     18  C   UNL     1      46.971   8.065  12.092  0.00  0.00    +0.000 C 
BRANCH  18  19
ATOM     19  N   UNL     1      46.421   6.760  11.780  0.00  0.00    +0.000 N 
ATOM     20  C   UNL     1      45.095   6.581  11.482  0.00  0.00    +0.000 C 
ATOM     21  O   UNL     1      44.312   7.527  11.447  0.00  0.00    +0.000 OA
ATOM     22  H   UNL     1      47.046   5.960  11.795  0.00  0.00    +0.000 HD
BRANCH  20  23
ATOM     23  C   UNL     1      44.642   5.203  11.216  0.00  0.00    +0.000 A 
ATOM     24  C   UNL     1      43.810   4.579  12.139  0.00  0.00    +0.000 A 
ATOM     25  S   UNL     1      43.376   2.988  11.719  0.00  0.00    +0.000 S 
ATOM     26  C   UNL     1      44.287   3.062  10.285  0.00  0.00    +0.000 A 
ATOM     27  N   UNL     1      44.352   1.989   9.452  0.00  0.00    +0.000 NA
ATOM     28  C   UNL     1      45.071   2.173   8.397  0.00  0.00    +0.000 A 
ATOM     29  N   UNL     1      45.727   3.336   8.097  0.00  0.00    +0.000 N 
ATOM     30  C   UNL     1      45.683   4.450   8.904  0.00  0.00    +0.000 A 
ATOM     31  O   UNL     1      46.270   5.479   8.586  0.00  0.00    +0.000 OA
ATOM     32  C   UNL     1      44.902   4.292  10.118  0.00  0.00    +0.000 A 
ATOM     33  H   UNL     1      46.265   3.420   7.248  0.00  0.00    +0.000 HD
ENDBRANCH  20  23
ENDBRANCH  18  19
ENDBRANCH   4  18
TORSDOF 6
ENDMDL
MODEL 9
REMARK VINA RESULT:    -6.814      5.125      9.426
REMARK INTER + INTRA:         -10.130
REMARK INTER:                  -9.469
REMARK INTRA:                  -0.661
REMARK UNBOUND:                -0.925
REMARK  Name = 
REMARK  7 active torsions:
REMARK  status: ('A' for Active; 'I' for Inactive)
REMARK    1  A    between atoms: C_1  and  N_2
REMARK    2  A    between atoms: C_6  and  C_7
REMARK    3  A    between atoms: N_9  and  C_10
REMARK    4  A    between atoms: C_10  and  C_11
REMARK    5  A    between atoms: C_14  and  C_15
REMARK    6  A    between atoms: C_15  and  N_16
REMARK    7  A    between atoms: C_17  and  C_19
REMARK                            x       y       z     vdW  Elec       q    Type
REMARK                         _______ _______ _______ _____ _____    ______ ____
ROOT
ATOM      1  C   UNL     1      51.615   3.289  18.033  0.00  0.00    +0.000 C 
ATOM      2  C   UNL     1      50.975   2.108  17.290  0.00  0.00    +0.000 C 
ATOM      3  C   UNL     1      49.449   2.174  17.331  0.00  0.00    +0.000 C 
ATOM      4  C   UNL     1      48.918   3.486  16.733  0.00  0.00    +0.000 C 
ATOM      5  C   UNL     1      49.557   4.684  17.455  0.00  0.00    +0.000 C 
ATOM      6  C   UNL     1      51.086   4.615  17.458  0.00  0.00    +0.000 C 
ENDROOT
BRANCH   1   7
ATOM      7  C   UNL     1      53.151   3.249  17.954  0.00  0.00    +0.000 C 
BRANCH   7  10
ATOM      8  C   UNL     1      54.911   1.489  17.704  0.00  0.00    +0.000 C 
ATOM      9  O   UNL     1      55.704   2.074  18.435  0.00  0.00    +0.000 OA
ATOM     10  N   UNL     1      53.662   2.000  17.421  0.00  0.00    +0.000 N 
ATOM     11  H   UNL     1      53.037   1.462  16.843  0.00  0.00    +0.000 HD
BRANCH   8  17
ATOM     12  C   UNL     1      54.542  -1.330  18.975  0.00  0.00    +0.000 C 
ATOM     13  N   UNL     1      55.021  -1.023  17.646  0.00  0.00    +0.000 N 
ATOM     14  N   UNL     1      55.358  -2.053  16.838  0.00  0.00    +0.000 NA
ATOM     15  C   UNL     1      55.773  -1.465  15.721  0.00  0.00    +0.000 A 
ATOM     16  C   UNL     1      55.702  -0.067  15.805  0.00  0.00    +0.000 A 
ATOM     17  C   UNL     1      55.200   0.217  17.068  0.00  0.00    +0.000 A 
ENDBRANCH   8  17
ENDBRANCH   7  10
ENDBRANCH   1   7
BRANCH   4  18
ATOM     18  C   UNL     1      47.383   3.570  16.811  0.00  0.00    +0.000 C 
BRANCH  18  19
ATOM     19  N   UNL     1      46.820   4.463  15.817  0.00  0.00    +0.000 N 
ATOM     20  C   UNL     1      46.789   4.144  14.484  0.00  0.00    +0.000 C 
ATOM     21  O   UNL     1      47.221   3.071  14.072  0.00  0.00    +0.000 OA
ATOM     22  H   UNL     1      46.449   5.355  16.130  0.00  0.00    +0.000 HD
BRANCH  20  23
ATOM     23  C   UNL     1      46.226   5.146  13.561  0.00  0.00    +0.000 A 
ATOM     24  C   UNL     1      46.969   6.285  13.271  0.00  0.00    +0.000 A 
ATOM     25  S   UNL     1      46.195   7.367  12.208  0.00  0.00    +0.000 S 
ATOM     26  C   UNL     1      44.829   6.360  12.094  0.00  0.00    +0.000 A 
ATOM     27  N   UNL     1      43.764   6.725  11.331  0.00  0.00    +0.000 NA
ATOM     28  C   UNL     1      42.794   5.875  11.324  0.00  0.00    +0.000 A 
ATOM     29  N   UNL     1      42.795   4.689  12.008  0.00  0.00    +0.000 N 
ATOM     30  C   UNL     1      43.852   4.274  12.784  0.00  0.00    +0.000 A 
ATOM     31  O   UNL     1      43.819   3.193  13.363  0.00  0.00    +0.000 OA
ATOM     32  C   UNL     1      44.967   5.203  12.844  0.00  0.00    +0.000 A 
ATOM     33  H   UNL     1      42.007   4.061  11.951  0.00  0.00    +0.000 HD
ENDBRANCH  20  23
ENDBRANCH  18  19
ENDBRANCH   4  18
TORSDOF 6
ENDMDL
