MODEL 1
REMARK VINA RESULT:    -7.830      0.000      0.000
REMARK INTER + INTRA:         -10.242
REMARK INTER:                  -9.889
REMARK INTRA:                  -0.353
REMARK UNBOUND:                -0.353
REMARK  Name = 
REMARK  5 active torsions:
REMARK  status: ('A' for Active; 'I' for Inactive)
REMARK    1  A    between atoms: C_2  and  C_4
REMARK    2  A    between atoms: C_7  and  C_8
REMARK    3  A    between atoms: C_8  and  C_9
REMARK    4  A    between atoms: C_9  and  N_10
REMARK    5  A    between atoms: C_13  and  O_14
REMARK                            x       y       z     vdW  Elec       q    Type
REMARK                         _______ _______ _______ _____ _____    ______ ____
ROOT
ATOM      1  C   UNL     1      43.958   4.790  10.357  0.00  0.00    +0.000 C 
ENDROOT
BRANCH   1   5
ATOM      2  C   UNL     1      46.313   2.331   7.899  0.00  0.00    +0.000 A 
ATOM      3  N   UNL     1      46.405   3.667   7.691  0.00  0.00    +0.000 NA
ATOM      4  C   UNL     1      45.600   4.432   8.458  0.00  0.00    +0.000 A 
ATOM      5  C   UNL     1      44.733   3.927   9.409  0.00  0.00    +0.000 A 
ATOM      6  C   UNL     1      44.716   2.547   9.508  0.00  0.00    +0.000 A 
ATOM      7  N   UNL     1      45.486   1.727   8.770  0.00  0.00    +0.000 NA
BRANCH   2   9
ATOM      8  N   UNL     1      48.373   2.101   6.595  0.00  0.00    +0.000 N 
ATOM      9  C   UNL     1      47.279   1.456   7.129  0.00  0.00    +0.000 C 
ATOM     10  O   UNL     1      47.145   0.247   6.986  0.00  0.00    +0.000 OA
ATOM     11  H   UNL     1      49.071   1.556   6.111  0.00  0.00    +0.000 HD
ATOM     12  H   UNL     1      48.500   3.094   6.743  0.00  0.00    +0.000 HD
ENDBRANCH   2   9
ENDBRANCH   1   5
BRANCH   1  13
ATOM     13  C   UNL     1      44.217   4.516  11.836  0.00  0.00    +0.000 C 
ATOM     14  C   UNL     1      43.628   3.252  12.438  0.00  0.00    +0.000 C 
ATOM     15  C   UNL     1      42.979   4.567  12.725  0.00  0.00    +0.000 C 
BRANCH  13  16
ATOM     16  N   UNL     1      45.403   5.112  12.487  0.00  0.00    +0.000 NA
ATOM     17  C   UNL     1      46.053   6.226  11.805  0.00  0.00    +0.000 C 
ATOM     18  C   UNL     1      46.776   7.091  12.837  0.00  0.00    +0.000 C 
ATOM     19  C   UNL     1      47.743   6.272  13.689  0.00  0.00    +0.000 C 
ATOM     20  C   UNL     1      47.089   5.003  14.238  0.00  0.00    +0.000 C 
ATOM     21  C   UNL     1      46.340   4.217  13.156  0.00  0.00    +0.000 C 
BRANCH  19  22
ATOM     22  O   UNL     1      48.909   5.944  12.936  0.00  0.00    +0.000 OA
ATOM     23  H   UNL     1      49.545   5.496  13.517  0.00  0.00    +0.000 HD
ENDBRANCH  19  22
ENDBRANCH  13  16
ENDBRANCH   1  13
TORSDOF 5
ENDMDL
MODEL 2
REMARK VINA RESULT:    -5.994      2.158      6.187
REMARK INTER + INTRA:          -7.923
REMARK INTER:                  -7.650
REMARK INTRA:                  -0.273
REMARK UNBOUND:                -0.353
REMARK  Name = 
REMARK  5 active torsions:
REMARK  status: ('A' for Active; 'I' for Inactive)
REMARK    1  A    between atoms: C_2  and  C_4
REMARK    2  A    between atoms: C_7  and  C_8
REMARK    3  A    between atoms: C_8  and  C_9
REMARK    4  A    between atoms: C_9  and  N_10
REMARK    5  A    between atoms: C_13  and  O_14
REMARK                            x       y       z     vdW  Elec       q    Type
REMARK                         _______ _______ _______ _____ _____    ______ ____
ROOT
ATOM      1  C   UNL     1      44.786   4.430  12.902  0.00  0.00    +0.000 C 
ENDROOT
BRANCH   1   5
ATOM      2  C   UNL     1      48.325   6.461  13.896  0.00  0.00    +0.000 A 
ATOM      3  N   UNL     1      47.725   6.815  12.732  0.00  0.00    +0.000 NA
ATOM      4  C   UNL     1      46.619   6.112  12.411  0.00  0.00    +0.000 A 
ATOM      5  C   UNL     1      46.095   5.099  13.192  0.00  0.00    +0.000 A 
ATOM      6  C   UNL     1      46.812   4.818  14.341  0.00  0.00    +0.000 A 
ATOM      7  N   UNL     1      47.925   5.474  14.716  0.00  0.00    +0.000 NA
BRANCH   2   9
ATOM      8  N   UNL     1      50.439   7.574  13.359  0.00  0.00    +0.000 N 
ATOM      9  C   UNL     1      49.505   7.302  14.334  0.00  0.00    +0.000 C 
ATOM     10  O   UNL     1      49.646   7.748  15.466  0.00  0.00    +0.000 OA
ATOM     11  H   UNL     1      51.222   8.168  13.588  0.00  0.00    +0.000 HD
ATOM     12  H   UNL     1      50.304   7.233  12.416  0.00  0.00    +0.000 HD
ENDBRANCH   2   9
ENDBRANCH   1   5
BRANCH   1  13
ATOM     13  C   UNL     1      44.151   4.810  11.566  0.00  0.00    +0.000 C 
ATOM     14  C   UNL     1      43.636   6.229  11.403  0.00  0.00    +0.000 C 
ATOM     15  C   UNL     1      42.660   5.121  11.630  0.00  0.00    +0.000 C 
BRANCH  13  16
ATOM     16  N   UNL     1      44.518   4.056  10.348  0.00  0.00    +0.000 NA
ATOM     17  C   UNL     1      44.840   2.642  10.506  0.00  0.00    +0.000 C 
ATOM     18  C   UNL     1      44.556   1.914   9.193  0.00  0.00    +0.000 C 
ATOM     19  C   UNL     1      45.284   2.560   8.016  0.00  0.00    +0.000 C 
ATOM     20  C   UNL     1      45.088   4.076   7.983  0.00  0.00    +0.000 C 
ATOM     21  C   UNL     1      45.338   4.728   9.347  0.00  0.00    +0.000 C 
BRANCH  19  22
ATOM     22  O   UNL     1      46.674   2.240   8.060  0.00  0.00    +0.000 OA
ATOM     23  H   UNL     1      46.835   1.459   7.504  0.00  0.00    +0.000 HD
ENDBRANCH  19  22
ENDBRANCH  13  16
ENDBRANCH   1  13
TORSDOF 5
ENDMDL
MODEL 3
REMARK VINA RESULT:    -5.967      2.567      6.467
REMARK INTER + INTRA:          -7.889
REMARK INTER:                  -8.725
REMARK INTRA:                   0.836
REMARK UNBOUND:                -0.353
REMARK  Name = 
REMARK  5 active torsions:
REMARK  status: ('A' for Active; 'I' for Inactive)
REMARK    1  A    between atoms: C_2  and  C_4
REMARK    2  A    between atoms: C_7  and  C_8
REMARK    3  A    between atoms: C_8  and  C_9
REMARK    4  A    between atoms: C_9  and  N_10
REMARK    5  A    between atoms: C_13  and  O_14
REMARK                            x       y       z     vdW  Elec       q    Type
REMARK                         _______ _______ _______ _____ _____    ______ ____
ROOT
ATOM      1  C   UNL     1      46.786   6.053  12.121  0.00  0.00    +0.000 C 
ENDROOT
BRANCH   1   5
ATOM      2  C   UNL     1      47.734   3.891  15.594  0.00  0.00    +0.000 A 
ATOM      3  N   UNL     1      47.210   3.186  14.561  0.00  0.00    +0.000 NA
ATOM      4  C   UNL     1      46.867   3.912  13.477  0.00  0.00    +0.000 A 
ATOM      5  C   UNL     1      47.030   5.281  13.381  0.00  0.00    +0.000 A 
ATOM      6  C   UNL     1      47.552   5.887  14.511  0.00  0.00    +0.000 A 
ATOM      7  N   UNL     1      47.908   5.224  15.627  0.00  0.00    +0.000 NA
BRANCH   2   9
ATOM      8  N   UNL     1      47.321   2.925  17.806  0.00  0.00    +0.000 N 
ATOM      9  C   UNL     1      48.227   3.092  16.781  0.00  0.00    +0.000 C 
ATOM     10  O   UNL     1      49.342   2.591  16.856  0.00  0.00    +0.000 OA
ATOM     11  H   UNL     1      47.584   2.362  18.601  0.00  0.00    +0.000 HD
ATOM     12  H   UNL     1      46.388   3.311  17.728  0.00  0.00    +0.000 HD
ENDBRANCH   2   9
ENDBRANCH   1   5
BRANCH   1  13
ATOM     13  C   UNL     1      45.383   5.906  11.537  0.00  0.00    +0.000 C 
ATOM     14  C   UNL     1      44.505   7.144  11.475  0.00  0.00    +0.000 C 
ATOM     15  C   UNL     1      44.248   6.120  12.532  0.00  0.00    +0.000 C 
BRANCH  13  16
ATOM     16  N   UNL     1      45.102   4.804  10.591  0.00  0.00    +0.000 NA
ATOM     17  C   UNL     1      45.000   3.457  11.143  0.00  0.00    +0.000 C 
ATOM     18  C   UNL     1      44.114   2.609  10.232  0.00  0.00    +0.000 C 
ATOM     19  C   UNL     1      44.607   2.622   8.787  0.00  0.00    +0.000 C 
ATOM     20  C   UNL     1      44.892   4.040   8.291  0.00  0.00    +0.000 C 
ATOM     21  C   UNL     1      45.741   4.845   9.282  0.00  0.00    +0.000 C 
BRANCH  19  22
ATOM     22  O   UNL     1      45.769   1.806   8.655  0.00  0.00    +0.000 OA
ATOM     23  H   UNL     1      46.502   2.219   9.142  0.00  0.00    +0.000 HD
ENDBRANCH  19  22
ENDBRANCH  13  16
ENDBRANCH   1  13
TORSDOF 5
ENDMDL
MODEL 4
REMARK VINA RESULT:    -5.691      3.641      6.622
REMARK INTER + INTRA:          -7.542
REMARK INTER:                  -7.899
REMARK INTRA:                   0.357
REMARK UNBOUND:                -0.353
REMARK  Name = 
REMARK  5 active torsions:
REMARK  status: ('A' for Active; 'I' for Inactive)
REMARK    1  A    between atoms: C_2  and  C_4
REMARK    2  A    between atoms: C_7  and  C_8
REMARK    3  A    between atoms: C_8  and  C_9
REMARK    4  A    between atoms: C_9  and  N_10
REMARK    5  A    between atoms: C_13  and  O_14
REMARK                            x       y       z     vdW  Elec       q    Type
REMARK                         _______ _______ _______ _____ _____    ______ ____
ROOT
ATOM      1  C   UNL     1      47.468   6.386  12.518  0.00  0.00    +0.000 C 
ENDROOT
BRANCH   1   5
ATOM      2  C   UNL     1      47.775   3.945  15.923  0.00  0.00    +0.000 A 
ATOM      3  N   UNL     1      47.221   3.385  14.819  0.00  0.00    +0.000 NA
ATOM      4  C   UNL     1      47.087   4.206  13.756  0.00  0.00    +0.000 A 
ATOM      5  C   UNL     1      47.483   5.530  13.748  0.00  0.00    +0.000 A 
ATOM      6  C   UNL     1      48.011   5.988  14.942  0.00  0.00    +0.000 A 
ATOM      7  N   UNL     1      48.165   5.227  16.041  0.00  0.00    +0.000 NA
BRANCH   2   9
ATOM      8  N   UNL     1      46.927   2.664  17.829  0.00  0.00    +0.000 N 
ATOM      9  C   UNL     1      48.035   3.023  17.094  0.00  0.00    +0.000 C 
ATOM     10  O   UNL     1      49.141   2.585  17.389  0.00  0.00    +0.000 OA
ATOM     11  H   UNL     1      47.039   2.015  18.593  0.00  0.00    +0.000 HD
ATOM     12  H   UNL     1      46.010   3.000  17.563  0.00  0.00    +0.000 HD
ENDBRANCH   2   9
ENDBRANCH   1   5
BRANCH   1  13
ATOM     13  C   UNL     1      46.116   7.016  12.189  0.00  0.00    +0.000 C 
ATOM     14  C   UNL     1      46.105   8.445  11.676  0.00  0.00    +0.000 C 
ATOM     15  C   UNL     1      45.712   8.176  13.092  0.00  0.00    +0.000 C 
BRANCH  13  16
ATOM     16  N   UNL     1      44.973   6.143  11.847  0.00  0.00    +0.000 NA
ATOM     17  C   UNL     1      44.126   5.687  12.945  0.00  0.00    +0.000 C 
ATOM     18  C   UNL     1      42.728   5.388  12.407  0.00  0.00    +0.000 C 
ATOM     19  C   UNL     1      42.766   4.404  11.239  0.00  0.00    +0.000 C 
ATOM     20  C   UNL     1      43.803   4.802  10.188  0.00  0.00    +0.000 C 
ATOM     21  C   UNL     1      45.164   5.138  10.808  0.00  0.00    +0.000 C 
BRANCH  19  22
ATOM     22  O   UNL     1      43.022   3.084  11.715  0.00  0.00    +0.000 OA
ATOM     23  H   UNL     1      42.497   2.453  11.194  0.00  0.00    +0.000 HD
ENDBRANCH  19  22
ENDBRANCH  13  16
ENDBRANCH   1  13
TORSDOF 5
ENDMDL
MODEL 5
REMARK VINA RESULT:    -5.455      4.516      7.304
REMARK INTER + INTRA:          -7.243
REMARK INTER:                  -6.543
REMARK INTRA:                  -0.700
REMARK UNBOUND:                -0.353
REMARK  Name = 
REMARK  5 active torsions:
REMARK  status: ('A' for Active; 'I' for Inactive)
REMARK    1  A    between atoms: C_2  and  C_4
REMARK    2  A    between atoms: C_7  and  C_8
REMARK    3  A    between atoms: C_8  and  C_9
REMARK    4  A    between atoms: C_9  and  N_10
REMARK    5  A    between atoms: C_13  and  O_14
REMARK                            x       y       z     vdW  Elec       q    Type
REMARK                         _______ _______ _______ _____ _____    ______ ____
ROOT
ATOM      1  C   UNL     1      49.419   6.539  15.951  0.00  0.00    +0.000 C 
ENDROOT
BRANCH   1   5
ATOM      2  C   UNL     1      46.309   4.880  13.667  0.00  0.00    +0.000 A 
ATOM      3  N   UNL     1      46.848   6.038  13.213  0.00  0.00    +0.000 NA
ATOM      4  C   UNL     1      47.810   6.576  13.992  0.00  0.00    +0.000 A 
ATOM      5  C   UNL     1      48.250   6.014  15.175  0.00  0.00    +0.000 A 
ATOM      6  C   UNL     1      47.604   4.846  15.541  0.00  0.00    +0.000 A 
ATOM      7  N   UNL     1      46.634   4.260  14.815  0.00  0.00    +0.000 NA
BRANCH   2   9
ATOM      8  N   UNL     1      45.409   2.827  12.682  0.00  0.00    +0.000 N 
ATOM      9  C   UNL     1      45.305   4.198  12.763  0.00  0.00    +0.000 C 
ATOM     10  O   UNL     1      44.428   4.788  12.143  0.00  0.00    +0.000 OA
ATOM     11  H   UNL     1      44.736   2.319  12.128  0.00  0.00    +0.000 HD
ATOM     12  H   UNL     1      46.113   2.338  13.221  0.00  0.00    +0.000 HD
ENDBRANCH   2   9
ENDBRANCH   1   5
BRANCH   1  13
ATOM     13  C   UNL     1      49.062   7.205  17.278  0.00  0.00    +0.000 C 
ATOM     14  C   UNL     1      48.282   8.507  17.232  0.00  0.00    +0.000 C 
ATOM     15  C   UNL     1      49.746   8.545  17.527  0.00  0.00    +0.000 C 
BRANCH  13  16
ATOM     16  N   UNL     1      48.974   6.381  18.503  0.00  0.00    +0.000 NA
ATOM     17  C   UNL     1      49.917   5.276  18.637  0.00  0.00    +0.000 C 
ATOM     18  C   UNL     1      50.129   4.977  20.120  0.00  0.00    +0.000 C 
ATOM     19  C   UNL     1      48.809   4.721  20.844  0.00  0.00    +0.000 C 
ATOM     20  C   UNL     1      47.767   5.797  20.533  0.00  0.00    +0.000 C 
ATOM     21  C   UNL     1      47.649   6.079  19.031  0.00  0.00    +0.000 C 
BRANCH  19  22
ATOM     22  O   UNL     1      48.305   3.429  20.508  0.00  0.00    +0.000 OA
ATOM     23  H   UNL     1      48.442   3.274  19.558  0.00  0.00    +0.000 HD
ENDBRANCH  19  22
ENDBRANCH  13  16
ENDBRANCH   1  13
TORSDOF 5
ENDMDL
MODEL 6
REMARK VINA RESULT:    -5.446      3.860      5.881
REMARK INTER + INTRA:          -7.232
REMARK INTER:                  -6.623
REMARK INTRA:                  -0.609
REMARK UNBOUND:                -0.353
REMARK  Name = 
REMARK  5 active torsions:
REMARK  status: ('A' for Active; 'I' for Inactive)
REMARK    1  A    between atoms: C_2  and  C_4
REMARK    2  A    between atoms: C_7  and  C_8
REMARK    3  A    between atoms: C_8  and  C_9
REMARK    4  A    between atoms: C_9  and  N_10
REMARK    5  A    between atoms: C_13  and  O_14
REMARK                            x       y       z     vdW  Elec       q    Type
REMARK                         _______ _______ _______ _____ _____    ______ ____
ROOT
ATOM      1  C   UNL     1      48.514   6.403  12.656  0.00  0.00    +0.000 C 
ENDROOT
BRANCH   1   5
ATOM      2  C   UNL     1      44.459   5.552  11.967  0.00  0.00    +0.000 A 
ATOM      3  N   UNL     1      45.128   6.180  10.969  0.00  0.00    +0.000 NA
ATOM      4  C   UNL     1      46.415   6.487  11.236  0.00  0.00    +0.000 A 
ATOM      5  C   UNL     1      47.048   6.193  12.428  0.00  0.00    +0.000 A 
ATOM      6  C   UNL     1      46.251   5.573  13.374  0.00  0.00    +0.000 A 
ATOM      7  N   UNL     1      44.960   5.245  13.177  0.00  0.00    +0.000 NA
BRANCH   2   9
ATOM      8  N   UNL     1      42.084   6.082  11.702  0.00  0.00    +0.000 N 
ATOM      9  C   UNL     1      43.048   5.100  11.659  0.00  0.00    +0.000 C 
ATOM     10  O   UNL     1      42.746   3.950  11.364  0.00  0.00    +0.000 OA
ATOM     11  H   UNL     1      41.134   5.842  11.461  0.00  0.00    +0.000 HD
ATOM     12  H   UNL     1      42.341   7.038  11.913  0.00  0.00    +0.000 HD
ENDBRANCH   2   9
ENDBRANCH   1   5
BRANCH   1  13
ATOM     13  C   UNL     1      48.884   7.757  13.257  0.00  0.00    +0.000 C 
ATOM     14  C   UNL     1      48.749   8.986  12.375  0.00  0.00    +0.000 C 
ATOM     15  C   UNL     1      50.107   8.422  12.635  0.00  0.00    +0.000 C 
BRANCH  13  16
ATOM     16  N   UNL     1      48.827   7.941  14.723  0.00  0.00    +0.000 NA
ATOM     17  C   UNL     1      48.925   6.744  15.553  0.00  0.00    +0.000 C 
ATOM     18  C   UNL     1      49.486   7.129  16.920  0.00  0.00    +0.000 C 
ATOM     19  C   UNL     1      48.671   8.241  17.578  0.00  0.00    +0.000 C 
ATOM     20  C   UNL     1      48.416   9.406  16.621  0.00  0.00    +0.000 C 
ATOM     21  C   UNL     1      47.906   8.938  15.253  0.00  0.00    +0.000 C 
BRANCH  19  22
ATOM     22  O   UNL     1      47.437   7.722  18.070  0.00  0.00    +0.000 OA
ATOM     23  H   UNL     1      46.704   8.134  17.581  0.00  0.00    +0.000 HD
ENDBRANCH  19  22
ENDBRANCH  13  16
ENDBRANCH   1  13
TORSDOF 5
ENDMDL
MODEL 7
REMARK VINA RESULT:    -5.103      4.567      7.636
REMARK INTER + INTRA:          -6.799
REMARK INTER:                  -6.129
REMARK INTRA:                  -0.669
REMARK UNBOUND:                -0.353
REMARK  Name = 
REMARK  5 active torsions:
REMARK  status: ('A' for Active; 'I' for Inactive)
REMARK    1  A    between atoms: C_2  and  C_4
REMARK    2  A    between atoms: C_7  and  C_8
REMARK    3  A    between atoms: C_8  and  C_9
REMARK    4  A    between atoms: C_9  and  N_10
REMARK    5  A    between atoms: C_13  and  O_14
REMARK                            x       y       z     vdW  Elec       q    Type
REMARK                         _______ _______ _______ _____ _____    ______ ____
ROOT
ATOM      1  C   UNL     1      48.711   8.296  14.319  0.00  0.00    +0.000 C 
ENDROOT
BRANCH   1   5
ATOM      2  C   UNL     1      49.798   5.038  16.735  0.00  0.00    +0.000 A 
ATOM      3  N   UNL     1      48.537   5.034  16.237  0.00  0.00    +0.000 NA
ATOM      4  C   UNL     1      48.197   6.116  15.507  0.00  0.00    +0.000 A 
ATOM      5  C   UNL     1      49.048   7.175  15.253  0.00  0.00    +0.000 A 
ATOM      6  C   UNL     1      50.299   7.070  15.836  0.00  0.00    +0.000 A 
ATOM      7  N   UNL     1      50.700   6.023  16.580  0.00  0.00    +0.000 NA
BRANCH   2   9
ATOM      8  N   UNL     1      50.503   3.947  18.811  0.00  0.00    +0.000 N 
ATOM      9  C   UNL     1      50.244   3.790  17.467  0.00  0.00    +0.000 C 
ATOM     10  O   UNL     1      50.357   2.690  16.941  0.00  0.00    +0.000 OA
ATOM     11  H   UNL     1      50.760   3.137  19.355  0.00  0.00    +0.000 HD
ATOM     12  H   UNL     1      50.376   4.850  19.251  0.00  0.00    +0.000 HD
ENDBRANCH   2   9
ENDBRANCH   1   5
BRANCH   1  13
ATOM     13  C   UNL     1      48.510   7.883  12.863  0.00  0.00    +0.000 C 
ATOM     14  C   UNL     1      49.689   7.264  12.131  0.00  0.00    +0.000 C 
ATOM     15  C   UNL     1      49.321   8.684  11.851  0.00  0.00    +0.000 C 
BRANCH  13  16
ATOM     16  N   UNL     1      47.148   7.576  12.376  0.00  0.00    +0.000 NA
ATOM     17  C   UNL     1      46.047   8.359  12.928  0.00  0.00    +0.000 C 
ATOM     18  C   UNL     1      44.900   8.388  11.920  0.00  0.00    +0.000 C 
ATOM     19  C   UNL     1      44.476   6.982  11.499  0.00  0.00    +0.000 C 
ATOM     20  C   UNL     1      45.673   6.116  11.107  0.00  0.00    +0.000 C 
ATOM     21  C   UNL     1      46.804   6.179  12.140  0.00  0.00    +0.000 C 
BRANCH  19  22
ATOM     22  O   UNL     1      43.732   6.358  12.544  0.00  0.00    +0.000 OA
ATOM     23  H   UNL     1      42.792   6.582  12.440  0.00  0.00    +0.000 HD
ENDBRANCH  19  22
ENDBRANCH  13  16
ENDBRANCH   1  13
TORSDOF 5
ENDMDL
MODEL 8
REMARK VINA RESULT:    -5.097      4.528      6.680
REMARK INTER + INTRA:          -6.791
REMARK INTER:                  -6.925
REMARK INTRA:                   0.134
REMARK UNBOUND:                -0.353
REMARK  Name = 
REMARK  5 active torsions:
REMARK  status: ('A' for Active; 'I' for Inactive)
REMARK    1  A    between atoms: C_2  and  C_4
REMARK    2  A    between atoms: C_7  and  C_8
REMARK    3  A    between atoms: C_8  and  C_9
REMARK    4  A    between atoms: C_9  and  N_10
REMARK    5  A    between atoms: C_13  and  O_14
REMARK                            x       y       z     vdW  Elec       q    Type
REMARK                         _______ _______ _______ _____ _____    ______ ____
ROOT
ATOM      1  C   UNL     1      49.021   6.646  14.394  0.00  0.00    +0.000 C 
ENDROOT
BRANCH   1   5
ATOM      2  C   UNL     1      45.157   6.059  12.857  0.00  0.00    +0.000 A 
ATOM      3  N   UNL     1      45.841   4.949  13.228  0.00  0.00    +0.000 NA
ATOM      4  C   UNL     1      47.098   5.161  13.670  0.00  0.00    +0.000 A 
ATOM      5  C   UNL     1      47.684   6.409  13.762  0.00  0.00    +0.000 A 
ATOM      6  C   UNL     1      46.891   7.459  13.331  0.00  0.00    +0.000 A 
ATOM      7  N   UNL     1      45.634   7.316  12.873  0.00  0.00    +0.000 NA
BRANCH   2   9
ATOM      8  N   UNL     1      43.287   6.596  11.371  0.00  0.00    +0.000 N 
ATOM      9  C   UNL     1      43.710   5.864  12.458  0.00  0.00    +0.000 C 
ATOM     10  O   UNL     1      42.940   5.099  13.026  0.00  0.00    +0.000 OA
ATOM     11  H   UNL     1      42.343   6.469  11.037  0.00  0.00    +0.000 HD
ATOM     12  H   UNL     1      43.934   7.202  10.883  0.00  0.00    +0.000 HD
ENDBRANCH   2   9
ENDBRANCH   1   5
BRANCH   1  13
ATOM     13  C   UNL     1      49.025   6.626  15.921  0.00  0.00    +0.000 C 
ATOM     14  C   UNL     1      48.670   7.910  16.650  0.00  0.00    +0.000 C 
ATOM     15  C   UNL     1      50.100   7.488  16.572  0.00  0.00    +0.000 C 
BRANCH  13  16
ATOM     16  N   UNL     1      48.825   5.344  16.630  0.00  0.00    +0.000 NA
ATOM     17  C   UNL     1      47.542   5.139  17.295  0.00  0.00    +0.000 C 
ATOM     18  C   UNL     1      47.261   3.640  17.389  0.00  0.00    +0.000 C 
ATOM     19  C   UNL     1      48.406   2.887  18.063  0.00  0.00    +0.000 C 
ATOM     20  C   UNL     1      49.766   3.265  17.474  0.00  0.00    +0.000 C 
ATOM     21  C   UNL     1      49.953   4.782  17.362  0.00  0.00    +0.000 C 
BRANCH  19  22
ATOM     22  O   UNL     1      48.391   3.124  19.470  0.00  0.00    +0.000 OA
ATOM     23  H   UNL     1      47.489   3.366  19.739  0.00  0.00    +0.000 HD
ENDBRANCH  19  22
ENDBRANCH  13  16
ENDBRANCH   1  13
TORSDOF 5
ENDMDL
MODEL 9
REMARK VINA RESULT:    -5.022      3.274      5.074
REMARK INTER + INTRA:          -6.696
REMARK INTER:                  -6.398
REMARK INTRA:                  -0.298
REMARK UNBOUND:                -0.353
REMARK  Name = 
REMARK  5 active torsions:
REMARK  status: ('A' for Active; 'I' for Inactive)
REMARK    1  A    between atoms: C_2  and  C_4
REMARK    2  A    between atoms: C_7  and  C_8
REMARK    3  A    between atoms: C_8  and  C_9
REMARK    4  A    between atoms: C_9  and  N_10
REMARK    5  A    between atoms: C_13  and  O_14
REMARK                            x       y       z     vdW  Elec       q    Type
REMARK                         _______ _______ _______ _____ _____    ______ ____
ROOT
ATOM      1  C   UNL     1      46.021   7.850  12.866  0.00  0.00    +0.000 C 
ENDROOT
BRANCH   1   5
ATOM      2  C   UNL     1      44.371   4.263  11.436  0.00  0.00    +0.000 A 
ATOM      3  N   UNL     1      45.100   4.992  10.556  0.00  0.00    +0.000 NA
ATOM      4  C   UNL     1      45.576   6.164  11.026  0.00  0.00    +0.000 A 
ATOM      5  C   UNL     1      45.364   6.623  12.312  0.00  0.00    +0.000 A 
ATOM      6  C   UNL     1      44.585   5.799  13.105  0.00  0.00    +0.000 A 
ATOM      7  N   UNL     1      44.075   4.622  12.698  0.00  0.00    +0.000 NA
BRANCH   2   9
ATOM      8  N   UNL     1      44.624   2.355   9.922  0.00  0.00    +0.000 N 
ATOM      9  C   UNL     1      43.916   2.896  10.973  0.00  0.00    +0.000 C 
ATOM     10  O   UNL     1      42.996   2.269  11.485  0.00  0.00    +0.000 OA
ATOM     11  H   UNL     1      44.390   1.427   9.604  0.00  0.00    +0.000 HD
ATOM     12  H   UNL     1      45.405   2.860   9.522  0.00  0.00    +0.000 HD
ENDBRANCH   2   9
ENDBRANCH   1   5
BRANCH   1  13
ATOM     13  C   UNL     1      47.541   7.768  12.988  0.00  0.00    +0.000 C 
ATOM     14  C   UNL     1      48.166   6.394  13.157  0.00  0.00    +0.000 C 
ATOM     15  C   UNL     1      48.051   7.293  14.344  0.00  0.00    +0.000 C 
BRANCH  13  16
ATOM     16  N   UNL     1      48.374   8.849  12.419  0.00  0.00    +0.000 NA
ATOM     17  C   UNL     1      47.745  10.151  12.229  0.00  0.00    +0.000 C 
ATOM     18  C   UNL     1      48.819  11.237  12.272  0.00  0.00    +0.000 C 
ATOM     19  C   UNL     1      49.940  10.968  11.270  0.00  0.00    +0.000 C 
ATOM     20  C   UNL     1      50.455   9.531  11.358  0.00  0.00    +0.000 C 
ATOM     21  C   UNL     1      49.318   8.503  11.363  0.00  0.00    +0.000 C 
BRANCH  19  22
ATOM     22  O   UNL     1      49.496  11.258   9.945  0.00  0.00    +0.000 OA
ATOM     23  H   UNL     1      49.369  12.217   9.858  0.00  0.00    +0.000 HD
ENDBRANCH  19  22
ENDBRANCH  13  16
ENDBRANCH   1  13
TORSDOF 5
ENDMDL
