MODEL 1
REMARK VINA RESULT:    -7.716      0.000      0.000
REMARK INTER + INTRA:         -10.746
REMARK INTER:                 -10.197
REMARK INTRA:                  -0.549
REMARK UNBOUND:                -0.549
REMARK  Name = 
REMARK  6 active torsions:
REMARK  status: ('A' for Active; 'I' for Inactive)
REMARK    1  A    between atoms: C_2  and  C_14
REMARK    2  A    between atoms: N_3  and  C_4
REMARK    3  A    between atoms: C_4  and  C_5
REMARK    4  A    between atoms: N_8  and  C_9
REMARK    5  A    between atoms: C_9  and  C_10
REMARK    6  A    between atoms: C_10  and  O_11
REMARK                            x       y       z     vdW  Elec       q    Type
REMARK                         _______ _______ _______ _____ _____    ______ ____
ROOT
ATOM      1  O   UNL     1      46.013   4.232  13.736  0.00  0.00    +0.000 OA
ATOM      2  C   UNL     1      45.847   4.974  12.772  0.00  0.00    +0.000 C 
ATOM      3  N   UNL     1      45.442   4.511  11.550  0.00  0.00    +0.000 N 
ATOM      4  H   UNL     1      45.331   5.165  10.782  0.00  0.00    +0.000 HD
ENDROOT
BRANCH   2   5
ATOM      5  C   UNL     1      46.051   6.427  12.870  0.00  0.00    +0.000 A 
ATOM      6  C   UNL     1      47.140   6.930  13.568  0.00  0.00    +0.000 A 
ATOM      7  S   UNL     1      47.243   8.634  13.539  0.00  0.00    +0.000 S 
ATOM      8  C   UNL     1      45.856   8.758  12.564  0.00  0.00    +0.000 A 
ATOM      9  N   UNL     1      45.417   9.966  12.116  0.00  0.00    +0.000 NA
ATOM     10  C   UNL     1      44.385   9.911  11.344  0.00  0.00    +0.000 A 
ATOM     11  N   UNL     1      43.729   8.756  11.001  0.00  0.00    +0.000 N 
ATOM     12  C   UNL     1      44.056   7.538  11.536  0.00  0.00    +0.000 A 
ATOM     13  O   UNL     1      43.313   6.571  11.389  0.00  0.00    +0.000 OA
ATOM     14  C   UNL     1      45.284   7.522  12.315  0.00  0.00    +0.000 A 
ATOM     15  H   UNL     1      42.887   8.789  10.449  0.00  0.00    +0.000 HD
ENDBRANCH   2   5
BRANCH   3  16
ATOM     16  C   UNL     1      45.192   3.127  11.234  0.00  0.00    +0.000 C 
BRANCH  16  17
ATOM     17  C   UNL     1      44.204   2.948  10.065  0.00  0.00    +0.000 C 
ATOM     18  C   UNL     1      44.471   1.718   9.189  0.00  0.00    +0.000 C 
ATOM     19  C   UNL     1      45.789   1.820   8.415  0.00  0.00    +0.000 C 
ATOM     20  N   UNL     1      45.897   3.052   7.613  0.00  0.00    +0.000 NA
ATOM     21  C   UNL     1      45.582   4.264   8.396  0.00  0.00    +0.000 C 
ATOM     22  C   UNL     1      44.243   4.167   9.137  0.00  0.00    +0.000 C 
BRANCH  20  23
ATOM     23  C   UNL     1      47.260   3.204   7.037  0.00  0.00    +0.000 C 
BRANCH  23  24
ATOM     24  C   UNL     1      48.031   1.887   6.861  0.00  0.00    +0.000 C 
BRANCH  24  25
ATOM     25  O   UNL     1      48.542   1.773   5.537  0.00  0.00    +0.000 OA
ATOM     26  H   UNL     1      48.735   0.823   5.415  0.00  0.00    +0.000 HD
ENDBRANCH  24  25
ENDBRANCH  23  24
ENDBRANCH  20  23
ENDBRANCH  16  17
ENDBRANCH   3  16
TORSDOF 6
ENDMDL
MODEL 2
REMARK VINA RESULT:    -7.244      4.335      7.356
REMARK INTER + INTRA:         -10.121
REMARK INTER:                  -9.401
REMARK INTRA:                  -0.720
REMARK UNBOUND:                -0.549
REMARK  Name = 
REMARK  6 active torsions:
REMARK  status: ('A' for Active; 'I' for Inactive)
REMARK    1  A    between atoms: C_2  and  C_14
REMARK    2  A    between atoms: N_3  and  C_4
REMARK    3  A    between atoms: C_4  and  C_5
REMARK    4  A    between atoms: N_8  and  C_9
REMARK    5  A    between atoms: C_9  and  C_10
REMARK    6  A    between atoms: C_10  and  O_11
REMARK                            x       y       z     vdW  Elec       q    Type
REMARK                         _______ _______ _______ _____ _____    ______ ____
ROOT
ATOM      1  O   UNL     1      48.824   6.292  13.067  0.00  0.00    +0.000 OA
ATOM      2  C   UNL     1      47.724   6.142  13.592  0.00  0.00    +0.000 C 
ATOM      3  N   UNL     1      47.569   6.004  14.944  0.00  0.00    +0.000 N 
ATOM      4  H   UNL     1      46.638   5.871  15.328  0.00  0.00    +0.000 HD
ENDROOT
BRANCH   2   5
ATOM      5  C   UNL     1      46.485   6.124  12.802  0.00  0.00    +0.000 A 
ATOM      6  C   UNL     1      45.968   7.309  12.294  0.00  0.00    +0.000 A 
ATOM      7  S   UNL     1      44.553   7.094  11.363  0.00  0.00    +0.000 S 
ATOM      8  C   UNL     1      44.601   5.408  11.575  0.00  0.00    +0.000 A 
ATOM      9  N   UNL     1      43.686   4.598  10.975  0.00  0.00    +0.000 NA
ATOM     10  C   UNL     1      43.868   3.337  11.179  0.00  0.00    +0.000 A 
ATOM     11  N   UNL     1      44.869   2.810  11.956  0.00  0.00    +0.000 N 
ATOM     12  C   UNL     1      45.726   3.593  12.682  0.00  0.00    +0.000 A 
ATOM     13  O   UNL     1      46.454   3.097  13.538  0.00  0.00    +0.000 OA
ATOM     14  C   UNL     1      45.644   5.018  12.397  0.00  0.00    +0.000 A 
ATOM     15  H   UNL     1      44.915   1.818  12.130  0.00  0.00    +0.000 HD
ENDBRANCH   2   5
BRANCH   3  16
ATOM     16  C   UNL     1      48.647   5.988  15.901  0.00  0.00    +0.000 C 
BRANCH  16  17
ATOM     17  C   UNL     1      48.217   5.456  17.282  0.00  0.00    +0.000 C 
ATOM     18  C   UNL     1      49.379   5.133  18.229  0.00  0.00    +0.000 C 
ATOM     19  C   UNL     1      50.230   3.957  17.740  0.00  0.00    +0.000 C 
ATOM     20  N   UNL     1      49.439   2.742  17.468  0.00  0.00    +0.000 NA
ATOM     21  C   UNL     1      48.266   3.014  16.612  0.00  0.00    +0.000 C 
ATOM     22  C   UNL     1      47.400   4.168  17.130  0.00  0.00    +0.000 C 
BRANCH  20  23
ATOM     23  C   UNL     1      50.267   1.694  16.814  0.00  0.00    +0.000 C 
BRANCH  23  24
ATOM     24  C   UNL     1      51.618   1.427  17.496  0.00  0.00    +0.000 C 
BRANCH  24  25
ATOM     25  O   UNL     1      51.603   0.179  18.178  0.00  0.00    +0.000 OA
ATOM     26  H   UNL     1      52.525  -0.143  18.148  0.00  0.00    +0.000 HD
ENDBRANCH  24  25
ENDBRANCH  23  24
ENDBRANCH  20  23
ENDBRANCH  16  17
ENDBRANCH   3  16
TORSDOF 6
ENDMDL
MODEL 3
REMARK VINA RESULT:    -6.785      3.825      5.121
REMARK INTER + INTRA:          -9.516
REMARK INTER:                  -8.849
REMARK INTRA:                  -0.667
REMARK UNBOUND:                -0.549
REMARK  Name = 
REMARK  6 active torsions:
REMARK  status: ('A' for Active; 'I' for Inactive)
REMARK    1  A    between atoms: C_2  and  C_14
REMARK    2  A    between atoms: N_3  and  C_4
REMARK    3  A    between atoms: C_4  and  C_5
REMARK    4  A    between atoms: N_8  and  C_9
REMARK    5  A    between atoms: C_9  and  C_10
REMARK    6  A    between atoms: C_10  and  O_11
REMARK                            x       y       z     vdW  Elec       q    Type
REMARK                         _______ _______ _______ _____ _____    ______ ____
ROOT
ATOM      1  O   UNL     1      47.530   2.908  14.985  0.00  0.00    +0.000 OA
ATOM      2  C   UNL     1      47.261   4.084  15.218  0.00  0.00    +0.000 C 
ATOM      3  N   UNL     1      46.457   4.829  14.400  0.00  0.00    +0.000 N 
ATOM      4  H   UNL     1      46.274   5.801  14.632  0.00  0.00    +0.000 HD
ENDROOT
BRANCH   2   5
ATOM      5  C   UNL     1      47.769   4.770  16.414  0.00  0.00    +0.000 A 
ATOM      6  C   UNL     1      47.361   4.362  17.676  0.00  0.00    +0.000 A 
ATOM      7  S   UNL     1      48.086   5.239  18.948  0.00  0.00    +0.000 S 
ATOM      8  C   UNL     1      48.999   6.173  17.859  0.00  0.00    +0.000 A 
ATOM      9  N   UNL     1      49.893   7.098  18.304  0.00  0.00    +0.000 NA
ATOM     10  C   UNL     1      50.554   7.699  17.373  0.00  0.00    +0.000 A 
ATOM     11  N   UNL     1      50.381   7.480  16.030  0.00  0.00    +0.000 N 
ATOM     12  C   UNL     1      49.402   6.658  15.538  0.00  0.00    +0.000 A 
ATOM     13  O   UNL     1      49.125   6.662  14.341  0.00  0.00    +0.000 OA
ATOM     14  C   UNL     1      48.708   5.864  16.541  0.00  0.00    +0.000 A 
ATOM     15  H   UNL     1      50.882   8.032  15.351  0.00  0.00    +0.000 HD
ENDBRANCH   2   5
BRANCH   3  16
ATOM     16  C   UNL     1      45.858   4.356  13.177  0.00  0.00    +0.000 C 
BRANCH  16  17
ATOM     17  C   UNL     1      44.659   5.212  12.725  0.00  0.00    +0.000 C 
ATOM     18  C   UNL     1      43.428   4.406  12.293  0.00  0.00    +0.000 C 
ATOM     19  C   UNL     1      43.674   3.591  11.019  0.00  0.00    +0.000 C 
ATOM     20  N   UNL     1      44.171   4.408   9.895  0.00  0.00    +0.000 NA
ATOM     21  C   UNL     1      45.317   5.256  10.280  0.00  0.00    +0.000 C 
ATOM     22  C   UNL     1      45.049   6.095  11.534  0.00  0.00    +0.000 C 
BRANCH  20  23
ATOM     23  C   UNL     1      44.579   3.555   8.748  0.00  0.00    +0.000 C 
BRANCH  23  24
ATOM     24  C   UNL     1      44.934   2.107   9.120  0.00  0.00    +0.000 C 
BRANCH  24  25
ATOM     25  O   UNL     1      46.067   1.658   8.384  0.00  0.00    +0.000 OA
ATOM     26  H   UNL     1      46.117   2.244   7.604  0.00  0.00    +0.000 HD
ENDBRANCH  24  25
ENDBRANCH  23  24
ENDBRANCH  20  23
ENDBRANCH  16  17
ENDBRANCH   3  16
TORSDOF 6
ENDMDL
MODEL 4
REMARK VINA RESULT:    -6.687      3.689      5.397
REMARK INTER + INTRA:          -9.386
REMARK INTER:                  -8.658
REMARK INTRA:                  -0.728
REMARK UNBOUND:                -0.549
REMARK  Name = 
REMARK  6 active torsions:
REMARK  status: ('A' for Active; 'I' for Inactive)
REMARK    1  A    between atoms: C_2  and  C_14
REMARK    2  A    between atoms: N_3  and  C_4
REMARK    3  A    between atoms: C_4  and  C_5
REMARK    4  A    between atoms: N_8  and  C_9
REMARK    5  A    between atoms: C_9  and  C_10
REMARK    6  A    between atoms: C_10  and  O_11
REMARK                            x       y       z     vdW  Elec       q    Type
REMARK                         _______ _______ _______ _____ _____    ______ ____
ROOT
ATOM      1  O   UNL     1      48.446   6.158  13.046  0.00  0.00    +0.000 OA
ATOM      2  C   UNL     1      47.808   6.034  14.088  0.00  0.00    +0.000 C 
ATOM      3  N   UNL     1      46.459   5.810  14.100  0.00  0.00    +0.000 N 
ATOM      4  H   UNL     1      45.977   5.725  14.990  0.00  0.00    +0.000 HD
ENDROOT
BRANCH   2   5
ATOM      5  C   UNL     1      48.460   6.091  15.404  0.00  0.00    +0.000 A 
ATOM      6  C   UNL     1      49.287   7.159  15.724  0.00  0.00    +0.000 A 
ATOM      7  S   UNL     1      49.919   7.085  17.308  0.00  0.00    +0.000 S 
ATOM      8  C   UNL     1      49.081   5.642  17.635  0.00  0.00    +0.000 A 
ATOM      9  N   UNL     1      49.142   5.058  18.863  0.00  0.00    +0.000 NA
ATOM     10  C   UNL     1      48.419   3.996  18.990  0.00  0.00    +0.000 A 
ATOM     11  N   UNL     1      47.662   3.445  17.987  0.00  0.00    +0.000 N 
ATOM     12  C   UNL     1      47.680   3.923  16.704  0.00  0.00    +0.000 A 
ATOM     13  O   UNL     1      47.178   3.277  15.788  0.00  0.00    +0.000 OA
ATOM     14  C   UNL     1      48.380   5.188  16.532  0.00  0.00    +0.000 A 
ATOM     15  H   UNL     1      47.174   2.575  18.131  0.00  0.00    +0.000 HD
ENDBRANCH   2   5
BRANCH   3  16
ATOM     16  C   UNL     1      45.626   5.723  12.927  0.00  0.00    +0.000 C 
BRANCH  16  17
ATOM     17  C   UNL     1      44.489   4.693  13.073  0.00  0.00    +0.000 C 
ATOM     18  C   UNL     1      44.823   3.296  12.535  0.00  0.00    +0.000 C 
ATOM     19  C   UNL     1      45.008   3.280  11.014  0.00  0.00    +0.000 C 
ATOM     20  N   UNL     1      43.861   3.849  10.283  0.00  0.00    +0.000 NA
ATOM     21  C   UNL     1      43.456   5.168  10.810  0.00  0.00    +0.000 C 
ATOM     22  C   UNL     1      43.237   5.166  12.328  0.00  0.00    +0.000 C 
BRANCH  20  23
ATOM     23  C   UNL     1      44.161   3.992   8.834  0.00  0.00    +0.000 C 
BRANCH  23  24
ATOM     24  C   UNL     1      45.655   4.118   8.499  0.00  0.00    +0.000 C 
BRANCH  24  25
ATOM     25  O   UNL     1      46.067   5.481   8.527  0.00  0.00    +0.000 OA
ATOM     26  H   UNL     1      46.723   5.537   9.249  0.00  0.00    +0.000 HD
ENDBRANCH  24  25
ENDBRANCH  23  24
ENDBRANCH  20  23
ENDBRANCH  16  17
ENDBRANCH   3  16
TORSDOF 6
ENDMDL
MODEL 5
REMARK VINA RESULT:    -6.514      4.684      7.957
REMARK INTER + INTRA:          -9.157
REMARK INTER:                  -8.511
REMARK INTRA:                  -0.647
REMARK UNBOUND:                -0.549
REMARK  Name = 
REMARK  6 active torsions:
REMARK  status: ('A' for Active; 'I' for Inactive)
REMARK    1  A    between atoms: C_2  and  C_14
REMARK    2  A    between atoms: N_3  and  C_4
REMARK    3  A    between atoms: C_4  and  C_5
REMARK    4  A    between atoms: N_8  and  C_9
REMARK    5  A    between atoms: C_9  and  C_10
REMARK    6  A    between atoms: C_10  and  O_11
REMARK                            x       y       z     vdW  Elec       q    Type
REMARK                         _______ _______ _______ _____ _____    ______ ____
ROOT
ATOM      1  O   UNL     1      48.609   6.261  13.300  0.00  0.00    +0.000 OA
ATOM      2  C   UNL     1      47.489   5.948  13.695  0.00  0.00    +0.000 C 
ATOM      3  N   UNL     1      47.254   5.523  14.973  0.00  0.00    +0.000 N 
ATOM      4  H   UNL     1      46.311   5.265  15.248  0.00  0.00    +0.000 HD
ENDROOT
BRANCH   2   5
ATOM      5  C   UNL     1      46.310   6.033  12.822  0.00  0.00    +0.000 A 
ATOM      6  C   UNL     1      45.847   7.272  12.397  0.00  0.00    +0.000 A 
ATOM      7  S   UNL     1      44.499   7.178  11.354  0.00  0.00    +0.000 S 
ATOM      8  C   UNL     1      44.507   5.478  11.405  0.00  0.00    +0.000 A 
ATOM      9  N   UNL     1      43.625   4.749  10.667  0.00  0.00    +0.000 NA
ATOM     10  C   UNL     1      43.774   3.471  10.760  0.00  0.00    +0.000 A 
ATOM     11  N   UNL     1      44.710   2.851  11.549  0.00  0.00    +0.000 N 
ATOM     12  C   UNL     1      45.524   3.542  12.406  0.00  0.00    +0.000 A 
ATOM     13  O   UNL     1      46.182   2.950  13.258  0.00  0.00    +0.000 OA
ATOM     14  C   UNL     1      45.484   4.989  12.255  0.00  0.00    +0.000 A 
ATOM     15  H   UNL     1      44.729   1.846  11.629  0.00  0.00    +0.000 HD
ENDBRANCH   2   5
BRANCH   3  16
ATOM     16  C   UNL     1      48.265   5.362  15.989  0.00  0.00    +0.000 C 
BRANCH  16  17
ATOM     17  C   UNL     1      47.761   4.585  17.220  0.00  0.00    +0.000 C 
ATOM     18  C   UNL     1      47.950   5.317  18.555  0.00  0.00    +0.000 C 
ATOM     19  C   UNL     1      49.425   5.489  18.930  0.00  0.00    +0.000 C 
ATOM     20  N   UNL     1      50.175   4.219  18.932  0.00  0.00    +0.000 NA
ATOM     21  C   UNL     1      49.972   3.443  17.692  0.00  0.00    +0.000 C 
ATOM     22  C   UNL     1      48.492   3.244  17.344  0.00  0.00    +0.000 C 
BRANCH  20  23
ATOM     23  C   UNL     1      51.633   4.454  19.108  0.00  0.00    +0.000 C 
BRANCH  23  24
ATOM     24  C   UNL     1      52.536   3.404  18.441  0.00  0.00    +0.000 C 
BRANCH  24  25
ATOM     25  O   UNL     1      53.162   2.581  19.419  0.00  0.00    +0.000 OA
ATOM     26  H   UNL     1      53.855   2.088  18.938  0.00  0.00    +0.000 HD
ENDBRANCH  24  25
ENDBRANCH  23  24
ENDBRANCH  20  23
ENDBRANCH  16  17
ENDBRANCH   3  16
TORSDOF 6
ENDMDL
MODEL 6
REMARK VINA RESULT:    -6.288      4.222      6.423
REMARK INTER + INTRA:          -8.859
REMARK INTER:                  -8.104
REMARK INTRA:                  -0.755
REMARK UNBOUND:                -0.549
REMARK  Name = 
REMARK  6 active torsions:
REMARK  status: ('A' for Active; 'I' for Inactive)
REMARK    1  A    between atoms: C_2  and  C_14
REMARK    2  A    between atoms: N_3  and  C_4
REMARK    3  A    between atoms: C_4  and  C_5
REMARK    4  A    between atoms: N_8  and  C_9
REMARK    5  A    between atoms: C_9  and  C_10
REMARK    6  A    between atoms: C_10  and  O_11
REMARK                            x       y       z     vdW  Elec       q    Type
REMARK                         _______ _______ _______ _____ _____    ______ ____
ROOT
ATOM      1  O   UNL     1      49.490   6.915  14.047  0.00  0.00    +0.000 OA
ATOM      2  C   UNL     1      48.650   6.523  14.854  0.00  0.00    +0.000 C 
ATOM      3  N   UNL     1      47.540   5.820  14.475  0.00  0.00    +0.000 N 
ATOM      4  H   UNL     1      46.871   5.528  15.181  0.00  0.00    +0.000 HD
ENDROOT
BRANCH   2   5
ATOM      5  C   UNL     1      48.795   6.763  16.297  0.00  0.00    +0.000 A 
ATOM      6  C   UNL     1      49.013   8.051  16.769  0.00  0.00    +0.000 A 
ATOM      7  S   UNL     1      49.108   8.148  18.471  0.00  0.00    +0.000 S 
ATOM      8  C   UNL     1      48.826   6.480  18.639  0.00  0.00    +0.000 A 
ATOM      9  N   UNL     1      48.726   5.905  19.869  0.00  0.00    +0.000 NA
ATOM     10  C   UNL     1      48.460   4.642  19.852  0.00  0.00    +0.000 A 
ATOM     11  N   UNL     1      48.316   3.892  18.712  0.00  0.00    +0.000 N 
ATOM     12  C   UNL     1      48.541   4.402  17.462  0.00  0.00    +0.000 A 
ATOM     13  O   UNL     1      48.629   3.657  16.489  0.00  0.00    +0.000 OA
ATOM     14  C   UNL     1      48.724   5.845  17.413  0.00  0.00    +0.000 A 
ATOM     15  H   UNL     1      48.176   2.895  18.769  0.00  0.00    +0.000 HD
ENDBRANCH   2   5
BRANCH   3  16
ATOM     16  C   UNL     1      47.203   5.480  13.116  0.00  0.00    +0.000 C 
BRANCH  16  17
ATOM     17  C   UNL     1      46.473   6.618  12.376  0.00  0.00    +0.000 C 
ATOM     18  C   UNL     1      45.080   6.946  12.930  0.00  0.00    +0.000 C 
ATOM     19  C   UNL     1      44.080   5.804  12.723  0.00  0.00    +0.000 C 
ATOM     20  N   UNL     1      43.982   5.366  11.318  0.00  0.00    +0.000 NA
ATOM     21  C   UNL     1      45.305   5.103  10.717  0.00  0.00    +0.000 C 
ATOM     22  C   UNL     1      46.288   6.265  10.897  0.00  0.00    +0.000 C 
BRANCH  20  23
ATOM     23  C   UNL     1      43.154   4.137  11.192  0.00  0.00    +0.000 C 
BRANCH  23  24
ATOM     24  C   UNL     1      43.502   3.025  12.193  0.00  0.00    +0.000 C 
BRANCH  24  25
ATOM     25  O   UNL     1      43.075   1.756  11.709  0.00  0.00    +0.000 OA
ATOM     26  H   UNL     1      43.363   1.726  10.776  0.00  0.00    +0.000 HD
ENDBRANCH  24  25
ENDBRANCH  23  24
ENDBRANCH  20  23
ENDBRANCH  16  17
ENDBRANCH   3  16
TORSDOF 6
ENDMDL
MODEL 7
REMARK VINA RESULT:    -6.260      4.356      8.298
REMARK INTER + INTRA:          -8.821
REMARK INTER:                  -8.285
REMARK INTRA:                  -0.536
REMARK UNBOUND:                -0.549
REMARK  Name = 
REMARK  6 active torsions:
REMARK  status: ('A' for Active; 'I' for Inactive)
REMARK    1  A    between atoms: C_2  and  C_14
REMARK    2  A    between atoms: N_3  and  C_4
REMARK    3  A    between atoms: C_4  and  C_5
REMARK    4  A    between atoms: N_8  and  C_9
REMARK    5  A    between atoms: C_9  and  C_10
REMARK    6  A    between atoms: C_10  and  O_11
REMARK                            x       y       z     vdW  Elec       q    Type
REMARK                         _______ _______ _______ _____ _____    ______ ____
ROOT
ATOM      1  O   UNL     1      48.675   6.047  13.272  0.00  0.00    +0.000 OA
ATOM      2  C   UNL     1      47.556   5.833  13.732  0.00  0.00    +0.000 C 
ATOM      3  N   UNL     1      47.356   5.470  15.035  0.00  0.00    +0.000 N 
ATOM      4  H   UNL     1      46.412   5.294  15.364  0.00  0.00    +0.000 HD
ENDROOT
BRANCH   2   5
ATOM      5  C   UNL     1      46.343   5.978  12.915  0.00  0.00    +0.000 A 
ATOM      6  C   UNL     1      45.905   7.241  12.540  0.00  0.00    +0.000 A 
ATOM      7  S   UNL     1      44.510   7.217  11.556  0.00  0.00    +0.000 S 
ATOM      8  C   UNL     1      44.463   5.517  11.567  0.00  0.00    +0.000 A 
ATOM      9  N   UNL     1      43.526   4.836  10.852  0.00  0.00    +0.000 NA
ATOM     10  C   UNL     1      43.636   3.552  10.908  0.00  0.00    +0.000 A 
ATOM     11  N   UNL     1      44.583   2.882  11.641  0.00  0.00    +0.000 N 
ATOM     12  C   UNL     1      45.457   3.525  12.476  0.00  0.00    +0.000 A 
ATOM     13  O   UNL     1      46.131   2.891  13.284  0.00  0.00    +0.000 OA
ATOM     14  C   UNL     1      45.459   4.976  12.361  0.00  0.00    +0.000 A 
ATOM     15  H   UNL     1      44.572   1.875  11.696  0.00  0.00    +0.000 HD
ENDBRANCH   2   5
BRANCH   3  16
ATOM     16  C   UNL     1      48.403   5.267  16.006  0.00  0.00    +0.000 C 
BRANCH  16  17
ATOM     17  C   UNL     1      49.174   6.560  16.336  0.00  0.00    +0.000 C 
ATOM     18  C   UNL     1      50.634   6.341  16.754  0.00  0.00    +0.000 C 
ATOM     19  C   UNL     1      50.760   5.602  18.090  0.00  0.00    +0.000 C 
ATOM     20  N   UNL     1      50.006   6.246  19.182  0.00  0.00    +0.000 NA
ATOM     21  C   UNL     1      48.609   6.540  18.805  0.00  0.00    +0.000 C 
ATOM     22  C   UNL     1      48.494   7.312  17.485  0.00  0.00    +0.000 C 
BRANCH  20  23
ATOM     23  C   UNL     1      49.996   5.398  20.404  0.00  0.00    +0.000 C 
BRANCH  23  24
ATOM     24  C   UNL     1      48.617   4.838  20.783  0.00  0.00    +0.000 C 
BRANCH  24  25
ATOM     25  O   UNL     1      48.508   3.468  20.413  0.00  0.00    +0.000 OA
ATOM     26  H   UNL     1      48.783   3.430  19.477  0.00  0.00    +0.000 HD
ENDBRANCH  24  25
ENDBRANCH  23  24
ENDBRANCH  20  23
ENDBRANCH  16  17
ENDBRANCH   3  16
TORSDOF 6
ENDMDL
MODEL 8
REMARK VINA RESULT:    -6.061      5.007      7.870
REMARK INTER + INTRA:          -8.559
REMARK INTER:                  -8.047
REMARK INTRA:                  -0.512
REMARK UNBOUND:                -0.549
REMARK  Name = 
REMARK  6 active torsions:
REMARK  status: ('A' for Active; 'I' for Inactive)
REMARK    1  A    between atoms: C_2  and  C_14
REMARK    2  A    between atoms: N_3  and  C_4
REMARK    3  A    between atoms: C_4  and  C_5
REMARK    4  A    between atoms: N_8  and  C_9
REMARK    5  A    between atoms: C_9  and  C_10
REMARK    6  A    between atoms: C_10  and  O_11
REMARK                            x       y       z     vdW  Elec       q    Type
REMARK                         _______ _______ _______ _____ _____    ______ ____
ROOT
ATOM      1  O   UNL     1      46.750   3.441  17.156  0.00  0.00    +0.000 OA
ATOM      2  C   UNL     1      47.653   4.119  16.673  0.00  0.00    +0.000 C 
ATOM      3  N   UNL     1      47.511   4.800  15.496  0.00  0.00    +0.000 N 
ATOM      4  H   UNL     1      48.292   5.339  15.134  0.00  0.00    +0.000 HD
ENDROOT
BRANCH   2   5
ATOM      5  C   UNL     1      48.952   4.268  17.345  0.00  0.00    +0.000 A 
ATOM      6  C   UNL     1      49.233   5.420  18.068  0.00  0.00    +0.000 A 
ATOM      7  S   UNL     1      50.765   5.400  18.819  0.00  0.00    +0.000 S 
ATOM      8  C   UNL     1      51.094   3.837  18.235  0.00  0.00    +0.000 A 
ATOM      9  N   UNL     1      52.245   3.191  18.567  0.00  0.00    +0.000 NA
ATOM     10  C   UNL     1      52.344   1.993  18.097  0.00  0.00    +0.000 A 
ATOM     11  N   UNL     1      51.406   1.390  17.298  0.00  0.00    +0.000 N 
ATOM     12  C   UNL     1      50.301   2.051  16.833  0.00  0.00    +0.000 A 
ATOM     13  O   UNL     1      49.608   1.563  15.944  0.00  0.00    +0.000 OA
ATOM     14  C   UNL     1      50.077   3.361  17.426  0.00  0.00    +0.000 A 
ATOM     15  H   UNL     1      51.575   0.476  16.908  0.00  0.00    +0.000 HD
ENDBRANCH   2   5
BRANCH   3  16
ATOM     16  C   UNL     1      46.326   4.789  14.674  0.00  0.00    +0.000 C 
BRANCH  16  17
ATOM     17  C   UNL     1      46.642   4.836  13.166  0.00  0.00    +0.000 C 
ATOM     18  C   UNL     1      47.680   5.892  12.766  0.00  0.00    +0.000 C 
ATOM     19  C   UNL     1      47.177   7.324  12.981  0.00  0.00    +0.000 C 
ATOM     20  N   UNL     1      45.890   7.593  12.315  0.00  0.00    +0.000 NA
ATOM     21  C   UNL     1      44.874   6.564  12.615  0.00  0.00    +0.000 C 
ATOM     22  C   UNL     1      45.373   5.137  12.361  0.00  0.00    +0.000 C 
BRANCH  20  23
ATOM     23  C   UNL     1      45.346   8.921  12.707  0.00  0.00    +0.000 C 
BRANCH  23  24
ATOM     24  C   UNL     1      45.003   9.846  11.529  0.00  0.00    +0.000 C 
BRANCH  24  25
ATOM     25  O   UNL     1      44.148   9.188  10.601  0.00  0.00    +0.000 OA
ATOM     26  H   UNL     1      44.401   9.537   9.724  0.00  0.00    +0.000 HD
ENDBRANCH  24  25
ENDBRANCH  23  24
ENDBRANCH  20  23
ENDBRANCH  16  17
ENDBRANCH   3  16
TORSDOF 6
ENDMDL
MODEL 9
REMARK VINA RESULT:    -5.883      4.420      7.060
REMARK INTER + INTRA:          -8.323
REMARK INTER:                  -7.729
REMARK INTRA:                  -0.594
REMARK UNBOUND:                -0.549
REMARK  Name = 
REMARK  6 active torsions:
REMARK  status: ('A' for Active; 'I' for Inactive)
REMARK    1  A    between atoms: C_2  and  C_14
REMARK    2  A    between atoms: N_3  and  C_4
REMARK    3  A    between atoms: C_4  and  C_5
REMARK    4  A    between atoms: N_8  and  C_9
REMARK    5  A    between atoms: C_9  and  C_10
REMARK    6  A    between atoms: C_10  and  O_11
REMARK                            x       y       z     vdW  Elec       q    Type
REMARK                         _______ _______ _______ _____ _____    ______ ____
ROOT
ATOM      1  O   UNL     1      48.300   5.495  13.530  0.00  0.00    +0.000 OA
ATOM      2  C   UNL     1      47.105   5.218  13.590  0.00  0.00    +0.000 C 
ATOM      3  N   UNL     1      46.608   4.298  14.472  0.00  0.00    +0.000 N 
ATOM      4  H   UNL     1      45.613   4.097  14.474  0.00  0.00    +0.000 HD
ENDROOT
BRANCH   2   5
ATOM      5  C   UNL     1      46.114   5.879  12.730  0.00  0.00    +0.000 A 
ATOM      6  C   UNL     1      45.226   5.119  11.980  0.00  0.00    +0.000 A 
ATOM      7  S   UNL     1      44.118   6.053  11.078  0.00  0.00    +0.000 S 
ATOM      8  C   UNL     1      44.762   7.505  11.683  0.00  0.00    +0.000 A 
ATOM      9  N   UNL     1      44.220   8.708  11.347  0.00  0.00    +0.000 NA
ATOM     10  C   UNL     1      44.773   9.725  11.916  0.00  0.00    +0.000 A 
ATOM     11  N   UNL     1      45.843   9.652  12.772  0.00  0.00    +0.000 N 
ATOM     12  C   UNL     1      46.500   8.479  13.030  0.00  0.00    +0.000 A 
ATOM     13  O   UNL     1      47.583   8.482  13.611  0.00  0.00    +0.000 OA
ATOM     14  C   UNL     1      45.848   7.285  12.513  0.00  0.00    +0.000 A 
ATOM     15  H   UNL     1      46.272  10.492  13.130  0.00  0.00    +0.000 HD
ENDBRANCH   2   5
BRANCH   3  16
ATOM     16  C   UNL     1      47.402   3.532  15.400  0.00  0.00    +0.000 C 
BRANCH  16  17
ATOM     17  C   UNL     1      47.246   4.008  16.858  0.00  0.00    +0.000 C 
ATOM     18  C   UNL     1      47.971   5.321  17.180  0.00  0.00    +0.000 C 
ATOM     19  C   UNL     1      49.495   5.187  17.101  0.00  0.00    +0.000 C 
ATOM     20  N   UNL     1      50.026   4.093  17.934  0.00  0.00    +0.000 NA
ATOM     21  C   UNL     1      49.313   2.818  17.710  0.00  0.00    +0.000 C 
ATOM     22  C   UNL     1      47.791   2.954  17.827  0.00  0.00    +0.000 C 
BRANCH  20  23
ATOM     23  C   UNL     1      51.475   3.874  17.680  0.00  0.00    +0.000 C 
BRANCH  23  24
ATOM     24  C   UNL     1      51.908   2.399  17.669  0.00  0.00    +0.000 C 
BRANCH  24  25
ATOM     25  O   UNL     1      52.728   2.105  18.794  0.00  0.00    +0.000 OA
ATOM     26  H   UNL     1      52.363   1.282  19.173  0.00  0.00    +0.000 HD
ENDBRANCH  24  25
ENDBRANCH  23  24
ENDBRANCH  20  23
ENDBRANCH  16  17
ENDBRANCH   3  16
TORSDOF 6
ENDMDL
