MODEL 1
REMARK VINA RESULT:    -7.951      0.000      0.000
REMARK INTER + INTRA:         -10.307
REMARK INTER:                  -9.810
REMARK INTRA:                  -0.497
REMARK UNBOUND:                -0.497
REMARK  Name = 
REMARK  5 active torsions:
REMARK  status: ('A' for Active; 'I' for Inactive)
REMARK    1  A    between atoms: C_1  and  C_2
REMARK    2  A    between atoms: C_4  and  C_5
REMARK    3  A    between atoms: N_10  and  C_11
REMARK    4  A    between atoms: C_11  and  C_12
REMARK    5  A    between atoms: C_17  and  N_18
REMARK                            x       y       z     vdW  Elec       q    Type
REMARK                         _______ _______ _______ _____ _____    ______ ____
ROOT
ATOM      1  C   UNL     1      49.907   1.400  16.791  0.00  0.00    +0.000 C 
ATOM      2  C   UNL     1      48.965   2.563  16.736  0.00  0.00    +0.000 A 
ATOM      3  C   UNL     1      48.789   3.389  17.813  0.00  0.00    +0.000 A 
ATOM      4  C   UNL     1      47.887   4.412  17.626  0.00  0.00    +0.000 A 
ATOM      5  N   UNL     1      47.193   4.629  16.479  0.00  0.00    +0.000 NA
ATOM      6  C   UNL     1      47.430   3.766  15.486  0.00  0.00    +0.000 A 
ATOM      7  N   UNL     1      46.745   3.834  14.293  0.00  0.00    +0.000 N 
ATOM      8  N   UNL     1      48.296   2.747  15.576  0.00  0.00    +0.000 NA
ATOM      9  H   UNL     1      47.239   3.265  13.616  0.00  0.00    +0.000 HD
ENDROOT
BRANCH   4  10
ATOM     10  C   UNL     1      47.638   5.364  18.751  0.00  0.00    +0.000 C 
ATOM     11  N   UNL     1      46.346   5.797  18.886  0.00  0.00    +0.000 N 
ATOM     12  O   UNL     1      48.522   5.734  19.514  0.00  0.00    +0.000 OA
ATOM     13  H   UNL     1      45.623   5.409  18.292  0.00  0.00    +0.000 HD
ATOM     14  H   UNL     1      46.105   6.391  19.668  0.00  0.00    +0.000 HD
ENDBRANCH   4  10
BRANCH   7  15
ATOM     15  C   UNL     1      46.240   5.099  13.821  0.00  0.00    +0.000 C 
BRANCH  15  16
ATOM     16  C   UNL     1      45.172   4.926  12.768  0.00  0.00    +0.000 A 
ATOM     17  C   UNL     1      43.874   5.410  12.946  0.00  0.00    +0.000 A 
ATOM     18  C   UNL     1      42.940   5.252  11.929  0.00  0.00    +0.000 A 
ATOM     19  F   UNL     1      41.700   5.733  12.094  0.00  0.00    +0.000 F 
ATOM     20  C   UNL     1      43.273   4.625  10.730  0.00  0.00    +0.000 A 
ATOM     21  C   UNL     1      44.560   4.128  10.510  0.00  0.00    +0.000 A 
ATOM     22  C   UNL     1      45.483   4.275  11.562  0.00  0.00    +0.000 A 
BRANCH  21  23
ATOM     23  N   UNL     1      44.925   3.510   9.336  0.00  0.00    +0.000 N 
ATOM     24  C   UNL     1      44.711   2.081   9.069  0.00  0.00    +0.000 C 
ATOM     25  C   UNL     1      45.997   1.496   8.455  0.00  0.00    +0.000 C 
ATOM     26  O   UNL     1      46.419   2.222   7.286  0.00  0.00    +0.000 OA
ATOM     27  C   UNL     1      46.650   3.605   7.608  0.00  0.00    +0.000 C 
ATOM     28  C   UNL     1      45.378   4.264   8.157  0.00  0.00    +0.000 C 
ENDBRANCH  21  23
ENDBRANCH  15  16
ENDBRANCH   7  15
TORSDOF 4
ENDMDL
MODEL 2
REMARK VINA RESULT:    -7.649      2.860      3.878
REMARK INTER + INTRA:          -9.935
REMARK INTER:                  -9.104
REMARK INTRA:                  -0.831
REMARK UNBOUND:                -0.497
REMARK  Name = 
REMARK  5 active torsions:
REMARK  status: ('A' for Active; 'I' for Inactive)
REMARK    1  A    between atoms: C_1  and  C_2
REMARK    2  A    between atoms: C_4  and  C_5
REMARK    3  A    between atoms: N_10  and  C_11
REMARK    4  A    between atoms: C_11  and  C_12
REMARK    5  A    between atoms: C_17  and  N_18
REMARK                            x       y       z     vdW  Elec       q    Type
REMARK                         _______ _______ _______ _____ _____    ______ ____
ROOT
ATOM      1  C   UNL     1      48.210   7.647  18.970  0.00  0.00    +0.000 C 
ATOM      2  C   UNL     1      48.289   6.786  17.747  0.00  0.00    +0.000 A 
ATOM      3  C   UNL     1      48.028   5.443  17.804  0.00  0.00    +0.000 A 
ATOM      4  C   UNL     1      48.147   4.772  16.608  0.00  0.00    +0.000 A 
ATOM      5  N   UNL     1      48.497   5.350  15.430  0.00  0.00    +0.000 NA
ATOM      6  C   UNL     1      48.735   6.665  15.478  0.00  0.00    +0.000 A 
ATOM      7  N   UNL     1      49.162   7.360  14.368  0.00  0.00    +0.000 N 
ATOM      8  N   UNL     1      48.637   7.399  16.594  0.00  0.00    +0.000 NA
ATOM      9  H   UNL     1      49.045   8.349  14.555  0.00  0.00    +0.000 HD
ENDROOT
BRANCH   4  10
ATOM     10  C   UNL     1      47.876   3.302  16.580  0.00  0.00    +0.000 C 
ATOM     11  N   UNL     1      47.006   2.841  17.531  0.00  0.00    +0.000 N 
ATOM     12  O   UNL     1      48.388   2.549  15.759  0.00  0.00    +0.000 OA
ATOM     13  H   UNL     1      46.536   3.499  18.142  0.00  0.00    +0.000 HD
ATOM     14  H   UNL     1      46.735   1.868  17.520  0.00  0.00    +0.000 HD
ENDBRANCH   4  10
BRANCH   7  15
ATOM     15  C   UNL     1      48.797   6.909  13.048  0.00  0.00    +0.000 C 
BRANCH  15  16
ATOM     16  C   UNL     1      47.348   7.192  12.733  0.00  0.00    +0.000 A 
ATOM     17  C   UNL     1      46.822   8.485  12.772  0.00  0.00    +0.000 A 
ATOM     18  C   UNL     1      45.489   8.691  12.440  0.00  0.00    +0.000 A 
ATOM     19  F   UNL     1      44.990   9.935  12.460  0.00  0.00    +0.000 F 
ATOM     20  C   UNL     1      44.663   7.633  12.061  0.00  0.00    +0.000 A 
ATOM     21  C   UNL     1      45.150   6.324  12.006  0.00  0.00    +0.000 A 
ATOM     22  C   UNL     1      46.496   6.134  12.372  0.00  0.00    +0.000 A 
BRANCH  21  23
ATOM     23  N   UNL     1      44.366   5.258  11.630  0.00  0.00    +0.000 N 
ATOM     24  C   UNL     1      43.367   4.634  12.509  0.00  0.00    +0.000 C 
ATOM     25  C   UNL     1      43.515   3.104  12.415  0.00  0.00    +0.000 C 
ATOM     26  O   UNL     1      43.432   2.633  11.057  0.00  0.00    +0.000 OA
ATOM     27  C   UNL     1      44.453   3.245  10.249  0.00  0.00    +0.000 C 
ATOM     28  C   UNL     1      44.312   4.771  10.243  0.00  0.00    +0.000 C 
ENDBRANCH  21  23
ENDBRANCH  15  16
ENDBRANCH   7  15
TORSDOF 4
ENDMDL
MODEL 3
REMARK VINA RESULT:    -7.412      3.028      7.628
REMARK INTER + INTRA:          -9.642
REMARK INTER:                  -8.829
REMARK INTRA:                  -0.812
REMARK UNBOUND:                -0.497
REMARK  Name = 
REMARK  5 active torsions:
REMARK  status: ('A' for Active; 'I' for Inactive)
REMARK    1  A    between atoms: C_1  and  C_2
REMARK    2  A    between atoms: C_4  and  C_5
REMARK    3  A    between atoms: N_10  and  C_11
REMARK    4  A    between atoms: C_11  and  C_12
REMARK    5  A    between atoms: C_17  and  N_18
REMARK                            x       y       z     vdW  Elec       q    Type
REMARK                         _______ _______ _______ _____ _____    ______ ____
ROOT
ATOM      1  C   UNL     1      45.972   2.936   7.483  0.00  0.00    +0.000 C 
ATOM      2  C   UNL     1      45.401   3.475   8.759  0.00  0.00    +0.000 A 
ATOM      3  C   UNL     1      44.708   2.672   9.623  0.00  0.00    +0.000 A 
ATOM      4  C   UNL     1      44.232   3.300  10.752  0.00  0.00    +0.000 A 
ATOM      5  N   UNL     1      44.406   4.617  11.034  0.00  0.00    +0.000 NA
ATOM      6  C   UNL     1      45.092   5.319  10.126  0.00  0.00    +0.000 A 
ATOM      7  N   UNL     1      45.283   6.676  10.259  0.00  0.00    +0.000 N 
ATOM      8  N   UNL     1      45.599   4.790   9.004  0.00  0.00    +0.000 NA
ATOM      9  H   UNL     1      46.015   6.953   9.615  0.00  0.00    +0.000 HD
ENDROOT
BRANCH   4  10
ATOM     10  C   UNL     1      43.466   2.495  11.752  0.00  0.00    +0.000 C 
ATOM     11  N   UNL     1      43.507   2.956  13.041  0.00  0.00    +0.000 N 
ATOM     12  O   UNL     1      42.833   1.490  11.450  0.00  0.00    +0.000 OA
ATOM     13  H   UNL     1      43.970   3.834  13.244  0.00  0.00    +0.000 HD
ATOM     14  H   UNL     1      42.956   2.490  13.748  0.00  0.00    +0.000 HD
ENDBRANCH   4  10
BRANCH   7  15
ATOM     15  C   UNL     1      45.320   7.276  11.569  0.00  0.00    +0.000 C 
BRANCH  15  16
ATOM     16  C   UNL     1      46.665   7.104  12.233  0.00  0.00    +0.000 A 
ATOM     17  C   UNL     1      47.835   7.626  11.679  0.00  0.00    +0.000 A 
ATOM     18  C   UNL     1      49.041   7.466  12.350  0.00  0.00    +0.000 A 
ATOM     19  F   UNL     1      50.161   7.983  11.825  0.00  0.00    +0.000 F 
ATOM     20  C   UNL     1      49.107   6.800  13.573  0.00  0.00    +0.000 A 
ATOM     21  C   UNL     1      47.959   6.265  14.165  0.00  0.00    +0.000 A 
ATOM     22  C   UNL     1      46.753   6.415  13.455  0.00  0.00    +0.000 A 
BRANCH  21  23
ATOM     23  N   UNL     1      47.987   5.608  15.373  0.00  0.00    +0.000 N 
ATOM     24  C   UNL     1      48.720   6.097  16.548  0.00  0.00    +0.000 C 
ATOM     25  C   UNL     1      49.491   4.920  17.174  0.00  0.00    +0.000 C 
ATOM     26  O   UNL     1      48.629   3.809  17.481  0.00  0.00    +0.000 OA
ATOM     27  C   UNL     1      47.964   3.344  16.292  0.00  0.00    +0.000 C 
ATOM     28  C   UNL     1      47.117   4.457  15.663  0.00  0.00    +0.000 C 
ENDBRANCH  21  23
ENDBRANCH  15  16
ENDBRANCH   7  15
TORSDOF 4
ENDMDL
MODEL 4
REMARK VINA RESULT:    -7.212      2.150      3.103
REMARK INTER + INTRA:          -9.395
REMARK INTER:                  -8.907
REMARK INTRA:                  -0.487
REMARK UNBOUND:                -0.497
REMARK  Name = 
REMARK  5 active torsions:
REMARK  status: ('A' for Active; 'I' for Inactive)
REMARK    1  A    between atoms: C_1  and  C_2
REMARK    2  A    between atoms: C_4  and  C_5
REMARK    3  A    between atoms: N_10  and  C_11
REMARK    4  A    between atoms: C_11  and  C_12
REMARK    5  A    between atoms: C_17  and  N_18
REMARK                            x       y       z     vdW  Elec       q    Type
REMARK                         _______ _______ _______ _____ _____    ______ ____
ROOT
ATOM      1  C   UNL     1      48.230   5.504  20.346  0.00  0.00    +0.000 C 
ATOM      2  C   UNL     1      48.508   4.835  19.035  0.00  0.00    +0.000 A 
ATOM      3  C   UNL     1      49.501   3.901  18.908  0.00  0.00    +0.000 A 
ATOM      4  C   UNL     1      49.652   3.374  17.646  0.00  0.00    +0.000 A 
ATOM      5  N   UNL     1      48.901   3.722  16.569  0.00  0.00    +0.000 NA
ATOM      6  C   UNL     1      47.960   4.645  16.792  0.00  0.00    +0.000 A 
ATOM      7  N   UNL     1      47.174   5.134  15.772  0.00  0.00    +0.000 N 
ATOM      8  N   UNL     1      47.737   5.207  17.989  0.00  0.00    +0.000 NA
ATOM      9  H   UNL     1      46.389   5.621  16.189  0.00  0.00    +0.000 HD
ENDROOT
BRANCH   4  10
ATOM     10  C   UNL     1      50.711   2.344  17.420  0.00  0.00    +0.000 C 
ATOM     11  N   UNL     1      51.854   2.497  18.159  0.00  0.00    +0.000 N 
ATOM     12  O   UNL     1      50.576   1.415  16.633  0.00  0.00    +0.000 OA
ATOM     13  H   UNL     1      51.903   3.226  18.861  0.00  0.00    +0.000 HD
ATOM     14  H   UNL     1      52.578   1.795  18.096  0.00  0.00    +0.000 HD
ENDBRANCH   4  10
BRANCH   7  15
ATOM     15  C   UNL     1      46.882   4.310  14.626  0.00  0.00    +0.000 C 
BRANCH  15  16
ATOM     16  C   UNL     1      46.401   5.125  13.449  0.00  0.00    +0.000 A 
ATOM     17  C   UNL     1      46.406   6.521  13.466  0.00  0.00    +0.000 A 
ATOM     18  C   UNL     1      45.982   7.219  12.342  0.00  0.00    +0.000 A 
ATOM     19  F   UNL     1      46.005   8.560  12.353  0.00  0.00    +0.000 F 
ATOM     20  C   UNL     1      45.558   6.555  11.192  0.00  0.00    +0.000 A 
ATOM     21  C   UNL     1      45.539   5.159  11.133  0.00  0.00    +0.000 A 
ATOM     22  C   UNL     1      45.947   4.471  12.291  0.00  0.00    +0.000 A 
BRANCH  21  23
ATOM     23  N   UNL     1      45.132   4.471  10.013  0.00  0.00    +0.000 N 
ATOM     24  C   UNL     1      44.059   3.467  10.021  0.00  0.00    +0.000 C 
ATOM     25  C   UNL     1      44.529   2.237   9.221  0.00  0.00    +0.000 C 
ATOM     26  O   UNL     1      44.953   2.586   7.890  0.00  0.00    +0.000 OA
ATOM     27  C   UNL     1      46.027   3.542   7.939  0.00  0.00    +0.000 C 
ATOM     28  C   UNL     1      45.594   4.823   8.661  0.00  0.00    +0.000 C 
ENDBRANCH  21  23
ENDBRANCH  15  16
ENDBRANCH   7  15
TORSDOF 4
ENDMDL
MODEL 5
REMARK VINA RESULT:    -7.200      1.783      2.062
REMARK INTER + INTRA:          -9.380
REMARK INTER:                  -8.906
REMARK INTRA:                  -0.474
REMARK UNBOUND:                -0.497
REMARK  Name = 
REMARK  5 active torsions:
REMARK  status: ('A' for Active; 'I' for Inactive)
REMARK    1  A    between atoms: C_1  and  C_2
REMARK    2  A    between atoms: C_4  and  C_5
REMARK    3  A    between atoms: N_10  and  C_11
REMARK    4  A    between atoms: C_11  and  C_12
REMARK    5  A    between atoms: C_17  and  N_18
REMARK                            x       y       z     vdW  Elec       q    Type
REMARK                         _______ _______ _______ _____ _____    ______ ____
ROOT
ATOM      1  C   UNL     1      48.616   2.936  18.195  0.00  0.00    +0.000 C 
ATOM      2  C   UNL     1      48.652   4.058  17.203  0.00  0.00    +0.000 A 
ATOM      3  C   UNL     1      49.656   4.989  17.218  0.00  0.00    +0.000 A 
ATOM      4  C   UNL     1      49.559   5.969  16.256  0.00  0.00    +0.000 A 
ATOM      5  N   UNL     1      48.562   6.055  15.339  0.00  0.00    +0.000 NA
ATOM      6  C   UNL     1      47.626   5.102  15.408  0.00  0.00    +0.000 A 
ATOM      7  N   UNL     1      46.526   5.110  14.579  0.00  0.00    +0.000 N 
ATOM      8  N   UNL     1      47.643   4.107  16.305  0.00  0.00    +0.000 NA
ATOM      9  H   UNL     1      46.092   4.196  14.629  0.00  0.00    +0.000 HD
ENDROOT
BRANCH   4  10
ATOM     10  C   UNL     1      50.616   7.024  16.198  0.00  0.00    +0.000 C 
ATOM     11  N   UNL     1      51.020   7.391  14.943  0.00  0.00    +0.000 N 
ATOM     12  O   UNL     1      51.094   7.540  17.202  0.00  0.00    +0.000 OA
ATOM     13  H   UNL     1      50.549   7.006  14.133  0.00  0.00    +0.000 HD
ATOM     14  H   UNL     1      51.685   8.145  14.840  0.00  0.00    +0.000 HD
ENDBRANCH   4  10
BRANCH   7  15
ATOM     15  C   UNL     1      46.612   5.710  13.271  0.00  0.00    +0.000 C 
BRANCH  15  16
ATOM     16  C   UNL     1      45.463   5.299  12.382  0.00  0.00    +0.000 A 
ATOM     17  C   UNL     1      44.143   5.652  12.670  0.00  0.00    +0.000 A 
ATOM     18  C   UNL     1      43.128   5.275  11.799  0.00  0.00    +0.000 A 
ATOM     19  F   UNL     1      41.864   5.631  12.068  0.00  0.00    +0.000 F 
ATOM     20  C   UNL     1      43.400   4.555  10.638  0.00  0.00    +0.000 A 
ATOM     21  C   UNL     1      44.707   4.182  10.310  0.00  0.00    +0.000 A 
ATOM     22  C   UNL     1      45.716   4.552  11.219  0.00  0.00    +0.000 A 
BRANCH  21  23
ATOM     23  N   UNL     1      45.012   3.477   9.169  0.00  0.00    +0.000 N 
ATOM     24  C   UNL     1      44.773   2.035   9.016  0.00  0.00    +0.000 C 
ATOM     25  C   UNL     1      46.025   1.392   8.389  0.00  0.00    +0.000 C 
ATOM     26  O   UNL     1      46.399   2.028   7.153  0.00  0.00    +0.000 OA
ATOM     27  C   UNL     1      46.658   3.427   7.364  0.00  0.00    +0.000 C 
ATOM     28  C   UNL     1      45.419   4.139   7.920  0.00  0.00    +0.000 C 
ENDBRANCH  21  23
ENDBRANCH  15  16
ENDBRANCH   7  15
TORSDOF 4
ENDMDL
MODEL 6
REMARK VINA RESULT:    -6.822      3.923      9.022
REMARK INTER + INTRA:          -8.914
REMARK INTER:                  -8.302
REMARK INTRA:                  -0.612
REMARK UNBOUND:                -0.497
REMARK  Name = 
REMARK  5 active torsions:
REMARK  status: ('A' for Active; 'I' for Inactive)
REMARK    1  A    between atoms: C_1  and  C_2
REMARK    2  A    between atoms: C_4  and  C_5
REMARK    3  A    between atoms: N_10  and  C_11
REMARK    4  A    between atoms: C_11  and  C_12
REMARK    5  A    between atoms: C_17  and  N_18
REMARK                            x       y       z     vdW  Elec       q    Type
REMARK                         _______ _______ _______ _____ _____    ______ ____
ROOT
ATOM      1  C   UNL     1      47.366   7.412  11.769  0.00  0.00    +0.000 C 
ATOM      2  C   UNL     1      46.881   6.204  12.512  0.00  0.00    +0.000 A 
ATOM      3  C   UNL     1      46.010   5.318  11.939  0.00  0.00    +0.000 A 
ATOM      4  C   UNL     1      45.641   4.260  12.738  0.00  0.00    +0.000 A 
ATOM      5  N   UNL     1      46.077   4.063  14.009  0.00  0.00    +0.000 NA
ATOM      6  C   UNL     1      46.923   4.985  14.481  0.00  0.00    +0.000 A 
ATOM      7  N   UNL     1      47.388   4.940  15.776  0.00  0.00    +0.000 N 
ATOM      8  N   UNL     1      47.341   6.043  13.773  0.00  0.00    +0.000 NA
ATOM      9  H   UNL     1      48.181   5.567  15.845  0.00  0.00    +0.000 HD
ENDROOT
BRANCH   4  10
ATOM     10  C   UNL     1      44.694   3.241  12.189  0.00  0.00    +0.000 C 
ATOM     11  N   UNL     1      44.960   2.808  10.918  0.00  0.00    +0.000 N 
ATOM     12  O   UNL     1      43.742   2.809  12.828  0.00  0.00    +0.000 OA
ATOM     13  H   UNL     1      45.801   3.123  10.448  0.00  0.00    +0.000 HD
ATOM     14  H   UNL     1      44.393   2.074  10.519  0.00  0.00    +0.000 HD
ENDBRANCH   4  10
BRANCH   7  15
ATOM     15  C   UNL     1      47.511   3.675  16.457  0.00  0.00    +0.000 C 
BRANCH  15  16
ATOM     16  C   UNL     1      48.914   3.433  16.957  0.00  0.00    +0.000 A 
ATOM     17  C   UNL     1      49.499   2.166  16.934  0.00  0.00    +0.000 A 
ATOM     18  C   UNL     1      50.806   2.007  17.377  0.00  0.00    +0.000 A 
ATOM     19  F   UNL     1      51.372   0.792  17.337  0.00  0.00    +0.000 F 
ATOM     20  C   UNL     1      51.552   3.090  17.840  0.00  0.00    +0.000 A 
ATOM     21  C   UNL     1      51.006   4.376  17.878  0.00  0.00    +0.000 A 
ATOM     22  C   UNL     1      49.672   4.510  17.449  0.00  0.00    +0.000 A 
BRANCH  21  23
ATOM     23  N   UNL     1      51.715   5.469  18.322  0.00  0.00    +0.000 N 
ATOM     24  C   UNL     1      51.115   6.792  18.542  0.00  0.00    +0.000 C 
ATOM     25  C   UNL     1      52.041   7.860  17.929  0.00  0.00    +0.000 C 
ATOM     26  O   UNL     1      53.385   7.768  18.437  0.00  0.00    +0.000 OA
ATOM     27  C   UNL     1      53.938   6.468  18.164  0.00  0.00    +0.000 C 
ATOM     28  C   UNL     1      53.097   5.363  18.814  0.00  0.00    +0.000 C 
ENDBRANCH  21  23
ENDBRANCH  15  16
ENDBRANCH   7  15
TORSDOF 4
ENDMDL
MODEL 7
REMARK VINA RESULT:    -6.738      3.140      9.031
REMARK INTER + INTRA:          -8.811
REMARK INTER:                  -8.257
REMARK INTRA:                  -0.554
REMARK UNBOUND:                -0.497
REMARK  Name = 
REMARK  5 active torsions:
REMARK  status: ('A' for Active; 'I' for Inactive)
REMARK    1  A    between atoms: C_1  and  C_2
REMARK    2  A    between atoms: C_4  and  C_5
REMARK    3  A    between atoms: N_10  and  C_11
REMARK    4  A    between atoms: C_11  and  C_12
REMARK    5  A    between atoms: C_17  and  N_18
REMARK                            x       y       z     vdW  Elec       q    Type
REMARK                         _______ _______ _______ _____ _____    ______ ____
ROOT
ATOM      1  C   UNL     1      44.741   7.893  11.667  0.00  0.00    +0.000 C 
ATOM      2  C   UNL     1      44.880   6.449  12.044  0.00  0.00    +0.000 A 
ATOM      3  C   UNL     1      44.299   5.460  11.297  0.00  0.00    +0.000 A 
ATOM      4  C   UNL     1      44.501   4.180  11.763  0.00  0.00    +0.000 A 
ATOM      5  N   UNL     1      45.211   3.867  12.877  0.00  0.00    +0.000 NA
ATOM      6  C   UNL     1      45.734   4.902  13.541  0.00  0.00    +0.000 A 
ATOM      7  N   UNL     1      46.421   4.728  14.722  0.00  0.00    +0.000 N 
ATOM      8  N   UNL     1      45.597   6.179  13.157  0.00  0.00    +0.000 NA
ATOM      9  H   UNL     1      46.928   5.584  14.917  0.00  0.00    +0.000 HD
ENDROOT
BRANCH   4  10
ATOM     10  C   UNL     1      43.904   3.038  11.005  0.00  0.00    +0.000 C 
ATOM     11  N   UNL     1      43.394   2.022  11.767  0.00  0.00    +0.000 N 
ATOM     12  O   UNL     1      43.862   3.006   9.780  0.00  0.00    +0.000 OA
ATOM     13  H   UNL     1      43.369   2.116  12.775  0.00  0.00    +0.000 HD
ATOM     14  H   UNL     1      42.920   1.254  11.311  0.00  0.00    +0.000 HD
ENDBRANCH   4  10
BRANCH   7  15
ATOM     15  C   UNL     1      47.122   3.495  14.975  0.00  0.00    +0.000 C 
BRANCH  15  16
ATOM     16  C   UNL     1      47.998   3.581  16.202  0.00  0.00    +0.000 A 
ATOM     17  C   UNL     1      48.922   2.584  16.522  0.00  0.00    +0.000 A 
ATOM     18  C   UNL     1      49.725   2.732  17.646  0.00  0.00    +0.000 A 
ATOM     19  F   UNL     1      50.625   1.782  17.941  0.00  0.00    +0.000 F 
ATOM     20  C   UNL     1      49.635   3.859  18.460  0.00  0.00    +0.000 A 
ATOM     21  C   UNL     1      48.725   4.882  18.175  0.00  0.00    +0.000 A 
ATOM     22  C   UNL     1      47.903   4.700  17.047  0.00  0.00    +0.000 A 
BRANCH  21  23
ATOM     23  N   UNL     1      48.613   6.011  18.952  0.00  0.00    +0.000 N 
ATOM     24  C   UNL     1      48.752   6.008  20.415  0.00  0.00    +0.000 C 
ATOM     25  C   UNL     1      47.613   6.852  21.019  0.00  0.00    +0.000 C 
ATOM     26  O   UNL     1      47.573   8.181  20.468  0.00  0.00    +0.000 OA
ATOM     27  C   UNL     1      47.399   8.130  19.041  0.00  0.00    +0.000 C 
ATOM     28  C   UNL     1      48.546   7.362  18.373  0.00  0.00    +0.000 C 
ENDBRANCH  21  23
ENDBRANCH  15  16
ENDBRANCH   7  15
TORSDOF 4
ENDMDL
MODEL 8
REMARK VINA RESULT:    -6.452      3.598      4.961
REMARK INTER + INTRA:          -8.458
REMARK INTER:                  -7.835
REMARK INTRA:                  -0.623
REMARK UNBOUND:                -0.497
REMARK  Name = 
REMARK  5 active torsions:
REMARK  status: ('A' for Active; 'I' for Inactive)
REMARK    1  A    between atoms: C_1  and  C_2
REMARK    2  A    between atoms: C_4  and  C_5
REMARK    3  A    between atoms: N_10  and  C_11
REMARK    4  A    between atoms: C_11  and  C_12
REMARK    5  A    between atoms: C_17  and  N_18
REMARK                            x       y       z     vdW  Elec       q    Type
REMARK                         _______ _______ _______ _____ _____    ______ ____
ROOT
ATOM      1  C   UNL     1      54.031   5.340  19.010  0.00  0.00    +0.000 C 
ATOM      2  C   UNL     1      52.797   4.851  18.316  0.00  0.00    +0.000 A 
ATOM      3  C   UNL     1      52.535   3.513  18.188  0.00  0.00    +0.000 A 
ATOM      4  C   UNL     1      51.370   3.206  17.521  0.00  0.00    +0.000 A 
ATOM      5  N   UNL     1      50.512   4.123  17.005  0.00  0.00    +0.000 NA
ATOM      6  C   UNL     1      50.857   5.403  17.177  0.00  0.00    +0.000 A 
ATOM      7  N   UNL     1      50.108   6.429  16.646  0.00  0.00    +0.000 N 
ATOM      8  N   UNL     1      51.966   5.794  17.820  0.00  0.00    +0.000 NA
ATOM      9  H   UNL     1      50.399   7.291  17.092  0.00  0.00    +0.000 HD
ENDROOT
BRANCH   4  10
ATOM     10  C   UNL     1      51.005   1.768  17.340  0.00  0.00    +0.000 C 
ATOM     11  N   UNL     1      51.713   0.876  18.100  0.00  0.00    +0.000 N 
ATOM     12  O   UNL     1      50.127   1.399  16.569  0.00  0.00    +0.000 OA
ATOM     13  H   UNL     1      52.374   1.218  18.788  0.00  0.00    +0.000 HD
ATOM     14  H   UNL     1      51.466  -0.103  18.068  0.00  0.00    +0.000 HD
ENDBRANCH   4  10
BRANCH   7  15
ATOM     15  C   UNL     1      48.691   6.259  16.442  0.00  0.00    +0.000 C 
BRANCH  15  16
ATOM     16  C   UNL     1      48.313   6.347  14.983  0.00  0.00    +0.000 A 
ATOM     17  C   UNL     1      49.103   7.028  14.055  0.00  0.00    +0.000 A 
ATOM     18  C   UNL     1      48.723   7.050  12.719  0.00  0.00    +0.000 A 
ATOM     19  F   UNL     1      49.493   7.688  11.826  0.00  0.00    +0.000 F 
ATOM     20  C   UNL     1      47.571   6.399  12.282  0.00  0.00    +0.000 A 
ATOM     21  C   UNL     1      46.753   5.704  13.177  0.00  0.00    +0.000 A 
ATOM     22  C   UNL     1      47.142   5.717  14.530  0.00  0.00    +0.000 A 
BRANCH  21  23
ATOM     23  N   UNL     1      45.612   5.045  12.779  0.00  0.00    +0.000 N 
ATOM     24  C   UNL     1      45.561   3.602  12.504  0.00  0.00    +0.000 C 
ATOM     25  C   UNL     1      44.788   3.379  11.190  0.00  0.00    +0.000 C 
ATOM     26  O   UNL     1      43.483   3.985  11.219  0.00  0.00    +0.000 OA
ATOM     27  C   UNL     1      43.591   5.401  11.455  0.00  0.00    +0.000 C 
ATOM     28  C   UNL     1      44.288   5.686  12.790  0.00  0.00    +0.000 C 
ENDBRANCH  21  23
ENDBRANCH  15  16
ENDBRANCH   7  15
TORSDOF 4
ENDMDL
MODEL 9
REMARK VINA RESULT:    -6.405      2.713      3.215
REMARK INTER + INTRA:          -8.399
REMARK INTER:                  -7.856
REMARK INTRA:                  -0.543
REMARK UNBOUND:                -0.497
REMARK  Name = 
REMARK  5 active torsions:
REMARK  status: ('A' for Active; 'I' for Inactive)
REMARK    1  A    between atoms: C_1  and  C_2
REMARK    2  A    between atoms: C_4  and  C_5
REMARK    3  A    between atoms: N_10  and  C_11
REMARK    4  A    between atoms: C_11  and  C_12
REMARK    5  A    between atoms: C_17  and  N_18
REMARK                            x       y       z     vdW  Elec       q    Type
REMARK                         _______ _______ _______ _____ _____    ______ ____
ROOT
ATOM      1  C   UNL     1      49.750   2.881  17.761  0.00  0.00    +0.000 C 
ATOM      2  C   UNL     1      49.398   4.306  17.462  0.00  0.00    +0.000 A 
ATOM      3  C   UNL     1      49.657   5.307  18.359  0.00  0.00    +0.000 A 
ATOM      4  C   UNL     1      49.273   6.567  17.958  0.00  0.00    +0.000 A 
ATOM      5  N   UNL     1      48.676   6.851  16.772  0.00  0.00    +0.000 NA
ATOM      6  C   UNL     1      48.461   5.806  15.966  0.00  0.00    +0.000 A 
ATOM      7  N   UNL     1      47.805   5.947  14.763  0.00  0.00    +0.000 N 
ATOM      8  N   UNL     1      48.808   4.548  16.270  0.00  0.00    +0.000 NA
ATOM      9  H   UNL     1      47.967   5.108  14.219  0.00  0.00    +0.000 HD
ENDROOT
BRANCH   4  10
ATOM     10  C   UNL     1      49.522   7.719  18.877  0.00  0.00    +0.000 C 
ATOM     11  N   UNL     1      49.844   7.391  20.167  0.00  0.00    +0.000 N 
ATOM     12  O   UNL     1      49.451   8.886  18.511  0.00  0.00    +0.000 OA
ATOM     13  H   UNL     1      49.975   6.418  20.418  0.00  0.00    +0.000 HD
ATOM     14  H   UNL     1      50.086   8.126  20.817  0.00  0.00    +0.000 HD
ENDBRANCH   4  10
BRANCH   7  15
ATOM     15  C   UNL     1      47.867   7.197  14.048  0.00  0.00    +0.000 C 
BRANCH  15  16
ATOM     16  C   UNL     1      46.675   7.392  13.142  0.00  0.00    +0.000 A 
ATOM     17  C   UNL     1      46.240   8.662  12.758  0.00  0.00    +0.000 A 
ATOM     18  C   UNL     1      45.157   8.781  11.896  0.00  0.00    +0.000 A 
ATOM     19  F   UNL     1      44.752  10.001  11.514  0.00  0.00    +0.000 F 
ATOM     20  C   UNL     1      44.498   7.659  11.399  0.00  0.00    +0.000 A 
ATOM     21  C   UNL     1      44.902   6.369  11.756  0.00  0.00    +0.000 A 
ATOM     22  C   UNL     1      45.985   6.271  12.651  0.00  0.00    +0.000 A 
BRANCH  21  23
ATOM     23  N   UNL     1      44.279   5.239  11.280  0.00  0.00    +0.000 N 
ATOM     24  C   UNL     1      43.117   4.617  11.929  0.00  0.00    +0.000 C 
ATOM     25  C   UNL     1      43.343   3.094  11.990  0.00  0.00    +0.000 C 
ATOM     26  O   UNL     1      43.620   2.535  10.693  0.00  0.00    +0.000 OA
ATOM     27  C   UNL     1      44.787   3.151  10.118  0.00  0.00    +0.000 C 
ATOM     28  C   UNL     1      44.592   4.664   9.962  0.00  0.00    +0.000 C 
ENDBRANCH  21  23
ENDBRANCH  15  16
ENDBRANCH   7  15
TORSDOF 4
ENDMDL
