MODEL 1
REMARK VINA RESULT:    -7.694      0.000      0.000
REMARK INTER + INTRA:         -10.029
REMARK INTER:                  -9.493
REMARK INTRA:                  -0.536
REMARK UNBOUND:                -0.536
REMARK  Name = 
REMARK  4 active torsions:
REMARK  status: ('A' for Active; 'I' for Inactive)
REMARK    1  A    between atoms: C_2  and  C_5
REMARK    2  A    between atoms: N_8  and  C_9
REMARK    3  A    between atoms: C_13  and  C_14
REMARK    4  A    between atoms: C_14  and  N_15
REMARK                            x       y       z     vdW  Elec       q    Type
REMARK                         _______ _______ _______ _____ _____    ______ ____
ROOT
ATOM      1  C   UNL     1      45.096   5.828  12.231  0.00  0.00    +0.000 A 
ATOM      2  C   UNL     1      44.034   5.646  13.127  0.00  0.00    +0.000 A 
ATOM      3  C   UNL     1      43.049   4.675  12.911  0.00  0.00    +0.000 A 
ATOM      4  C   UNL     1      43.091   3.873  11.773  0.00  0.00    +0.000 A 
ATOM      5  C   UNL     1      44.117   4.043  10.842  0.00  0.00    +0.000 A 
ATOM      6  C   UNL     1      45.116   4.999  11.098  0.00  0.00    +0.000 A 
ENDROOT
BRANCH   1  10
ATOM      7  C   UNL     1      48.029   8.879  12.126  0.00  0.00    +0.000 C 
ATOM      8  C   UNL     1      46.518   9.163  12.083  0.00  0.00    +0.000 C 
ATOM      9  C   UNL     1      45.708   8.142  12.884  0.00  0.00    +0.000 C 
ATOM     10  N   UNL     1      46.056   6.817  12.384  0.00  0.00    +0.000 N 
ATOM     11  C   UNL     1      47.460   6.427  12.531  0.00  0.00    +0.000 C 
ATOM     12  C   UNL     1      48.317   7.416  11.737  0.00  0.00    +0.000 C 
BRANCH   7  14
ATOM     13  F   UNL     1      48.915  10.575  13.568  0.00  0.00    +0.000 F 
ATOM     14  C   UNL     1      48.652   9.254  13.471  0.00  0.00    +0.000 C 
ATOM     15  F   UNL     1      49.832   8.606  13.628  0.00  0.00    +0.000 F 
ATOM     16  F   UNL     1      47.876   8.917  14.522  0.00  0.00    +0.000 F 
ENDBRANCH   7  14
ENDBRANCH   1  10
BRANCH   5  17
ATOM     17  C   UNL     1      44.149   3.258   9.555  0.00  0.00    +0.000 C 
BRANCH  17  18
ATOM     18  N   UNL     1      45.147   2.212   9.629  0.00  0.00    +0.000 N 
ATOM     19  C   UNL     1      45.959   2.169   8.502  0.00  0.00    +0.000 A 
ATOM     20  N   UNL     1      46.274   3.307   7.862  0.00  0.00    +0.000 NA
ATOM     21  C   UNL     1      47.058   3.207   6.774  0.00  0.00    +0.000 A 
ATOM     22  C   UNL     1      47.537   2.014   6.299  0.00  0.00    +0.000 A 
ATOM     23  C   UNL     1      47.159   0.907   7.017  0.00  0.00    +0.000 A 
ATOM     24  N   UNL     1      46.372   0.956   8.110  0.00  0.00    +0.000 NA
ATOM     25  H   UNL     1      44.785   1.277   9.768  0.00  0.00    +0.000 HD
ENDBRANCH  17  18
ENDBRANCH   5  17
TORSDOF 4
ENDMDL
MODEL 2
REMARK VINA RESULT:    -7.666      0.930      1.553
REMARK INTER + INTRA:          -9.994
REMARK INTER:                  -9.463
REMARK INTRA:                  -0.532
REMARK UNBOUND:                -0.536
REMARK  Name = 
REMARK  4 active torsions:
REMARK  status: ('A' for Active; 'I' for Inactive)
REMARK    1  A    between atoms: C_2  and  C_5
REMARK    2  A    between atoms: N_8  and  C_9
REMARK    3  A    between atoms: C_13  and  C_14
REMARK    4  A    between atoms: C_14  and  N_15
REMARK                            x       y       z     vdW  Elec       q    Type
REMARK                         _______ _______ _______ _____ _____    ______ ____
ROOT
ATOM      1  C   UNL     1      45.119   5.703  12.173  0.00  0.00    +0.000 A 
ATOM      2  C   UNL     1      44.033   5.575  13.048  0.00  0.00    +0.000 A 
ATOM      3  C   UNL     1      43.025   4.627  12.832  0.00  0.00    +0.000 A 
ATOM      4  C   UNL     1      43.068   3.796  11.716  0.00  0.00    +0.000 A 
ATOM      5  C   UNL     1      44.120   3.912  10.806  0.00  0.00    +0.000 A 
ATOM      6  C   UNL     1      45.142   4.845  11.062  0.00  0.00    +0.000 A 
ENDROOT
BRANCH   1  10
ATOM      7  C   UNL     1      47.905   8.737  13.152  0.00  0.00    +0.000 C 
ATOM      8  C   UNL     1      48.092   7.263  13.550  0.00  0.00    +0.000 C 
ATOM      9  C   UNL     1      47.503   6.300  12.518  0.00  0.00    +0.000 C 
ATOM     10  N   UNL     1      46.104   6.667  12.324  0.00  0.00    +0.000 N 
ATOM     11  C   UNL     1      45.865   8.015  11.804  0.00  0.00    +0.000 C 
ATOM     12  C   UNL     1      46.430   9.023  12.809  0.00  0.00    +0.000 C 
BRANCH   7  14
ATOM     13  F   UNL     1      49.242   8.120  11.262  0.00  0.00    +0.000 F 
ATOM     14  C   UNL     1      48.853   9.161  12.030  0.00  0.00    +0.000 C 
ATOM     15  F   UNL     1      49.978   9.701  12.558  0.00  0.00    +0.000 F 
ATOM     16  F   UNL     1      48.317  10.090  11.212  0.00  0.00    +0.000 F 
ENDBRANCH   7  14
ENDBRANCH   1  10
BRANCH   5  17
ATOM     17  C   UNL     1      44.159   3.094   9.540  0.00  0.00    +0.000 C 
BRANCH  17  18
ATOM     18  N   UNL     1      45.271   2.169   9.573  0.00  0.00    +0.000 N 
ATOM     19  C   UNL     1      46.015   2.186   8.400  0.00  0.00    +0.000 A 
ATOM     20  N   UNL     1      46.160   3.334   7.718  0.00  0.00    +0.000 NA
ATOM     21  C   UNL     1      46.885   3.293   6.586  0.00  0.00    +0.000 A 
ATOM     22  C   UNL     1      47.467   2.149   6.106  0.00  0.00    +0.000 A 
ATOM     23  C   UNL     1      47.260   1.026   6.869  0.00  0.00    +0.000 A 
ATOM     24  N   UNL     1      46.539   1.017   8.007  0.00  0.00    +0.000 NA
ATOM     25  H   UNL     1      45.027   1.203   9.754  0.00  0.00    +0.000 HD
ENDBRANCH  17  18
ENDBRANCH   5  17
TORSDOF 4
ENDMDL
MODEL 3
REMARK VINA RESULT:    -7.642      3.667      4.743
REMARK INTER + INTRA:          -9.965
REMARK INTER:                  -9.492
REMARK INTRA:                  -0.473
REMARK UNBOUND:                -0.536
REMARK  Name = 
REMARK  4 active torsions:
REMARK  status: ('A' for Active; 'I' for Inactive)
REMARK    1  A    between atoms: C_2  and  C_5
REMARK    2  A    between atoms: N_8  and  C_9
REMARK    3  A    between atoms: C_13  and  C_14
REMARK    4  A    between atoms: C_14  and  N_15
REMARK                            x       y       z     vdW  Elec       q    Type
REMARK                         _______ _______ _______ _____ _____    ______ ____
ROOT
ATOM      1  C   UNL     1      47.144   5.711  13.857  0.00  0.00    +0.000 A 
ATOM      2  C   UNL     1      47.767   6.745  13.147  0.00  0.00    +0.000 A 
ATOM      3  C   UNL     1      47.313   7.146  11.884  0.00  0.00    +0.000 A 
ATOM      4  C   UNL     1      46.231   6.502  11.289  0.00  0.00    +0.000 A 
ATOM      5  C   UNL     1      45.601   5.448  11.953  0.00  0.00    +0.000 A 
ATOM      6  C   UNL     1      46.050   5.086  13.235  0.00  0.00    +0.000 A 
ENDROOT
BRANCH   1  10
ATOM      7  C   UNL     1      48.097   4.582  17.824  0.00  0.00    +0.000 C 
ATOM      8  C   UNL     1      47.091   3.815  16.950  0.00  0.00    +0.000 C 
ATOM      9  C   UNL     1      47.460   3.849  15.466  0.00  0.00    +0.000 C 
ATOM     10  N   UNL     1      47.601   5.249  15.081  0.00  0.00    +0.000 N 
ATOM     11  C   UNL     1      48.648   5.999  15.777  0.00  0.00    +0.000 C 
ATOM     12  C   UNL     1      48.321   6.004  17.273  0.00  0.00    +0.000 C 
BRANCH   7  14
ATOM     13  F   UNL     1      49.247   2.481  17.905  0.00  0.00    +0.000 F 
ATOM     14  C   UNL     1      49.410   3.818  18.004  0.00  0.00    +0.000 C 
ATOM     15  F   UNL     1      49.918   4.062  19.237  0.00  0.00    +0.000 F 
ATOM     16  F   UNL     1      50.355   4.179  17.111  0.00  0.00    +0.000 F 
ENDBRANCH   7  14
ENDBRANCH   1  10
BRANCH   5  17
ATOM     17  C   UNL     1      44.485   4.667  11.306  0.00  0.00    +0.000 C 
BRANCH  17  18
ATOM     18  N   UNL     1      44.411   4.971   9.893  0.00  0.00    +0.000 N 
ATOM     19  C   UNL     1      45.056   4.024   9.108  0.00  0.00    +0.000 A 
ATOM     20  N   UNL     1      45.057   2.734   9.484  0.00  0.00    +0.000 NA
ATOM     21  C   UNL     1      45.701   1.860   8.691  0.00  0.00    +0.000 A 
ATOM     22  C   UNL     1      46.348   2.224   7.539  0.00  0.00    +0.000 A 
ATOM     23  C   UNL     1      46.295   3.563   7.240  0.00  0.00    +0.000 A 
ATOM     24  N   UNL     1      45.666   4.477   8.005  0.00  0.00    +0.000 NA
ATOM     25  H   UNL     1      44.776   5.876   9.625  0.00  0.00    +0.000 HD
ENDBRANCH  17  18
ENDBRANCH   5  17
TORSDOF 4
ENDMDL
MODEL 4
REMARK VINA RESULT:    -7.015      4.033      7.102
REMARK INTER + INTRA:          -9.192
REMARK INTER:                  -8.614
REMARK INTRA:                  -0.578
REMARK UNBOUND:                -0.536
REMARK  Name = 
REMARK  4 active torsions:
REMARK  status: ('A' for Active; 'I' for Inactive)
REMARK    1  A    between atoms: C_2  and  C_5
REMARK    2  A    between atoms: N_8  and  C_9
REMARK    3  A    between atoms: C_13  and  C_14
REMARK    4  A    between atoms: C_14  and  N_15
REMARK                            x       y       z     vdW  Elec       q    Type
REMARK                         _______ _______ _______ _____ _____    ______ ____
ROOT
ATOM      1  C   UNL     1      44.843   3.329  10.058  0.00  0.00    +0.000 A 
ATOM      2  C   UNL     1      43.975   2.349  10.557  0.00  0.00    +0.000 A 
ATOM      3  C   UNL     1      43.282   2.527  11.760  0.00  0.00    +0.000 A 
ATOM      4  C   UNL     1      43.460   3.687  12.510  0.00  0.00    +0.000 A 
ATOM      5  C   UNL     1      44.339   4.674  12.060  0.00  0.00    +0.000 A 
ATOM      6  C   UNL     1      44.997   4.492  10.830  0.00  0.00    +0.000 A 
ENDROOT
BRANCH   1  10
ATOM      7  C   UNL     1      47.580   2.874   6.860  0.00  0.00    +0.000 C 
ATOM      8  C   UNL     1      47.129   1.706   7.754  0.00  0.00    +0.000 C 
ATOM      9  C   UNL     1      45.688   1.865   8.241  0.00  0.00    +0.000 C 
ATOM     10  N   UNL     1      45.589   3.163   8.901  0.00  0.00    +0.000 N 
ATOM     11  C   UNL     1      45.864   4.329   8.059  0.00  0.00    +0.000 C 
ATOM     12  C   UNL     1      47.304   4.224   7.551  0.00  0.00    +0.000 C 
BRANCH   7  14
ATOM     13  F   UNL     1      45.821   2.089   5.435  0.00  0.00    +0.000 F 
ATOM     14  C   UNL     1      46.967   2.804   5.461  0.00  0.00    +0.000 C 
ATOM     15  F   UNL     1      47.829   2.195   4.611  0.00  0.00    +0.000 F 
ATOM     16  F   UNL     1      46.698   4.021   4.943  0.00  0.00    +0.000 F 
ENDBRANCH   7  14
ENDBRANCH   1  10
BRANCH   5  17
ATOM     17  C   UNL     1      44.629   5.904  12.884  0.00  0.00    +0.000 C 
BRANCH  17  18
ATOM     18  N   UNL     1      45.874   5.745  13.604  0.00  0.00    +0.000 N 
ATOM     19  C   UNL     1      46.876   6.583  13.130  0.00  0.00    +0.000 A 
ATOM     20  N   UNL     1      46.561   7.801  12.662  0.00  0.00    +0.000 NA
ATOM     21  C   UNL     1      47.568   8.569  12.210  0.00  0.00    +0.000 A 
ATOM     22  C   UNL     1      48.877   8.166  12.205  0.00  0.00    +0.000 A 
ATOM     23  C   UNL     1      49.100   6.904  12.699  0.00  0.00    +0.000 A 
ATOM     24  N   UNL     1      48.123   6.097  13.159  0.00  0.00    +0.000 NA
ATOM     25  H   UNL     1      46.253   4.806  13.613  0.00  0.00    +0.000 HD
ENDBRANCH  17  18
ENDBRANCH   5  17
TORSDOF 4
ENDMDL
MODEL 5
REMARK VINA RESULT:    -6.832      4.371      7.675
REMARK INTER + INTRA:          -8.966
REMARK INTER:                  -8.486
REMARK INTRA:                  -0.480
REMARK UNBOUND:                -0.536
REMARK  Name = 
REMARK  4 active torsions:
REMARK  status: ('A' for Active; 'I' for Inactive)
REMARK    1  A    between atoms: C_2  and  C_5
REMARK    2  A    between atoms: N_8  and  C_9
REMARK    3  A    between atoms: C_13  and  C_14
REMARK    4  A    between atoms: C_14  and  N_15
REMARK                            x       y       z     vdW  Elec       q    Type
REMARK                         _______ _______ _______ _____ _____    ______ ____
ROOT
ATOM      1  C   UNL     1      47.548   6.618  12.573  0.00  0.00    +0.000 A 
ATOM      2  C   UNL     1      48.108   7.596  11.741  0.00  0.00    +0.000 A 
ATOM      3  C   UNL     1      49.187   8.385  12.159  0.00  0.00    +0.000 A 
ATOM      4  C   UNL     1      49.719   8.227  13.436  0.00  0.00    +0.000 A 
ATOM      5  C   UNL     1      49.170   7.282  14.304  0.00  0.00    +0.000 A 
ATOM      6  C   UNL     1      48.111   6.475  13.851  0.00  0.00    +0.000 A 
ENDROOT
BRANCH   1  10
ATOM      7  C   UNL     1      43.871   4.669  11.790  0.00  0.00    +0.000 C 
ATOM      8  C   UNL     1      44.378   5.871  10.973  0.00  0.00    +0.000 C 
ATOM      9  C   UNL     1      45.903   5.899  10.860  0.00  0.00    +0.000 C 
ATOM     10  N   UNL     1      46.444   5.859  12.214  0.00  0.00    +0.000 N 
ATOM     11  C   UNL     1      46.118   4.665  12.996  0.00  0.00    +0.000 C 
ATOM     12  C   UNL     1      44.596   4.593  13.148  0.00  0.00    +0.000 C 
BRANCH   7  14
ATOM     13  F   UNL     1      43.701   3.519   9.695  0.00  0.00    +0.000 F 
ATOM     14  C   UNL     1      43.963   3.357  11.011  0.00  0.00    +0.000 C 
ATOM     15  F   UNL     1      43.052   2.475  11.487  0.00  0.00    +0.000 F 
ATOM     16  F   UNL     1      45.173   2.768  11.113  0.00  0.00    +0.000 F 
ENDBRANCH   7  14
ENDBRANCH   1  10
BRANCH   5  17
ATOM     17  C   UNL     1      49.658   7.141  15.724  0.00  0.00    +0.000 C 
BRANCH  17  18
ATOM     18  N   UNL     1      48.581   6.703  16.585  0.00  0.00    +0.000 N 
ATOM     19  C   UNL     1      48.675   5.356  16.914  0.00  0.00    +0.000 A 
ATOM     20  N   UNL     1      49.883   4.788  17.064  0.00  0.00    +0.000 NA
ATOM     21  C   UNL     1      49.916   3.481  17.377  0.00  0.00    +0.000 A 
ATOM     22  C   UNL     1      48.790   2.717  17.542  0.00  0.00    +0.000 A 
ATOM     23  C   UNL     1      47.604   3.384  17.366  0.00  0.00    +0.000 A 
ATOM     24  N   UNL     1      47.520   4.692  17.048  0.00  0.00    +0.000 NA
ATOM     25  H   UNL     1      47.647   6.854  16.224  0.00  0.00    +0.000 HD
ENDBRANCH  17  18
ENDBRANCH   5  17
TORSDOF 4
ENDMDL
MODEL 6
REMARK VINA RESULT:    -6.479      5.026      7.839
REMARK INTER + INTRA:          -8.530
REMARK INTER:                  -7.967
REMARK INTRA:                  -0.562
REMARK UNBOUND:                -0.536
REMARK  Name = 
REMARK  4 active torsions:
REMARK  status: ('A' for Active; 'I' for Inactive)
REMARK    1  A    between atoms: C_2  and  C_5
REMARK    2  A    between atoms: N_8  and  C_9
REMARK    3  A    between atoms: C_13  and  C_14
REMARK    4  A    between atoms: C_14  and  N_15
REMARK                            x       y       z     vdW  Elec       q    Type
REMARK                         _______ _______ _______ _____ _____    ______ ____
ROOT
ATOM      1  C   UNL     1      47.811   6.257  13.860  0.00  0.00    +0.000 A 
ATOM      2  C   UNL     1      48.789   7.107  13.329  0.00  0.00    +0.000 A 
ATOM      3  C   UNL     1      49.887   7.527  14.089  0.00  0.00    +0.000 A 
ATOM      4  C   UNL     1      50.021   7.123  15.415  0.00  0.00    +0.000 A 
ATOM      5  C   UNL     1      49.051   6.299  15.989  0.00  0.00    +0.000 A 
ATOM      6  C   UNL     1      47.976   5.858  15.196  0.00  0.00    +0.000 A 
ENDROOT
BRANCH   1  10
ATOM      7  C   UNL     1      44.725   4.838  11.332  0.00  0.00    +0.000 C 
ATOM      8  C   UNL     1      45.393   3.970  12.412  0.00  0.00    +0.000 C 
ATOM      9  C   UNL     1      45.825   4.786  13.632  0.00  0.00    +0.000 C 
ATOM     10  N   UNL     1      46.682   5.867  13.156  0.00  0.00    +0.000 N 
ATOM     11  C   UNL     1      46.056   6.817  12.234  0.00  0.00    +0.000 C 
ATOM     12  C   UNL     1      45.612   6.050  10.985  0.00  0.00    +0.000 C 
BRANCH   7  14
ATOM     13  F   UNL     1      43.178   5.499  13.037  0.00  0.00    +0.000 F 
ATOM     14  C   UNL     1      43.304   5.251  11.715  0.00  0.00    +0.000 C 
ATOM     15  F   UNL     1      42.439   4.251  11.419  0.00  0.00    +0.000 F 
ATOM     16  F   UNL     1      42.879   6.348  11.054  0.00  0.00    +0.000 F 
ENDBRANCH   7  14
ENDBRANCH   1  10
BRANCH   5  17
ATOM     17  C   UNL     1      49.111   5.910  17.445  0.00  0.00    +0.000 C 
BRANCH  17  18
ATOM     18  N   UNL     1      48.775   4.512  17.607  0.00  0.00    +0.000 N 
ATOM     19  C   UNL     1      49.896   3.692  17.624  0.00  0.00    +0.000 A 
ATOM     20  N   UNL     1      51.042   4.139  18.163  0.00  0.00    +0.000 NA
ATOM     21  C   UNL     1      52.097   3.306  18.148  0.00  0.00    +0.000 A 
ATOM     22  C   UNL     1      52.054   2.045  17.613  0.00  0.00    +0.000 A 
ATOM     23  C   UNL     1      50.842   1.679  17.083  0.00  0.00    +0.000 A 
ATOM     24  N   UNL     1      49.758   2.480  17.071  0.00  0.00    +0.000 NA
ATOM     25  H   UNL     1      48.143   4.134  16.912  0.00  0.00    +0.000 HD
ENDBRANCH  17  18
ENDBRANCH   5  17
TORSDOF 4
ENDMDL
MODEL 7
REMARK VINA RESULT:    -6.080      4.068      7.952
REMARK INTER + INTRA:          -8.037
REMARK INTER:                  -7.535
REMARK INTRA:                  -0.502
REMARK UNBOUND:                -0.536
REMARK  Name = 
REMARK  4 active torsions:
REMARK  status: ('A' for Active; 'I' for Inactive)
REMARK    1  A    between atoms: C_2  and  C_5
REMARK    2  A    between atoms: N_8  and  C_9
REMARK    3  A    between atoms: C_13  and  C_14
REMARK    4  A    between atoms: C_14  and  N_15
REMARK                            x       y       z     vdW  Elec       q    Type
REMARK                         _______ _______ _______ _____ _____    ______ ____
ROOT
ATOM      1  C   UNL     1      46.671   7.138  12.293  0.00  0.00    +0.000 A 
ATOM      2  C   UNL     1      46.149   8.419  12.073  0.00  0.00    +0.000 A 
ATOM      3  C   UNL     1      46.907   9.572  12.313  0.00  0.00    +0.000 A 
ATOM      4  C   UNL     1      48.206   9.470  12.803  0.00  0.00    +0.000 A 
ATOM      5  C   UNL     1      48.752   8.212  13.062  0.00  0.00    +0.000 A 
ATOM      6  C   UNL     1      47.987   7.066  12.779  0.00  0.00    +0.000 A 
ENDROOT
BRANCH   1  10
ATOM      7  C   UNL     1      44.870   3.390  11.496  0.00  0.00    +0.000 C 
ATOM      8  C   UNL     1      45.780   3.646  12.710  0.00  0.00    +0.000 C 
ATOM      9  C   UNL     1      45.663   5.077  13.237  0.00  0.00    +0.000 C 
ATOM     10  N   UNL     1      45.932   5.978  12.122  0.00  0.00    +0.000 N 
ATOM     11  C   UNL     1      45.006   5.886  10.991  0.00  0.00    +0.000 C 
ATOM     12  C   UNL     1      45.091   4.469  10.417  0.00  0.00    +0.000 C 
BRANCH   7  14
ATOM     13  F   UNL     1      42.610   4.146  11.246  0.00  0.00    +0.000 F 
ATOM     14  C   UNL     1      43.399   3.259  11.890  0.00  0.00    +0.000 C 
ATOM     15  F   UNL     1      43.256   3.497  13.217  0.00  0.00    +0.000 F 
ATOM     16  F   UNL     1      42.900   2.027  11.656  0.00  0.00    +0.000 F 
ENDBRANCH   7  14
ENDBRANCH   1  10
BRANCH   5  17
ATOM     17  C   UNL     1      50.120   8.060  13.677  0.00  0.00    +0.000 C 
BRANCH  17  18
ATOM     18  N   UNL     1      50.144   8.640  15.002  0.00  0.00    +0.000 N 
ATOM     19  C   UNL     1      49.694   7.760  15.979  0.00  0.00    +0.000 A 
ATOM     20  N   UNL     1      49.935   6.445  15.854  0.00  0.00    +0.000 NA
ATOM     21  C   UNL     1      49.473   5.637  16.825  0.00  0.00    +0.000 A 
ATOM     22  C   UNL     1      48.775   6.091  17.913  0.00  0.00    +0.000 A 
ATOM     23  C   UNL     1      48.575   7.449  17.951  0.00  0.00    +0.000 A 
ATOM     24  N   UNL     1      49.016   8.298  17.001  0.00  0.00    +0.000 NA
ATOM     25  H   UNL     1      49.615   9.497  15.111  0.00  0.00    +0.000 HD
ENDBRANCH  17  18
ENDBRANCH   5  17
TORSDOF 4
ENDMDL
MODEL 8
REMARK VINA RESULT:    -6.019      4.269      6.466
REMARK INTER + INTRA:          -7.962
REMARK INTER:                  -7.435
REMARK INTRA:                  -0.528
REMARK UNBOUND:                -0.536
REMARK  Name = 
REMARK  4 active torsions:
REMARK  status: ('A' for Active; 'I' for Inactive)
REMARK    1  A    between atoms: C_2  and  C_5
REMARK    2  A    between atoms: N_8  and  C_9
REMARK    3  A    between atoms: C_13  and  C_14
REMARK    4  A    between atoms: C_14  and  N_15
REMARK                            x       y       z     vdW  Elec       q    Type
REMARK                         _______ _______ _______ _____ _____    ______ ____
ROOT
ATOM      1  C   UNL     1      48.806   6.689  15.123  0.00  0.00    +0.000 A 
ATOM      2  C   UNL     1      49.965   7.393  14.770  0.00  0.00    +0.000 A 
ATOM      3  C   UNL     1      50.152   7.897  13.477  0.00  0.00    +0.000 A 
ATOM      4  C   UNL     1      49.188   7.685  12.494  0.00  0.00    +0.000 A 
ATOM      5  C   UNL     1      48.033   6.964  12.799  0.00  0.00    +0.000 A 
ATOM      6  C   UNL     1      47.848   6.499  14.114  0.00  0.00    +0.000 A 
ENDROOT
BRANCH   1  10
ATOM      7  C   UNL     1      47.761   5.319  18.990  0.00  0.00    +0.000 C 
ATOM      8  C   UNL     1      47.145   4.749  17.701  0.00  0.00    +0.000 C 
ATOM      9  C   UNL     1      48.128   4.760  16.529  0.00  0.00    +0.000 C 
ATOM     10  N   UNL     1      48.613   6.128  16.376  0.00  0.00    +0.000 N 
ATOM     11  C   UNL     1      49.341   6.678  17.521  0.00  0.00    +0.000 C 
ATOM     12  C   UNL     1      48.395   6.698  18.725  0.00  0.00    +0.000 C 
BRANCH   7  14
ATOM     13  F   UNL     1      50.026   4.600  19.300  0.00  0.00    +0.000 F 
ATOM     14  C   UNL     1      48.744   4.346  19.643  0.00  0.00    +0.000 C 
ATOM     15  F   UNL     1      48.473   3.081  19.242  0.00  0.00    +0.000 F 
ATOM     16  F   UNL     1      48.676   4.355  20.990  0.00  0.00    +0.000 F 
ENDBRANCH   7  14
ENDBRANCH   1  10
BRANCH   5  17
ATOM     17  C   UNL     1      47.008   6.636  11.743  0.00  0.00    +0.000 C 
BRANCH  17  18
ATOM     18  N   UNL     1      45.671   6.751  12.287  0.00  0.00    +0.000 N 
ATOM     19  C   UNL     1      44.920   5.596  12.104  0.00  0.00    +0.000 A 
ATOM     20  N   UNL     1      45.522   4.396  12.137  0.00  0.00    +0.000 NA
ATOM     21  C   UNL     1      44.748   3.312  11.949  0.00  0.00    +0.000 A 
ATOM     22  C   UNL     1      43.398   3.380  11.724  0.00  0.00    +0.000 A 
ATOM     23  C   UNL     1      42.875   4.649  11.705  0.00  0.00    +0.000 A 
ATOM     24  N   UNL     1      43.610   5.765  11.884  0.00  0.00    +0.000 NA
ATOM     25  H   UNL     1      45.121   7.521  11.928  0.00  0.00    +0.000 HD
ENDBRANCH  17  18
ENDBRANCH   5  17
TORSDOF 4
ENDMDL
MODEL 9
REMARK VINA RESULT:    -5.944      4.559      8.313
REMARK INTER + INTRA:          -7.870
REMARK INTER:                  -7.313
REMARK INTRA:                  -0.557
REMARK UNBOUND:                -0.536
REMARK  Name = 
REMARK  4 active torsions:
REMARK  status: ('A' for Active; 'I' for Inactive)
REMARK    1  A    between atoms: C_2  and  C_5
REMARK    2  A    between atoms: N_8  and  C_9
REMARK    3  A    between atoms: C_13  and  C_14
REMARK    4  A    between atoms: C_14  and  N_15
REMARK                            x       y       z     vdW  Elec       q    Type
REMARK                         _______ _______ _______ _____ _____    ______ ____
ROOT
ATOM      1  C   UNL     1      47.995   6.657  12.901  0.00  0.00    +0.000 A 
ATOM      2  C   UNL     1      48.696   7.392  11.936  0.00  0.00    +0.000 A 
ATOM      3  C   UNL     1      49.851   8.114  12.260  0.00  0.00    +0.000 A 
ATOM      4  C   UNL     1      50.321   8.138  13.570  0.00  0.00    +0.000 A 
ATOM      5  C   UNL     1      49.633   7.442  14.566  0.00  0.00    +0.000 A 
ATOM      6  C   UNL     1      48.497   6.692  14.211  0.00  0.00    +0.000 A 
ENDROOT
BRANCH   1  10
ATOM      7  C   UNL     1      44.698   4.304  11.668  0.00  0.00    +0.000 C 
ATOM      8  C   UNL     1      45.737   3.824  12.695  0.00  0.00    +0.000 C 
ATOM      9  C   UNL     1      46.294   4.969  13.543  0.00  0.00    +0.000 C 
ATOM     10  N   UNL     1      46.818   5.977  12.628  0.00  0.00    +0.000 N 
ATOM     11  C   UNL     1      45.842   6.582  11.719  0.00  0.00    +0.000 C 
ATOM     12  C   UNL     1      45.258   5.475  10.837  0.00  0.00    +0.000 C 
BRANCH   7  14
ATOM     13  F   UNL     1      43.025   3.781  13.301  0.00  0.00    +0.000 F 
ATOM     14  C   UNL     1      43.356   4.644  12.315  0.00  0.00    +0.000 C 
ATOM     15  F   UNL     1      42.369   4.579  11.389  0.00  0.00    +0.000 F 
ATOM     16  F   UNL     1      43.323   5.888  12.838  0.00  0.00    +0.000 F 
ENDBRANCH   7  14
ENDBRANCH   1  10
BRANCH   5  17
ATOM     17  C   UNL     1      50.057   7.514  16.011  0.00  0.00    +0.000 C 
BRANCH  17  18
ATOM     18  N   UNL     1      50.381   6.194  16.507  0.00  0.00    +0.000 N 
ATOM     19  C   UNL     1      49.648   5.853  17.637  0.00  0.00    +0.000 A 
ATOM     20  N   UNL     1      48.386   6.293  17.772  0.00  0.00    +0.000 NA
ATOM     21  C   UNL     1      47.725   5.938  18.887  0.00  0.00    +0.000 A 
ATOM     22  C   UNL     1      48.275   5.164  19.875  0.00  0.00    +0.000 A 
ATOM     23  C   UNL     1      49.570   4.766  19.650  0.00  0.00    +0.000 A 
ATOM     24  N   UNL     1      50.274   5.099  18.550  0.00  0.00    +0.000 NA
ATOM     25  H   UNL     1      51.357   6.042  16.731  0.00  0.00    +0.000 HD
ENDBRANCH  17  18
ENDBRANCH   5  17
TORSDOF 4
ENDMDL
