MODEL 1
REMARK VINA RESULT:    -9.125      0.000      0.000
REMARK INTER + INTRA:         -13.163
REMARK INTER:                 -11.792
REMARK INTRA:                  -1.371
REMARK UNBOUND:                -1.371
REMARK  Name = 
REMARK  5 active torsions:
REMARK  status: ('A' for Active; 'I' for Inactive)
REMARK    1  A    between atoms: C_2  and  C_4
REMARK    2  A    between atoms: C_7  and  N_8
REMARK    3  A    between atoms: N_8  and  C_9
REMARK    4  A    between atoms: C_9  and  C_10
REMARK    5  A    between atoms: C_14  and  C_15
REMARK                            x       y       z     vdW  Elec       q    Type
REMARK                         _______ _______ _______ _____ _____    ______ ____
ROOT
ATOM      1  C   UNL     1      43.818   5.010  11.362  0.00  0.00    +0.000 C 
ATOM      2  C   UNL     1      42.505   5.279  12.094  0.00  0.00    +0.000 C 
ATOM      3  C   UNL     1      42.983   6.245  11.067  0.00  0.00    +0.000 C 
ENDROOT
BRANCH   1   4
ATOM      4  C   UNL     1      45.122   5.228  12.133  0.00  0.00    +0.000 A 
ATOM      5  C   UNL     1      45.603   4.273  13.040  0.00  0.00    +0.000 A 
ATOM      6  C   UNL     1      46.828   4.427  13.683  0.00  0.00    +0.000 A 
ATOM      7  C   UNL     1      47.616   5.543  13.414  0.00  0.00    +0.000 A 
ATOM      8  C   UNL     1      47.196   6.529  12.506  0.00  0.00    +0.000 A 
ATOM      9  C   UNL     1      45.929   6.362  11.910  0.00  0.00    +0.000 A 
BRANCH   8  10
ATOM     10  C   UNL     1      48.081   7.657  12.139  0.00  0.00    +0.000 A 
ATOM     11  C   UNL     1      49.433   7.434  11.811  0.00  0.00    +0.000 A 
ATOM     12  C   UNL     1      50.279   8.482  11.437  0.00  0.00    +0.000 A 
ATOM     13  C   UNL     1      49.782   9.776  11.368  0.00  0.00    +0.000 A 
ATOM     14 CL   UNL     1      50.818  11.066  10.898  0.00  0.00    +0.000 Cl
ATOM     15  C   UNL     1      48.449  10.031  11.677  0.00  0.00    +0.000 A 
ATOM     16  C   UNL     1      47.609   8.981  12.063  0.00  0.00    +0.000 A 
ENDBRANCH   8  10
ENDBRANCH   1   4
BRANCH   1  17
ATOM     17  N   UNL     1      43.793   3.823  10.489  0.00  0.00    +0.000 N 
ATOM     18  H   UNL     1      43.376   2.991  10.900  0.00  0.00    +0.000 HD
BRANCH  17  22
ATOM     19  C   UNL     1      46.590   2.708   7.510  0.00  0.00    +0.000 A 
ATOM     20  C   UNL     1      46.242   4.053   7.657  0.00  0.00    +0.000 A 
ATOM     21  C   UNL     1      45.309   4.435   8.629  0.00  0.00    +0.000 A 
ATOM     22  C   UNL     1      44.752   3.502   9.507  0.00  0.00    +0.000 A 
ATOM     23  C   UNL     1      45.070   2.148   9.309  0.00  0.00    +0.000 A 
ATOM     24  C   UNL     1      45.979   1.751   8.322  0.00  0.00    +0.000 A 
BRANCH  19  26
ATOM     25  N   UNL     1      47.697   3.037   5.366  0.00  0.00    +0.000 N 
ATOM     26  C   UNL     1      47.565   2.261   6.485  0.00  0.00    +0.000 C 
ATOM     27  O   UNL     1      48.259   1.264   6.644  0.00  0.00    +0.000 OA
ATOM     28  H   UNL     1      48.445   2.784   4.734  0.00  0.00    +0.000 HD
ATOM     29  H   UNL     1      47.356   3.986   5.330  0.00  0.00    +0.000 HD
ENDBRANCH  19  26
ENDBRANCH  17  22
ENDBRANCH   1  17
TORSDOF 5
ENDMDL
MODEL 2
REMARK VINA RESULT:    -9.022      2.728      4.122
REMARK INTER + INTRA:         -13.031
REMARK INTER:                 -12.280
REMARK INTRA:                  -0.751
REMARK UNBOUND:                -1.371
REMARK  Name = 
REMARK  5 active torsions:
REMARK  status: ('A' for Active; 'I' for Inactive)
REMARK    1  A    between atoms: C_2  and  C_4
REMARK    2  A    between atoms: C_7  and  N_8
REMARK    3  A    between atoms: N_8  and  C_9
REMARK    4  A    between atoms: C_9  and  C_10
REMARK    5  A    between atoms: C_14  and  C_15
REMARK                            x       y       z     vdW  Elec       q    Type
REMARK                         _______ _______ _______ _____ _____    ______ ____
ROOT
ATOM      1  C   UNL     1      43.872   5.102  11.428  0.00  0.00    +0.000 C 
ATOM      2  C   UNL     1      43.082   4.133  12.304  0.00  0.00    +0.000 C 
ATOM      3  C   UNL     1      42.670   5.563  12.234  0.00  0.00    +0.000 C 
ENDROOT
BRANCH   1   4
ATOM      4  C   UNL     1      45.249   5.553  11.923  0.00  0.00    +0.000 A 
ATOM      5  C   UNL     1      45.975   6.550  11.255  0.00  0.00    +0.000 A 
ATOM      6  C   UNL     1      47.189   7.021  11.746  0.00  0.00    +0.000 A 
ATOM      7  C   UNL     1      47.700   6.513  12.937  0.00  0.00    +0.000 A 
ATOM      8  C   UNL     1      47.014   5.523  13.659  0.00  0.00    +0.000 A 
ATOM      9  C   UNL     1      45.810   5.036  13.108  0.00  0.00    +0.000 A 
BRANCH   8  10
ATOM     10  C   UNL     1      47.500   5.063  14.979  0.00  0.00    +0.000 A 
ATOM     11  C   UNL     1      48.306   5.897  15.779  0.00  0.00    +0.000 A 
ATOM     12  C   UNL     1      48.755   5.493  17.040  0.00  0.00    +0.000 A 
ATOM     13  C   UNL     1      48.392   4.246  17.532  0.00  0.00    +0.000 A 
ATOM     14 CL   UNL     1      48.935   3.750  19.087  0.00  0.00    +0.000 Cl
ATOM     15  C   UNL     1      47.590   3.400  16.772  0.00  0.00    +0.000 A 
ATOM     16  C   UNL     1      47.153   3.805  15.505  0.00  0.00    +0.000 A 
ENDBRANCH   8  10
ENDBRANCH   1   4
BRANCH   1  17
ATOM     17  N   UNL     1      43.783   4.822   9.983  0.00  0.00    +0.000 N 
ATOM     18  H   UNL     1      42.849   4.878   9.587  0.00  0.00    +0.000 HD
BRANCH  17  22
ATOM     19  C   UNL     1      46.386   2.275   7.820  0.00  0.00    +0.000 A 
ATOM     20  C   UNL     1      45.523   1.727   8.772  0.00  0.00    +0.000 A 
ATOM     21  C   UNL     1      44.665   2.558   9.504  0.00  0.00    +0.000 A 
ATOM     22  C   UNL     1      44.608   3.933   9.264  0.00  0.00    +0.000 A 
ATOM     23  C   UNL     1      45.522   4.474   8.344  0.00  0.00    +0.000 A 
ATOM     24  C   UNL     1      46.404   3.657   7.628  0.00  0.00    +0.000 A 
BRANCH  19  26
ATOM     25  N   UNL     1      48.408   2.049   6.482  0.00  0.00    +0.000 N 
ATOM     26  C   UNL     1      47.318   1.431   7.032  0.00  0.00    +0.000 C 
ATOM     27  O   UNL     1      47.152   0.223   6.909  0.00  0.00    +0.000 OA
ATOM     28  H   UNL     1      49.092   1.443   6.048  0.00  0.00    +0.000 HD
ATOM     29  H   UNL     1      48.718   2.959   6.787  0.00  0.00    +0.000 HD
ENDBRANCH  19  26
ENDBRANCH  17  22
ENDBRANCH   1  17
TORSDOF 5
ENDMDL
MODEL 3
REMARK VINA RESULT:    -7.977      1.485      2.418
REMARK INTER + INTRA:         -11.680
REMARK INTER:                 -11.010
REMARK INTRA:                  -0.670
REMARK UNBOUND:                -1.371
REMARK  Name = 
REMARK  5 active torsions:
REMARK  status: ('A' for Active; 'I' for Inactive)
REMARK    1  A    between atoms: C_2  and  C_4
REMARK    2  A    between atoms: C_7  and  N_8
REMARK    3  A    between atoms: N_8  and  C_9
REMARK    4  A    between atoms: C_9  and  C_10
REMARK    5  A    between atoms: C_14  and  C_15
REMARK                            x       y       z     vdW  Elec       q    Type
REMARK                         _______ _______ _______ _____ _____    ______ ____
ROOT
ATOM      1  C   UNL     1      44.143   4.441  11.671  0.00  0.00    +0.000 C 
ATOM      2  C   UNL     1      44.758   3.430  12.636  0.00  0.00    +0.000 C 
ATOM      3  C   UNL     1      43.424   4.019  12.942  0.00  0.00    +0.000 C 
ENDROOT
BRANCH   1   4
ATOM      4  C   UNL     1      44.730   5.855  11.648  0.00  0.00    +0.000 A 
ATOM      5  C   UNL     1      43.938   6.970  11.340  0.00  0.00    +0.000 A 
ATOM      6  C   UNL     1      44.446   8.265  11.397  0.00  0.00    +0.000 A 
ATOM      7  C   UNL     1      45.766   8.475  11.785  0.00  0.00    +0.000 A 
ATOM      8  C   UNL     1      46.606   7.401  12.118  0.00  0.00    +0.000 A 
ATOM      9  C   UNL     1      46.072   6.101  12.004  0.00  0.00    +0.000 A 
BRANCH   8  10
ATOM     10  C   UNL     1      47.974   7.631  12.636  0.00  0.00    +0.000 A 
ATOM     11  C   UNL     1      48.340   7.190  13.923  0.00  0.00    +0.000 A 
ATOM     12  C   UNL     1      49.633   7.375  14.422  0.00  0.00    +0.000 A 
ATOM     13  C   UNL     1      50.593   7.994  13.632  0.00  0.00    +0.000 A 
ATOM     14 CL   UNL     1      52.187   8.213  14.238  0.00  0.00    +0.000 Cl
ATOM     15  C   UNL     1      50.268   8.433  12.352  0.00  0.00    +0.000 A 
ATOM     16  C   UNL     1      48.969   8.257  11.862  0.00  0.00    +0.000 A 
ENDBRANCH   8  10
ENDBRANCH   1   4
BRANCH   1  17
ATOM     17  N   UNL     1      43.792   3.884  10.352  0.00  0.00    +0.000 N 
ATOM     18  H   UNL     1      42.913   3.374  10.317  0.00  0.00    +0.000 HD
BRANCH  17  22
ATOM     19  C   UNL     1      46.632   2.656   7.459  0.00  0.00    +0.000 A 
ATOM     20  C   UNL     1      46.021   1.698   8.273  0.00  0.00    +0.000 A 
ATOM     21  C   UNL     1      45.089   2.090   9.242  0.00  0.00    +0.000 A 
ATOM     22  C   UNL     1      44.706   3.426   9.382  0.00  0.00    +0.000 A 
ATOM     23  C   UNL     1      45.370   4.382   8.595  0.00  0.00    +0.000 A 
ATOM     24  C   UNL     1      46.324   4.005   7.643  0.00  0.00    +0.000 A 
BRANCH  19  26
ATOM     25  N   UNL     1      47.729   3.094   5.331  0.00  0.00    +0.000 N 
ATOM     26  C   UNL     1      47.632   2.283   6.429  0.00  0.00    +0.000 C 
ATOM     27  O   UNL     1      48.374   1.319   6.566  0.00  0.00    +0.000 OA
ATOM     28  H   UNL     1      48.491   2.895   4.696  0.00  0.00    +0.000 HD
ATOM     29  H   UNL     1      47.342   4.025   5.316  0.00  0.00    +0.000 HD
ENDBRANCH  19  26
ENDBRANCH  17  22
ENDBRANCH   1  17
TORSDOF 5
ENDMDL
MODEL 4
REMARK VINA RESULT:    -7.321      4.132      7.393
REMARK INTER + INTRA:         -10.832
REMARK INTER:                  -9.832
REMARK INTRA:                  -1.000
REMARK UNBOUND:                -1.371
REMARK  Name = 
REMARK  5 active torsions:
REMARK  status: ('A' for Active; 'I' for Inactive)
REMARK    1  A    between atoms: C_2  and  C_4
REMARK    2  A    between atoms: C_7  and  N_8
REMARK    3  A    between atoms: N_8  and  C_9
REMARK    4  A    between atoms: C_9  and  C_10
REMARK    5  A    between atoms: C_14  and  C_15
REMARK                            x       y       z     vdW  Elec       q    Type
REMARK                         _______ _______ _______ _____ _____    ______ ____
ROOT
ATOM      1  C   UNL     1      46.381   7.564  12.613  0.00  0.00    +0.000 C 
ATOM      2  C   UNL     1      46.624   8.934  11.984  0.00  0.00    +0.000 C 
ATOM      3  C   UNL     1      45.797   8.830  13.218  0.00  0.00    +0.000 C 
ENDROOT
BRANCH   1   4
ATOM      4  C   UNL     1      45.402   6.620  11.911  0.00  0.00    +0.000 A 
ATOM      5  C   UNL     1      44.015   6.749  12.077  0.00  0.00    +0.000 A 
ATOM      6  C   UNL     1      43.118   5.947  11.379  0.00  0.00    +0.000 A 
ATOM      7  C   UNL     1      43.592   5.001  10.475  0.00  0.00    +0.000 A 
ATOM      8  C   UNL     1      44.969   4.831  10.255  0.00  0.00    +0.000 A 
ATOM      9  C   UNL     1      45.849   5.629  11.013  0.00  0.00    +0.000 A 
BRANCH   8  10
ATOM     10  C   UNL     1      45.469   3.904   9.215  0.00  0.00    +0.000 A 
ATOM     11  C   UNL     1      46.116   4.394   8.064  0.00  0.00    +0.000 A 
ATOM     12  C   UNL     1      46.618   3.535   7.082  0.00  0.00    +0.000 A 
ATOM     13  C   UNL     1      46.494   2.161   7.242  0.00  0.00    +0.000 A 
ATOM     14 CL   UNL     1      47.119   1.101   6.040  0.00  0.00    +0.000 Cl
ATOM     15  C   UNL     1      45.867   1.642   8.370  0.00  0.00    +0.000 A 
ATOM     16  C   UNL     1      45.355   2.507   9.345  0.00  0.00    +0.000 A 
ENDBRANCH   8  10
ENDBRANCH   1   4
BRANCH   1  17
ATOM     17  N   UNL     1      47.592   6.924  13.158  0.00  0.00    +0.000 N 
ATOM     18  H   UNL     1      48.310   6.700  12.473  0.00  0.00    +0.000 HD
BRANCH  17  22
ATOM     19  C   UNL     1      47.730   4.193  16.393  0.00  0.00    +0.000 A 
ATOM     20  C   UNL     1      48.387   5.421  16.501  0.00  0.00    +0.000 A 
ATOM     21  C   UNL     1      48.361   6.329  15.435  0.00  0.00    +0.000 A 
ATOM     22  C   UNL     1      47.637   6.061  14.271  0.00  0.00    +0.000 A 
ATOM     23  C   UNL     1      47.028   4.800  14.156  0.00  0.00    +0.000 A 
ATOM     24  C   UNL     1      47.072   3.873  15.204  0.00  0.00    +0.000 A 
BRANCH  19  26
ATOM     25  N   UNL     1      48.904   3.071  18.207  0.00  0.00    +0.000 N 
ATOM     26  C   UNL     1      47.743   3.199  17.494  0.00  0.00    +0.000 C 
ATOM     27  O   UNL     1      46.748   2.548  17.790  0.00  0.00    +0.000 OA
ATOM     28  H   UNL     1      48.861   2.476  19.024  0.00  0.00    +0.000 HD
ATOM     29  H   UNL     1      49.632   3.768  18.174  0.00  0.00    +0.000 HD
ENDBRANCH  19  26
ENDBRANCH  17  22
ENDBRANCH   1  17
TORSDOF 5
ENDMDL
MODEL 5
REMARK VINA RESULT:    -6.430      6.060      8.615
REMARK INTER + INTRA:          -9.680
REMARK INTER:                  -8.768
REMARK INTRA:                  -0.912
REMARK UNBOUND:                -1.371
REMARK  Name = 
REMARK  5 active torsions:
REMARK  status: ('A' for Active; 'I' for Inactive)
REMARK    1  A    between atoms: C_2  and  C_4
REMARK    2  A    between atoms: C_7  and  N_8
REMARK    3  A    between atoms: N_8  and  C_9
REMARK    4  A    between atoms: C_9  and  C_10
REMARK    5  A    between atoms: C_14  and  C_15
REMARK                            x       y       z     vdW  Elec       q    Type
REMARK                         _______ _______ _______ _____ _____    ______ ____
ROOT
ATOM      1  C   UNL     1      48.590   5.057  17.474  0.00  0.00    +0.000 C 
ATOM      2  C   UNL     1      47.502   5.349  18.504  0.00  0.00    +0.000 C 
ATOM      3  C   UNL     1      47.474   4.064  17.751  0.00  0.00    +0.000 C 
ENDROOT
BRANCH   1   4
ATOM      4  C   UNL     1      48.530   5.806  16.140  0.00  0.00    +0.000 A 
ATOM      5  C   UNL     1      49.442   6.827  15.833  0.00  0.00    +0.000 A 
ATOM      6  C   UNL     1      49.444   7.455  14.592  0.00  0.00    +0.000 A 
ATOM      7  C   UNL     1      48.536   7.061  13.613  0.00  0.00    +0.000 A 
ATOM      8  C   UNL     1      47.606   6.037  13.855  0.00  0.00    +0.000 A 
ATOM      9  C   UNL     1      47.602   5.455  15.139  0.00  0.00    +0.000 A 
BRANCH   8  10
ATOM     10  C   UNL     1      46.715   5.543  12.780  0.00  0.00    +0.000 A 
ATOM     11  C   UNL     1      45.972   4.358  12.949  0.00  0.00    +0.000 A 
ATOM     12  C   UNL     1      45.107   3.887  11.957  0.00  0.00    +0.000 A 
ATOM     13  C   UNL     1      44.957   4.605  10.778  0.00  0.00    +0.000 A 
ATOM     14 CL   UNL     1      43.886   4.034   9.560  0.00  0.00    +0.000 Cl
ATOM     15  C   UNL     1      45.670   5.784  10.581  0.00  0.00    +0.000 A 
ATOM     16  C   UNL     1      46.544   6.245  11.572  0.00  0.00    +0.000 A 
ENDBRANCH   8  10
ENDBRANCH   1   4
BRANCH   1  17
ATOM     17  N   UNL     1      49.939   4.898  18.046  0.00  0.00    +0.000 N 
ATOM     18  H   UNL     1      50.475   5.757  18.140  0.00  0.00    +0.000 HD
BRANCH  17  22
ATOM     19  C   UNL     1      52.517   1.551  17.731  0.00  0.00    +0.000 A 
ATOM     20  C   UNL     1      51.215   1.466  17.231  0.00  0.00    +0.000 A 
ATOM     21  C   UNL     1      50.347   2.560  17.340  0.00  0.00    +0.000 A 
ATOM     22  C   UNL     1      50.772   3.771  17.890  0.00  0.00    +0.000 A 
ATOM     23  C   UNL     1      52.065   3.822  18.438  0.00  0.00    +0.000 A 
ATOM     24  C   UNL     1      52.931   2.726  18.362  0.00  0.00    +0.000 A 
BRANCH  19  26
ATOM     25  N   UNL     1      53.192  -0.684  18.419  0.00  0.00    +0.000 N 
ATOM     26  C   UNL     1      53.464   0.412  17.647  0.00  0.00    +0.000 C 
ATOM     27  O   UNL     1      54.426   0.425  16.889  0.00  0.00    +0.000 OA
ATOM     28  H   UNL     1      53.779  -1.494  18.265  0.00  0.00    +0.000 HD
ATOM     29  H   UNL     1      52.285  -0.837  18.832  0.00  0.00    +0.000 HD
ENDBRANCH  19  26
ENDBRANCH  17  22
ENDBRANCH   1  17
TORSDOF 5
ENDMDL
MODEL 6
REMARK VINA RESULT:    -6.387      4.488      6.379
REMARK INTER + INTRA:          -9.625
REMARK INTER:                  -8.547
REMARK INTRA:                  -1.078
REMARK UNBOUND:                -1.371
REMARK  Name = 
REMARK  5 active torsions:
REMARK  status: ('A' for Active; 'I' for Inactive)
REMARK    1  A    between atoms: C_2  and  C_4
REMARK    2  A    between atoms: C_7  and  N_8
REMARK    3  A    between atoms: N_8  and  C_9
REMARK    4  A    between atoms: C_9  and  C_10
REMARK    5  A    between atoms: C_14  and  C_15
REMARK                            x       y       z     vdW  Elec       q    Type
REMARK                         _______ _______ _______ _____ _____    ______ ____
ROOT
ATOM      1  C   UNL     1      47.820   7.889  13.247  0.00  0.00    +0.000 C 
ATOM      2  C   UNL     1      48.265   8.883  12.178  0.00  0.00    +0.000 C 
ATOM      3  C   UNL     1      48.727   7.469  12.103  0.00  0.00    +0.000 C 
ENDROOT
BRANCH   1   4
ATOM      4  C   UNL     1      48.462   7.996  14.633  0.00  0.00    +0.000 A 
ATOM      5  C   UNL     1      48.152   9.052  15.503  0.00  0.00    +0.000 A 
ATOM      6  C   UNL     1      48.669   9.111  16.793  0.00  0.00    +0.000 A 
ATOM      7  C   UNL     1      49.502   8.095  17.253  0.00  0.00    +0.000 A 
ATOM      8  C   UNL     1      49.841   7.005  16.435  0.00  0.00    +0.000 A 
ATOM      9  C   UNL     1      49.335   7.002  15.119  0.00  0.00    +0.000 A 
BRANCH   8  10
ATOM     10  C   UNL     1      50.635   5.871  16.960  0.00  0.00    +0.000 A 
ATOM     11  C   UNL     1      50.005   4.679  17.368  0.00  0.00    +0.000 A 
ATOM     12  C   UNL     1      50.739   3.588  17.844  0.00  0.00    +0.000 A 
ATOM     13  C   UNL     1      52.124   3.664  17.905  0.00  0.00    +0.000 A 
ATOM     14 CL   UNL     1      53.030   2.320  18.479  0.00  0.00    +0.000 Cl
ATOM     15  C   UNL     1      52.779   4.824  17.502  0.00  0.00    +0.000 A 
ATOM     16  C   UNL     1      52.039   5.919  17.038  0.00  0.00    +0.000 A 
ENDBRANCH   8  10
ENDBRANCH   1   4
BRANCH   1  17
ATOM     17  N   UNL     1      46.374   7.602  13.244  0.00  0.00    +0.000 N 
ATOM     18  H   UNL     1      45.847   8.021  14.006  0.00  0.00    +0.000 HD
BRANCH  17  22
ATOM     19  C   UNL     1      44.606   4.092  11.665  0.00  0.00    +0.000 A 
ATOM     20  C   UNL     1      45.211   4.051  12.924  0.00  0.00    +0.000 A 
ATOM     21  C   UNL     1      45.811   5.200  13.453  0.00  0.00    +0.000 A 
ATOM     22  C   UNL     1      45.770   6.419  12.773  0.00  0.00    +0.000 A 
ATOM     23  C   UNL     1      45.207   6.430  11.485  0.00  0.00    +0.000 A 
ATOM     24  C   UNL     1      44.631   5.280  10.933  0.00  0.00    +0.000 A 
BRANCH  19  26
ATOM     25  N   UNL     1      44.601   2.324   9.991  0.00  0.00    +0.000 N 
ATOM     26  C   UNL     1      43.970   2.894  11.063  0.00  0.00    +0.000 C 
ATOM     27  O   UNL     1      42.948   2.402  11.526  0.00  0.00    +0.000 OA
ATOM     28  H   UNL     1      44.220   1.445   9.666  0.00  0.00    +0.000 HD
ATOM     29  H   UNL     1      45.563   2.528   9.765  0.00  0.00    +0.000 HD
ENDBRANCH  19  26
ENDBRANCH  17  22
ENDBRANCH   1  17
TORSDOF 5
ENDMDL
