MODEL 1
REMARK VINA RESULT:    -8.692      0.000      0.000
REMARK INTER + INTRA:         -13.621
REMARK INTER:                 -12.250
REMARK INTRA:                  -1.371
REMARK UNBOUND:                -1.371
REMARK  Name = 
REMARK  8 active torsions:
REMARK  status: ('A' for Active; 'I' for Inactive)
REMARK    1  A    between atoms: C_1  and  C_2
REMARK    2  A    between atoms: C_2  and  N_3
REMARK    3  A    between atoms: C_2  and  C_16
REMARK    4  A    between atoms: C_4  and  C_6
REMARK    5  A    between atoms: C_19  and  N_20
REMARK    6  A    between atoms: N_20  and  C_21
REMARK    7  A    between atoms: C_21  and  C_22
REMARK    8  A    between atoms: C_26  and  C_27
REMARK                            x       y       z     vdW  Elec       q    Type
REMARK                         _______ _______ _______ _____ _____    ______ ____
ROOT
ATOM      1  C   UNL     1      46.595   5.999  13.372  0.00  0.00    +0.000 A 
ATOM      2  C   UNL     1      45.257   6.114  12.980  0.00  0.00    +0.000 A 
ATOM      3  C   UNL     1      44.528   4.982  12.590  0.00  0.00    +0.000 A 
ATOM      4  C   UNL     1      45.127   3.720  12.559  0.00  0.00    +0.000 A 
ATOM      5  C   UNL     1      46.423   3.591  13.061  0.00  0.00    +0.000 A 
ATOM      6  C   UNL     1      47.158   4.715  13.444  0.00  0.00    +0.000 A 
ENDROOT
BRANCH   1   8
ATOM      7  C   UNL     1      46.637   8.502  13.351  0.00  0.00    +0.000 C 
ATOM      8  C   UNL     1      47.439   7.234  13.659  0.00  0.00    +0.000 C 
BRANCH   8   9
ATOM      9  N   UNL     1      47.896   7.175  15.043  0.00  0.00    +0.000 N 
ATOM     10  C   UNL     1      49.213   7.060  15.406  0.00  0.00    +0.000 C 
ATOM     11  O   UNL     1      50.131   7.039  14.590  0.00  0.00    +0.000 OA
ATOM     12  H   UNL     1      47.199   6.868  15.715  0.00  0.00    +0.000 HD
BRANCH  10  13
ATOM     13  C   UNL     1      49.488   7.035  16.849  0.00  0.00    +0.000 A 
ATOM     14  C   UNL     1      50.342   7.977  17.406  0.00  0.00    +0.000 A 
ATOM     15  S   UNL     1      50.551   7.800  19.089  0.00  0.00    +0.000 S 
ATOM     16  C   UNL     1      49.536   6.434  19.126  0.00  0.00    +0.000 A 
ATOM     17  N   UNL     1      49.315   5.756  20.284  0.00  0.00    +0.000 NA
ATOM     18  C   UNL     1      48.547   4.725  20.159  0.00  0.00    +0.000 A 
ATOM     19  N   UNL     1      47.965   4.321  18.985  0.00  0.00    +0.000 N 
ATOM     20  C   UNL     1      48.129   4.997  17.801  0.00  0.00    +0.000 A 
ATOM     21  O   UNL     1      47.545   4.650  16.779  0.00  0.00    +0.000 OA
ATOM     22  C   UNL     1      49.014   6.143  17.878  0.00  0.00    +0.000 A 
ATOM     23  H   UNL     1      47.354   3.518  18.959  0.00  0.00    +0.000 HD
ENDBRANCH  10  13
ENDBRANCH   8   9
ENDBRANCH   1   8
BRANCH   4  24
ATOM     24  N   UNL     1      44.509   2.573  12.063  0.00  0.00    +0.000 N 
ATOM     25  H   UNL     1      44.042   2.031  12.786  0.00  0.00    +0.000 HD
BRANCH  24  26
ATOM     26  C   UNL     1      43.723   2.681  10.836  0.00  0.00    +0.000 C 
BRANCH  26  27
ATOM     27  C   UNL     1      44.641   2.966   9.664  0.00  0.00    +0.000 A 
ATOM     28  C   UNL     1      44.809   4.276   9.216  0.00  0.00    +0.000 A 
ATOM     29  C   UNL     1      45.660   4.523   8.149  0.00  0.00    +0.000 A 
ATOM     30  C   UNL     1      46.323   3.461   7.549  0.00  0.00    +0.000 A 
ATOM     31  C   UNL     1      46.117   2.165   8.034  0.00  0.00    +0.000 A 
ATOM     32  N   UNL     1      45.279   1.918   9.083  0.00  0.00    +0.000 NA
BRANCH  31  33
ATOM     33  C   UNL     1      46.842   0.992   7.390  0.00  0.00    +0.000 C 
ATOM     34  F   UNL     1      46.441  -0.223   7.871  0.00  0.00    +0.000 F 
ATOM     35  F   UNL     1      46.655   0.924   6.041  0.00  0.00    +0.000 F 
ATOM     36  F   UNL     1      48.192   1.027   7.583  0.00  0.00    +0.000 F 
ENDBRANCH  31  33
ENDBRANCH  26  27
ENDBRANCH  24  26
ENDBRANCH   4  24
TORSDOF 7
ENDMDL
MODEL 2
REMARK VINA RESULT:    -7.962      2.025      2.975
REMARK INTER + INTRA:         -12.591
REMARK INTER:                 -11.146
REMARK INTRA:                  -1.445
REMARK UNBOUND:                -1.371
REMARK  Name = 
REMARK  8 active torsions:
REMARK  status: ('A' for Active; 'I' for Inactive)
REMARK    1  A    between atoms: C_1  and  C_2
REMARK    2  A    between atoms: C_2  and  N_3
REMARK    3  A    between atoms: C_2  and  C_16
REMARK    4  A    between atoms: C_4  and  C_6
REMARK    5  A    between atoms: C_19  and  N_20
REMARK    6  A    between atoms: N_20  and  C_21
REMARK    7  A    between atoms: C_21  and  C_22
REMARK    8  A    between atoms: C_26  and  C_27
REMARK                            x       y       z     vdW  Elec       q    Type
REMARK                         _______ _______ _______ _____ _____    ______ ____
ROOT
ATOM      1  C   UNL     1      47.728   8.257  13.159  0.00  0.00    +0.000 A 
ATOM      2  C   UNL     1      47.852   7.249  12.196  0.00  0.00    +0.000 A 
ATOM      3  C   UNL     1      46.756   6.884  11.402  0.00  0.00    +0.000 A 
ATOM      4  C   UNL     1      45.512   7.497  11.572  0.00  0.00    +0.000 A 
ATOM      5  C   UNL     1      45.423   8.578  12.449  0.00  0.00    +0.000 A 
ATOM      6  C   UNL     1      46.507   8.943  13.249  0.00  0.00    +0.000 A 
ENDROOT
BRANCH   1   8
ATOM      7  C   UNL     1      48.756  10.009  14.621  0.00  0.00    +0.000 C 
ATOM      8  C   UNL     1      48.865   8.564  14.125  0.00  0.00    +0.000 C 
BRANCH   8   9
ATOM      9  N   UNL     1      48.830   7.590  15.210  0.00  0.00    +0.000 N 
ATOM     10  C   UNL     1      49.946   6.977  15.719  0.00  0.00    +0.000 C 
ATOM     11  O   UNL     1      51.082   7.230  15.329  0.00  0.00    +0.000 OA
ATOM     12  H   UNL     1      47.940   7.117  15.339  0.00  0.00    +0.000 HD
BRANCH  10  13
ATOM     13  C   UNL     1      49.721   6.036  16.824  0.00  0.00    +0.000 A 
ATOM     14  C   UNL     1      50.493   6.125  17.975  0.00  0.00    +0.000 A 
ATOM     15  S   UNL     1      50.102   4.955  19.153  0.00  0.00    +0.000 S 
ATOM     16  C   UNL     1      48.912   4.265  18.151  0.00  0.00    +0.000 A 
ATOM     17  N   UNL     1      48.209   3.171  18.549  0.00  0.00    +0.000 NA
ATOM     18  C   UNL     1      47.360   2.738  17.677  0.00  0.00    +0.000 A 
ATOM     19  N   UNL     1      47.137   3.310  16.452  0.00  0.00    +0.000 N 
ATOM     20  C   UNL     1      47.795   4.437  16.024  0.00  0.00    +0.000 A 
ATOM     21  O   UNL     1      47.530   4.964  14.949  0.00  0.00    +0.000 OA
ATOM     22  C   UNL     1      48.788   4.943  16.951  0.00  0.00    +0.000 A 
ATOM     23  H   UNL     1      46.440   2.936  15.824  0.00  0.00    +0.000 HD
ENDBRANCH  10  13
ENDBRANCH   8   9
ENDBRANCH   1   8
BRANCH   4  24
ATOM     24  N   UNL     1      44.349   7.101  10.913  0.00  0.00    +0.000 N 
ATOM     25  H   UNL     1      44.494   6.935   9.919  0.00  0.00    +0.000 HD
BRANCH  24  26
ATOM     26  C   UNL     1      43.503   6.088  11.541  0.00  0.00    +0.000 C 
BRANCH  26  27
ATOM     27  C   UNL     1      43.819   4.726  10.957  0.00  0.00    +0.000 A 
ATOM     28  C   UNL     1      43.305   3.576  11.559  0.00  0.00    +0.000 A 
ATOM     29  C   UNL     1      43.595   2.336  11.007  0.00  0.00    +0.000 A 
ATOM     30  C   UNL     1      44.392   2.267   9.872  0.00  0.00    +0.000 A 
ATOM     31  C   UNL     1      44.885   3.450   9.310  0.00  0.00    +0.000 A 
ATOM     32  N   UNL     1      44.604   4.671   9.850  0.00  0.00    +0.000 NA
BRANCH  31  33
ATOM     33  C   UNL     1      45.754   3.389   8.062  0.00  0.00    +0.000 C 
ATOM     34  F   UNL     1      45.033   3.331   6.902  0.00  0.00    +0.000 F 
ATOM     35  F   UNL     1      46.569   4.474   7.925  0.00  0.00    +0.000 F 
ATOM     36  F   UNL     1      46.572   2.297   8.032  0.00  0.00    +0.000 F 
ENDBRANCH  31  33
ENDBRANCH  26  27
ENDBRANCH  24  26
ENDBRANCH   4  24
TORSDOF 7
ENDMDL
MODEL 3
REMARK VINA RESULT:    -7.826      1.771      2.377
REMARK INTER + INTRA:         -12.400
REMARK INTER:                 -11.041
REMARK INTRA:                  -1.359
REMARK UNBOUND:                -1.371
REMARK  Name = 
REMARK  8 active torsions:
REMARK  status: ('A' for Active; 'I' for Inactive)
REMARK    1  A    between atoms: C_1  and  C_2
REMARK    2  A    between atoms: C_2  and  N_3
REMARK    3  A    between atoms: C_2  and  C_16
REMARK    4  A    between atoms: C_4  and  C_6
REMARK    5  A    between atoms: C_19  and  N_20
REMARK    6  A    between atoms: N_20  and  C_21
REMARK    7  A    between atoms: C_21  and  C_22
REMARK    8  A    between atoms: C_26  and  C_27
REMARK                            x       y       z     vdW  Elec       q    Type
REMARK                         _______ _______ _______ _____ _____    ______ ____
ROOT
ATOM      1  C   UNL     1      47.709   6.721  13.357  0.00  0.00    +0.000 A 
ATOM      2  C   UNL     1      47.132   5.483  13.659  0.00  0.00    +0.000 A 
ATOM      3  C   UNL     1      45.807   5.206  13.295  0.00  0.00    +0.000 A 
ATOM      4  C   UNL     1      45.026   6.167  12.648  0.00  0.00    +0.000 A 
ATOM      5  C   UNL     1      45.639   7.354  12.246  0.00  0.00    +0.000 A 
ATOM      6  C   UNL     1      46.955   7.641  12.611  0.00  0.00    +0.000 A 
ENDROOT
BRANCH   1   8
ATOM      7  C   UNL     1      49.703   8.191  12.998  0.00  0.00    +0.000 C 
ATOM      8  C   UNL     1      49.095   7.090  13.871  0.00  0.00    +0.000 C 
BRANCH   8   9
ATOM      9  N   UNL     1      48.983   7.476  15.273  0.00  0.00    +0.000 N 
ATOM     10  C   UNL     1      49.474   6.726  16.311  0.00  0.00    +0.000 C 
ATOM     11  O   UNL     1      50.090   5.678  16.143  0.00  0.00    +0.000 OA
ATOM     12  H   UNL     1      48.233   8.128  15.484  0.00  0.00    +0.000 HD
BRANCH  10  13
ATOM     13  C   UNL     1      49.287   7.282  17.658  0.00  0.00    +0.000 A 
ATOM     14  C   UNL     1      49.984   8.420  18.038  0.00  0.00    +0.000 A 
ATOM     15  S   UNL     1      49.651   8.927  19.632  0.00  0.00    +0.000 S 
ATOM     16  C   UNL     1      48.589   7.621  19.882  0.00  0.00    +0.000 A 
ATOM     17  N   UNL     1      47.979   7.433  21.083  0.00  0.00    +0.000 NA
ATOM     18  C   UNL     1      47.223   6.387  21.139  0.00  0.00    +0.000 A 
ATOM     19  N   UNL     1      47.009   5.521  20.098  0.00  0.00    +0.000 N 
ATOM     20  C   UNL     1      47.573   5.692  18.858  0.00  0.00    +0.000 A 
ATOM     21  O   UNL     1      47.313   4.937  17.927  0.00  0.00    +0.000 OA
ATOM     22  C   UNL     1      48.461   6.833  18.752  0.00  0.00    +0.000 A 
ATOM     23  H   UNL     1      46.385   4.734  20.200  0.00  0.00    +0.000 HD
ENDBRANCH  10  13
ENDBRANCH   8   9
ENDBRANCH   1   8
BRANCH   4  24
ATOM     24  N   UNL     1      43.669   6.013  12.371  0.00  0.00    +0.000 N 
ATOM     25  H   UNL     1      43.085   6.683  12.868  0.00  0.00    +0.000 HD
BRANCH  24  26
ATOM     26  C   UNL     1      43.258   5.823  10.981  0.00  0.00    +0.000 C 
BRANCH  26  27
ATOM     27  C   UNL     1      43.843   4.530  10.448  0.00  0.00    +0.000 A 
ATOM     28  C   UNL     1      43.501   3.316  11.044  0.00  0.00    +0.000 A 
ATOM     29  C   UNL     1      44.037   2.140  10.539  0.00  0.00    +0.000 A 
ATOM     30  C   UNL     1      44.904   2.198   9.457  0.00  0.00    +0.000 A 
ATOM     31  C   UNL     1      45.218   3.442   8.899  0.00  0.00    +0.000 A 
ATOM     32  N   UNL     1      44.694   4.602   9.393  0.00  0.00    +0.000 NA
BRANCH  31  33
ATOM     33  C   UNL     1      46.163   3.520   7.708  0.00  0.00    +0.000 C 
ATOM     34  F   UNL     1      47.118   2.541   7.709  0.00  0.00    +0.000 F 
ATOM     35  F   UNL     1      45.523   3.397   6.510  0.00  0.00    +0.000 F 
ATOM     36  F   UNL     1      46.854   4.695   7.649  0.00  0.00    +0.000 F 
ENDBRANCH  31  33
ENDBRANCH  26  27
ENDBRANCH  24  26
ENDBRANCH   4  24
TORSDOF 7
ENDMDL
MODEL 4
REMARK VINA RESULT:    -7.732      3.405      4.366
REMARK INTER + INTRA:         -12.267
REMARK INTER:                 -11.239
REMARK INTRA:                  -1.028
REMARK UNBOUND:                -1.371
REMARK  Name = 
REMARK  8 active torsions:
REMARK  status: ('A' for Active; 'I' for Inactive)
REMARK    1  A    between atoms: C_1  and  C_2
REMARK    2  A    between atoms: C_2  and  N_3
REMARK    3  A    between atoms: C_2  and  C_16
REMARK    4  A    between atoms: C_4  and  C_6
REMARK    5  A    between atoms: C_19  and  N_20
REMARK    6  A    between atoms: N_20  and  C_21
REMARK    7  A    between atoms: C_21  and  C_22
REMARK    8  A    between atoms: C_26  and  C_27
REMARK                            x       y       z     vdW  Elec       q    Type
REMARK                         _______ _______ _______ _____ _____    ______ ____
ROOT
ATOM      1  C   UNL     1      47.907   5.104  15.657  0.00  0.00    +0.000 A 
ATOM      2  C   UNL     1      47.079   4.387  14.786  0.00  0.00    +0.000 A 
ATOM      3  C   UNL     1      46.776   4.892  13.515  0.00  0.00    +0.000 A 
ATOM      4  C   UNL     1      47.269   6.132  13.099  0.00  0.00    +0.000 A 
ATOM      5  C   UNL     1      48.185   6.787  13.922  0.00  0.00    +0.000 A 
ATOM      6  C   UNL     1      48.487   6.295  15.193  0.00  0.00    +0.000 A 
ENDROOT
BRANCH   1   8
ATOM      7  C   UNL     1      47.164   3.500  17.429  0.00  0.00    +0.000 C 
ATOM      8  C   UNL     1      48.129   4.640  17.091  0.00  0.00    +0.000 C 
BRANCH   8   9
ATOM      9  N   UNL     1      49.529   4.261  17.246  0.00  0.00    +0.000 N 
ATOM     10  C   UNL     1      50.220   4.366  18.426  0.00  0.00    +0.000 C 
ATOM     11  O   UNL     1      49.703   4.752  19.470  0.00  0.00    +0.000 OA
ATOM     12  H   UNL     1      50.072   4.252  16.388  0.00  0.00    +0.000 HD
BRANCH  10  13
ATOM     13  C   UNL     1      51.619   3.919  18.399  0.00  0.00    +0.000 A 
ATOM     14  C   UNL     1      52.625   4.773  18.829  0.00  0.00    +0.000 A 
ATOM     15  S   UNL     1      54.187   4.096  18.727  0.00  0.00    +0.000 S 
ATOM     16  C   UNL     1      53.577   2.650  18.070  0.00  0.00    +0.000 A 
ATOM     17  N   UNL     1      54.409   1.638  17.706  0.00  0.00    +0.000 NA
ATOM     18  C   UNL     1      53.811   0.613  17.197  0.00  0.00    +0.000 A 
ATOM     19  N   UNL     1      52.455   0.500  17.035  0.00  0.00    +0.000 N 
ATOM     20  C   UNL     1      51.574   1.480  17.423  0.00  0.00    +0.000 A 
ATOM     21  O   UNL     1      50.361   1.325  17.324  0.00  0.00    +0.000 OA
ATOM     22  C   UNL     1      52.197   2.669  17.968  0.00  0.00    +0.000 A 
ATOM     23  H   UNL     1      52.047  -0.340  16.651  0.00  0.00    +0.000 HD
ENDBRANCH  10  13
ENDBRANCH   8   9
ENDBRANCH   1   8
BRANCH   4  24
ATOM     24  N   UNL     1      46.909   6.756  11.906  0.00  0.00    +0.000 N 
ATOM     25  H   UNL     1      47.481   6.464  11.117  0.00  0.00    +0.000 HD
BRANCH  24  26
ATOM     26  C   UNL     1      45.488   6.856  11.573  0.00  0.00    +0.000 C 
BRANCH  26  27
ATOM     27  C   UNL     1      45.024   5.566  10.928  0.00  0.00    +0.000 A 
ATOM     28  C   UNL     1      43.988   4.833  11.509  0.00  0.00    +0.000 A 
ATOM     29  C   UNL     1      43.566   3.659  10.903  0.00  0.00    +0.000 A 
ATOM     30  C   UNL     1      44.187   3.237   9.735  0.00  0.00    +0.000 A 
ATOM     31  C   UNL     1      45.224   4.006   9.196  0.00  0.00    +0.000 A 
ATOM     32  N   UNL     1      45.643   5.161   9.790  0.00  0.00    +0.000 NA
BRANCH  31  33
ATOM     33  C   UNL     1      45.909   3.558   7.913  0.00  0.00    +0.000 C 
ATOM     34  F   UNL     1      46.836   4.452   7.452  0.00  0.00    +0.000 F 
ATOM     35  F   UNL     1      46.583   2.380   8.049  0.00  0.00    +0.000 F 
ATOM     36  F   UNL     1      45.039   3.378   6.877  0.00  0.00    +0.000 F 
ENDBRANCH  31  33
ENDBRANCH  26  27
ENDBRANCH  24  26
ENDBRANCH   4  24
TORSDOF 7
ENDMDL
MODEL 5
REMARK VINA RESULT:    -7.288      4.104      8.748
REMARK INTER + INTRA:         -11.641
REMARK INTER:                 -10.163
REMARK INTRA:                  -1.478
REMARK UNBOUND:                -1.371
REMARK  Name = 
REMARK  8 active torsions:
REMARK  status: ('A' for Active; 'I' for Inactive)
REMARK    1  A    between atoms: C_1  and  C_2
REMARK    2  A    between atoms: C_2  and  N_3
REMARK    3  A    between atoms: C_2  and  C_16
REMARK    4  A    between atoms: C_4  and  C_6
REMARK    5  A    between atoms: C_19  and  N_20
REMARK    6  A    between atoms: N_20  and  C_21
REMARK    7  A    between atoms: C_21  and  C_22
REMARK    8  A    between atoms: C_26  and  C_27
REMARK                            x       y       z     vdW  Elec       q    Type
REMARK                         _______ _______ _______ _____ _____    ______ ____
ROOT
ATOM      1  C   UNL     1      48.514   7.869  13.435  0.00  0.00    +0.000 A 
ATOM      2  C   UNL     1      49.774   7.361  13.771  0.00  0.00    +0.000 A 
ATOM      3  C   UNL     1      50.283   7.517  15.068  0.00  0.00    +0.000 A 
ATOM      4  C   UNL     1      49.557   8.205  16.045  0.00  0.00    +0.000 A 
ATOM      5  C   UNL     1      48.256   8.607  15.740  0.00  0.00    +0.000 A 
ATOM      6  C   UNL     1      47.746   8.462  14.449  0.00  0.00    +0.000 A 
ENDROOT
BRANCH   1   8
ATOM      7  C   UNL     1      49.194   7.817  11.027  0.00  0.00    +0.000 C 
ATOM      8  C   UNL     1      48.010   7.835  11.998  0.00  0.00    +0.000 C 
BRANCH   8   9
ATOM      9  N   UNL     1      47.131   6.681  11.841  0.00  0.00    +0.000 N 
ATOM     10  C   UNL     1      45.763   6.765  11.807  0.00  0.00    +0.000 C 
ATOM     11  O   UNL     1      45.159   7.832  11.866  0.00  0.00    +0.000 OA
ATOM     12  H   UNL     1      47.537   5.789  12.108  0.00  0.00    +0.000 HD
BRANCH  10  13
ATOM     13  C   UNL     1      45.041   5.500  11.622  0.00  0.00    +0.000 A 
ATOM     14  C   UNL     1      44.269   4.988  12.656  0.00  0.00    +0.000 A 
ATOM     15  S   UNL     1      43.504   3.512  12.274  0.00  0.00    +0.000 S 
ATOM     16  C   UNL     1      44.207   3.488  10.724  0.00  0.00    +0.000 A 
ATOM     17  N   UNL     1      43.991   2.450   9.872  0.00  0.00    +0.000 NA
ATOM     18  C   UNL     1      44.609   2.550   8.743  0.00  0.00    +0.000 A 
ATOM     19  N   UNL     1      45.408   3.603   8.380  0.00  0.00    +0.000 N 
ATOM     20  C   UNL     1      45.624   4.690   9.191  0.00  0.00    +0.000 A 
ATOM     21  O   UNL     1      46.293   5.647   8.816  0.00  0.00    +0.000 OA
ATOM     22  C   UNL     1      44.982   4.609  10.489  0.00  0.00    +0.000 A 
ATOM     23  H   UNL     1      45.845   3.632   7.470  0.00  0.00    +0.000 HD
ENDBRANCH  10  13
ENDBRANCH   8   9
ENDBRANCH   1   8
BRANCH   4  24
ATOM     24  N   UNL     1      50.049   8.512  17.312  0.00  0.00    +0.000 N 
ATOM     25  H   UNL     1      50.043   9.511  17.508  0.00  0.00    +0.000 HD
BRANCH  24  26
ATOM     26  C   UNL     1      49.601   7.707  18.447  0.00  0.00    +0.000 C 
BRANCH  26  27
ATOM     27  C   UNL     1      49.794   6.236  18.138  0.00  0.00    +0.000 A 
ATOM     28  C   UNL     1      51.032   5.635  18.367  0.00  0.00    +0.000 A 
ATOM     29  C   UNL     1      51.191   4.285  18.089  0.00  0.00    +0.000 A 
ATOM     30  C   UNL     1      50.116   3.564  17.584  0.00  0.00    +0.000 A 
ATOM     31  C   UNL     1      48.897   4.217  17.369  0.00  0.00    +0.000 A 
ATOM     32  N   UNL     1      48.737   5.544  17.640  0.00  0.00    +0.000 NA
BRANCH  31  33
ATOM     33  C   UNL     1      47.710   3.437  16.823  0.00  0.00    +0.000 C 
ATOM     34  F   UNL     1      48.051   2.541  15.849  0.00  0.00    +0.000 F 
ATOM     35  F   UNL     1      47.067   2.703  17.777  0.00  0.00    +0.000 F 
ATOM     36  F   UNL     1      46.759   4.237  16.259  0.00  0.00    +0.000 F 
ENDBRANCH  31  33
ENDBRANCH  26  27
ENDBRANCH  24  26
ENDBRANCH   4  24
TORSDOF 7
ENDMDL
MODEL 6
REMARK VINA RESULT:    -7.285      4.208      8.538
REMARK INTER + INTRA:         -11.638
REMARK INTER:                 -10.213
REMARK INTRA:                  -1.425
REMARK UNBOUND:                -1.371
REMARK  Name = 
REMARK  8 active torsions:
REMARK  status: ('A' for Active; 'I' for Inactive)
REMARK    1  A    between atoms: C_1  and  C_2
REMARK    2  A    between atoms: C_2  and  N_3
REMARK    3  A    between atoms: C_2  and  C_16
REMARK    4  A    between atoms: C_4  and  C_6
REMARK    5  A    between atoms: C_19  and  N_20
REMARK    6  A    between atoms: N_20  and  C_21
REMARK    7  A    between atoms: C_21  and  C_22
REMARK    8  A    between atoms: C_26  and  C_27
REMARK                            x       y       z     vdW  Elec       q    Type
REMARK                         _______ _______ _______ _____ _____    ______ ____
ROOT
ATOM      1  C   UNL     1      48.595   8.070  13.403  0.00  0.00    +0.000 A 
ATOM      2  C   UNL     1      49.398   7.130  14.057  0.00  0.00    +0.000 A 
ATOM      3  C   UNL     1      49.548   7.167  15.450  0.00  0.00    +0.000 A 
ATOM      4  C   UNL     1      48.923   8.157  16.212  0.00  0.00    +0.000 A 
ATOM      5  C   UNL     1      48.032   9.020  15.572  0.00  0.00    +0.000 A 
ATOM      6  C   UNL     1      47.883   8.994  14.184  0.00  0.00    +0.000 A 
ENDROOT
BRANCH   1   8
ATOM      7  C   UNL     1      49.954   8.143  11.302  0.00  0.00    +0.000 C 
ATOM      8  C   UNL     1      48.537   8.133  11.882  0.00  0.00    +0.000 C 
BRANCH   8   9
ATOM      9  N   UNL     1      47.737   7.012  11.400  0.00  0.00    +0.000 N 
ATOM     10  C   UNL     1      46.366   7.010  11.374  0.00  0.00    +0.000 C 
ATOM     11  O   UNL     1      45.691   7.976  11.717  0.00  0.00    +0.000 OA
ATOM     12  H   UNL     1      48.203   6.110  11.416  0.00  0.00    +0.000 HD
BRANCH  10  13
ATOM     13  C   UNL     1      45.730   5.800  10.837  0.00  0.00    +0.000 A 
ATOM     14  C   UNL     1      45.820   5.515   9.482  0.00  0.00    +0.000 A 
ATOM     15  S   UNL     1      45.024   4.076   9.030  0.00  0.00    +0.000 S 
ATOM     16  C   UNL     1      44.498   3.803  10.625  0.00  0.00    +0.000 A 
ATOM     17  N   UNL     1      43.714   2.735  10.932  0.00  0.00    +0.000 NA
ATOM     18  C   UNL     1      43.367   2.667  12.174  0.00  0.00    +0.000 A 
ATOM     19  N   UNL     1      43.748   3.561  13.142  0.00  0.00    +0.000 N 
ATOM     20  C   UNL     1      44.570   4.632  12.886  0.00  0.00    +0.000 A 
ATOM     21  O   UNL     1      44.946   5.379  13.783  0.00  0.00    +0.000 OA
ATOM     22  C   UNL     1      44.958   4.775  11.496  0.00  0.00    +0.000 A 
ATOM     23  H   UNL     1      43.462   3.438  14.102  0.00  0.00    +0.000 HD
ENDBRANCH  10  13
ENDBRANCH   8   9
ENDBRANCH   1   8
BRANCH   4  24
ATOM     24  N   UNL     1      49.127   8.337  17.579  0.00  0.00    +0.000 N 
ATOM     25  H   UNL     1      49.501   9.255  17.807  0.00  0.00    +0.000 HD
BRANCH  24  26
ATOM     26  C   UNL     1      48.079   7.905  18.503  0.00  0.00    +0.000 C 
BRANCH  26  27
ATOM     27  C   UNL     1      48.271   6.442  18.846  0.00  0.00    +0.000 A 
ATOM     28  C   UNL     1      48.860   6.084  20.059  0.00  0.00    +0.000 A 
ATOM     29  C   UNL     1      49.021   4.740  20.363  0.00  0.00    +0.000 A 
ATOM     30  C   UNL     1      48.596   3.782  19.453  0.00  0.00    +0.000 A 
ATOM     31  C   UNL     1      48.015   4.194  18.248  0.00  0.00    +0.000 A 
ATOM     32  N   UNL     1      47.857   5.515  17.945  0.00  0.00    +0.000 NA
BRANCH  31  33
ATOM     33  C   UNL     1      47.539   3.154  17.244  0.00  0.00    +0.000 C 
ATOM     34  F   UNL     1      48.556   2.418  16.702  0.00  0.00    +0.000 F 
ATOM     35  F   UNL     1      46.684   2.240  17.786  0.00  0.00    +0.000 F 
ATOM     36  F   UNL     1      46.883   3.699  16.179  0.00  0.00    +0.000 F 
ENDBRANCH  31  33
ENDBRANCH  26  27
ENDBRANCH  24  26
ENDBRANCH   4  24
TORSDOF 7
ENDMDL
MODEL 7
REMARK VINA RESULT:    -7.046      3.074      4.230
REMARK INTER + INTRA:         -11.301
REMARK INTER:                 -10.033
REMARK INTRA:                  -1.268
REMARK UNBOUND:                -1.371
REMARK  Name = 
REMARK  8 active torsions:
REMARK  status: ('A' for Active; 'I' for Inactive)
REMARK    1  A    between atoms: C_1  and  C_2
REMARK    2  A    between atoms: C_2  and  N_3
REMARK    3  A    between atoms: C_2  and  C_16
REMARK    4  A    between atoms: C_4  and  C_6
REMARK    5  A    between atoms: C_19  and  N_20
REMARK    6  A    between atoms: N_20  and  C_21
REMARK    7  A    between atoms: C_21  and  C_22
REMARK    8  A    between atoms: C_26  and  C_27
REMARK                            x       y       z     vdW  Elec       q    Type
REMARK                         _______ _______ _______ _____ _____    ______ ____
ROOT
ATOM      1  C   UNL     1      48.685   6.793  16.421  0.00  0.00    +0.000 A 
ATOM      2  C   UNL     1      48.773   7.763  15.417  0.00  0.00    +0.000 A 
ATOM      3  C   UNL     1      48.295   7.498  14.126  0.00  0.00    +0.000 A 
ATOM      4  C   UNL     1      47.746   6.253  13.807  0.00  0.00    +0.000 A 
ATOM      5  C   UNL     1      47.554   5.332  14.837  0.00  0.00    +0.000 A 
ATOM      6  C   UNL     1      48.034   5.586  16.123  0.00  0.00    +0.000 A 
ENDROOT
BRANCH   1   8
ATOM      7  C   UNL     1      48.247   7.113  18.865  0.00  0.00    +0.000 C 
ATOM      8  C   UNL     1      49.328   7.013  17.784  0.00  0.00    +0.000 C 
BRANCH   8   9
ATOM      9  N   UNL     1      50.277   5.932  18.031  0.00  0.00    +0.000 N 
ATOM     10  C   UNL     1      51.522   5.867  17.460  0.00  0.00    +0.000 C 
ATOM     11  O   UNL     1      51.962   6.740  16.719  0.00  0.00    +0.000 OA
ATOM     12  H   UNL     1      49.865   5.061  18.352  0.00  0.00    +0.000 HD
BRANCH  10  13
ATOM     13  C   UNL     1      52.349   4.713  17.839  0.00  0.00    +0.000 A 
ATOM     14  C   UNL     1      53.642   4.913  18.302  0.00  0.00    +0.000 A 
ATOM     15  S   UNL     1      54.460   3.469  18.693  0.00  0.00    +0.000 S 
ATOM     16  C   UNL     1      53.126   2.523  18.223  0.00  0.00    +0.000 A 
ATOM     17  N   UNL     1      53.178   1.165  18.269  0.00  0.00    +0.000 NA
ATOM     18  C   UNL     1      52.105   0.576  17.857  0.00  0.00    +0.000 A 
ATOM     19  N   UNL     1      50.977   1.222  17.421  0.00  0.00    +0.000 N 
ATOM     20  C   UNL     1      50.865   2.590  17.394  0.00  0.00    +0.000 A 
ATOM     21  O   UNL     1      49.822   3.141  17.059  0.00  0.00    +0.000 OA
ATOM     22  C   UNL     1      52.058   3.301  17.812  0.00  0.00    +0.000 A 
ATOM     23  H   UNL     1      50.161   0.702  17.134  0.00  0.00    +0.000 HD
ENDBRANCH  10  13
ENDBRANCH   8   9
ENDBRANCH   1   8
BRANCH   4  24
ATOM     24  N   UNL     1      47.369   5.872  12.520  0.00  0.00    +0.000 N 
ATOM     25  H   UNL     1      47.578   4.896  12.320  0.00  0.00    +0.000 HD
BRANCH  24  26
ATOM     26  C   UNL     1      46.057   6.286  12.026  0.00  0.00    +0.000 C 
BRANCH  26  27
ATOM     27  C   UNL     1      45.194   5.064  11.783  0.00  0.00    +0.000 A 
ATOM     28  C   UNL     1      44.242   4.686  12.731  0.00  0.00    +0.000 A 
ATOM     29  C   UNL     1      43.453   3.571  12.490  0.00  0.00    +0.000 A 
ATOM     30  C   UNL     1      43.631   2.853  11.315  0.00  0.00    +0.000 A 
ATOM     31  C   UNL     1      44.603   3.272  10.399  0.00  0.00    +0.000 A 
ATOM     32  N   UNL     1      45.382   4.368  10.633  0.00  0.00    +0.000 NA
BRANCH  31  33
ATOM     33  C   UNL     1      44.804   2.498   9.104  0.00  0.00    +0.000 C 
ATOM     34  F   UNL     1      46.119   2.270   8.808  0.00  0.00    +0.000 F 
ATOM     35  F   UNL     1      44.220   1.265   9.122  0.00  0.00    +0.000 F 
ATOM     36  F   UNL     1      44.296   3.141   8.013  0.00  0.00    +0.000 F 
ENDBRANCH  31  33
ENDBRANCH  26  27
ENDBRANCH  24  26
ENDBRANCH   4  24
TORSDOF 7
ENDMDL
MODEL 8
REMARK VINA RESULT:    -6.961      2.384      4.100
REMARK INTER + INTRA:         -11.180
REMARK INTER:                  -9.851
REMARK INTRA:                  -1.329
REMARK UNBOUND:                -1.371
REMARK  Name = 
REMARK  8 active torsions:
REMARK  status: ('A' for Active; 'I' for Inactive)
REMARK    1  A    between atoms: C_1  and  C_2
REMARK    2  A    between atoms: C_2  and  N_3
REMARK    3  A    between atoms: C_2  and  C_16
REMARK    4  A    between atoms: C_4  and  C_6
REMARK    5  A    between atoms: C_19  and  N_20
REMARK    6  A    between atoms: N_20  and  C_21
REMARK    7  A    between atoms: C_21  and  C_22
REMARK    8  A    between atoms: C_26  and  C_27
REMARK                            x       y       z     vdW  Elec       q    Type
REMARK                         _______ _______ _______ _____ _____    ______ ____
ROOT
ATOM      1  C   UNL     1      46.745   4.974  14.242  0.00  0.00    +0.000 A 
ATOM      2  C   UNL     1      46.615   3.647  13.817  0.00  0.00    +0.000 A 
ATOM      3  C   UNL     1      45.680   3.302  12.832  0.00  0.00    +0.000 A 
ATOM      4  C   UNL     1      44.840   4.268  12.272  0.00  0.00    +0.000 A 
ATOM      5  C   UNL     1      45.051   5.605  12.612  0.00  0.00    +0.000 A 
ATOM      6  C   UNL     1      45.975   5.955  13.598  0.00  0.00    +0.000 A 
ENDROOT
BRANCH   1   8
ATOM      7  C   UNL     1      47.996   4.089  16.221  0.00  0.00    +0.000 C 
ATOM      8  C   UNL     1      47.652   5.341  15.409  0.00  0.00    +0.000 C 
BRANCH   8   9
ATOM      9  N   UNL     1      48.833   6.019  14.886  0.00  0.00    +0.000 N 
ATOM     10  C   UNL     1      49.298   7.218  15.365  0.00  0.00    +0.000 C 
ATOM     11  O   UNL     1      48.778   7.805  16.309  0.00  0.00    +0.000 OA
ATOM     12  H   UNL     1      49.094   5.763  13.939  0.00  0.00    +0.000 HD
BRANCH  10  13
ATOM     13  C   UNL     1      50.513   7.742  14.728  0.00  0.00    +0.000 A 
ATOM     14  C   UNL     1      51.686   7.848  15.463  0.00  0.00    +0.000 A 
ATOM     15  S   UNL     1      52.997   8.478  14.571  0.00  0.00    +0.000 S 
ATOM     16  C   UNL     1      52.032   8.665  13.182  0.00  0.00    +0.000 A 
ATOM     17  N   UNL     1      52.540   9.206  12.043  0.00  0.00    +0.000 NA
ATOM     18  C   UNL     1      51.689   9.313  11.078  0.00  0.00    +0.000 A 
ATOM     19  N   UNL     1      50.380   8.911  11.142  0.00  0.00    +0.000 N 
ATOM     20  C   UNL     1      49.834   8.325  12.258  0.00  0.00    +0.000 A 
ATOM     21  O   UNL     1      48.677   7.918  12.266  0.00  0.00    +0.000 OA
ATOM     22  C   UNL     1      50.739   8.215  13.385  0.00  0.00    +0.000 A 
ATOM     23  H   UNL     1      49.771   9.001  10.342  0.00  0.00    +0.000 HD
ENDBRANCH  10  13
ENDBRANCH   8   9
ENDBRANCH   1   8
BRANCH   4  24
ATOM     24  N   UNL     1      43.802   3.982  11.386  0.00  0.00    +0.000 N 
ATOM     25  H   UNL     1      43.462   4.807  10.896  0.00  0.00    +0.000 HD
BRANCH  24  26
ATOM     26  C   UNL     1      43.931   2.815  10.515  0.00  0.00    +0.000 C 
BRANCH  26  27
ATOM     27  C   UNL     1      44.899   3.122   9.390  0.00  0.00    +0.000 A 
ATOM     28  C   UNL     1      45.116   4.445   9.003  0.00  0.00    +0.000 A 
ATOM     29  C   UNL     1      46.013   4.711   7.978  0.00  0.00    +0.000 A 
ATOM     30  C   UNL     1      46.669   3.657   7.358  0.00  0.00    +0.000 A 
ATOM     31  C   UNL     1      46.412   2.348   7.782  0.00  0.00    +0.000 A 
ATOM     32  N   UNL     1      45.530   2.082   8.789  0.00  0.00    +0.000 NA
BRANCH  31  33
ATOM     33  C   UNL     1      47.130   1.183   7.116  0.00  0.00    +0.000 C 
ATOM     34  F   UNL     1      46.851  -0.026   7.691  0.00  0.00    +0.000 F 
ATOM     35  F   UNL     1      46.805   1.038   5.799  0.00  0.00    +0.000 F 
ATOM     36  F   UNL     1      48.489   1.297   7.159  0.00  0.00    +0.000 F 
ENDBRANCH  31  33
ENDBRANCH  26  27
ENDBRANCH  24  26
ENDBRANCH   4  24
TORSDOF 7
ENDMDL
MODEL 9
REMARK VINA RESULT:    -6.698      4.078      8.211
REMARK INTER + INTRA:         -10.811
REMARK INTER:                  -8.724
REMARK INTRA:                  -2.087
REMARK UNBOUND:                -1.371
REMARK  Name = 
REMARK  8 active torsions:
REMARK  status: ('A' for Active; 'I' for Inactive)
REMARK    1  A    between atoms: C_1  and  C_2
REMARK    2  A    between atoms: C_2  and  N_3
REMARK    3  A    between atoms: C_2  and  C_16
REMARK    4  A    between atoms: C_4  and  C_6
REMARK    5  A    between atoms: C_19  and  N_20
REMARK    6  A    between atoms: N_20  and  C_21
REMARK    7  A    between atoms: C_21  and  C_22
REMARK    8  A    between atoms: C_26  and  C_27
REMARK                            x       y       z     vdW  Elec       q    Type
REMARK                         _______ _______ _______ _____ _____    ______ ____
ROOT
ATOM      1  C   UNL     1      49.631   8.493  14.440  0.00  0.00    +0.000 A 
ATOM      2  C   UNL     1      50.702   7.591  14.447  0.00  0.00    +0.000 A 
ATOM      3  C   UNL     1      51.301   7.206  15.654  0.00  0.00    +0.000 A 
ATOM      4  C   UNL     1      50.863   7.732  16.872  0.00  0.00    +0.000 A 
ATOM      5  C   UNL     1      49.724   8.538  16.872  0.00  0.00    +0.000 A 
ATOM      6  C   UNL     1      49.126   8.932  15.674  0.00  0.00    +0.000 A 
ENDROOT
BRANCH   1   8
ATOM      7  C   UNL     1      50.192   9.230  12.115  0.00  0.00    +0.000 C 
ATOM      8  C   UNL     1      49.065   9.031  13.133  0.00  0.00    +0.000 C 
BRANCH   8   9
ATOM      9  N   UNL     1      48.032   8.116  12.661  0.00  0.00    +0.000 N 
ATOM     10  C   UNL     1      46.713   8.203  13.027  0.00  0.00    +0.000 C 
ATOM     11  O   UNL     1      46.280   9.091  13.755  0.00  0.00    +0.000 OA
ATOM     12  H   UNL     1      48.368   7.212  12.342  0.00  0.00    +0.000 HD
BRANCH  10  13
ATOM     13  C   UNL     1      45.810   7.206  12.437  0.00  0.00    +0.000 A 
ATOM     14  C   UNL     1      44.770   7.616  11.615  0.00  0.00    +0.000 A 
ATOM     15  S   UNL     1      43.819   6.331  11.021  0.00  0.00    +0.000 S 
ATOM     16  C   UNL     1      44.743   5.183  11.872  0.00  0.00    +0.000 A 
ATOM     17  N   UNL     1      44.430   3.860  11.831  0.00  0.00    +0.000 NA
ATOM     18  C   UNL     1      45.199   3.107  12.545  0.00  0.00    +0.000 A 
ATOM     19  N   UNL     1      46.264   3.555  13.283  0.00  0.00    +0.000 N 
ATOM     20  C   UNL     1      46.640   4.875  13.324  0.00  0.00    +0.000 A 
ATOM     21  O   UNL     1      47.636   5.238  13.941  0.00  0.00    +0.000 OA
ATOM     22  C   UNL     1      45.786   5.769  12.567  0.00  0.00    +0.000 A 
ATOM     23  H   UNL     1      46.842   2.910  13.802  0.00  0.00    +0.000 HD
ENDBRANCH  10  13
ENDBRANCH   8   9
ENDBRANCH   1   8
BRANCH   4  24
ATOM     24  N   UNL     1      51.489   7.497  18.095  0.00  0.00    +0.000 N 
ATOM     25  H   UNL     1      51.862   8.345  18.518  0.00  0.00    +0.000 HD
BRANCH  24  26
ATOM     26  C   UNL     1      50.825   6.625  19.063  0.00  0.00    +0.000 C 
BRANCH  26  27
ATOM     27  C   UNL     1      50.629   5.249  18.458  0.00  0.00    +0.000 A 
ATOM     28  C   UNL     1      51.708   4.368  18.373  0.00  0.00    +0.000 A 
ATOM     29  C   UNL     1      51.510   3.108  17.826  0.00  0.00    +0.000 A 
ATOM     30  C   UNL     1      50.247   2.754  17.372  0.00  0.00    +0.000 A 
ATOM     31  C   UNL     1      49.200   3.677  17.477  0.00  0.00    +0.000 A 
ATOM     32  N   UNL     1      49.390   4.918  18.013  0.00  0.00    +0.000 NA
BRANCH  31  33
ATOM     33  C   UNL     1      47.809   3.300  16.989  0.00  0.00    +0.000 C 
ATOM     34  F   UNL     1      47.137   2.478  17.851  0.00  0.00    +0.000 F 
ATOM     35  F   UNL     1      46.994   4.379  16.812  0.00  0.00    +0.000 F 
ATOM     36  F   UNL     1      47.821   2.637  15.797  0.00  0.00    +0.000 F 
ENDBRANCH  31  33
ENDBRANCH  26  27
ENDBRANCH  24  26
ENDBRANCH   4  24
TORSDOF 7
ENDMDL
