MODEL 1
REMARK VINA RESULT:    -8.257      0.000      0.000
REMARK INTER + INTRA:         -13.203
REMARK INTER:                 -12.359
REMARK INTRA:                  -0.843
REMARK UNBOUND:                -0.843
REMARK  Name = 
REMARK  9 active torsions:
REMARK  status: ('A' for Active; 'I' for Inactive)
REMARK    1  A    between atoms: N_1  and  C_2
REMARK    2  A    between atoms: C_2  and  C_3
REMARK    3  A    between atoms: C_3  and  N_4
REMARK    4  A    between atoms: C_3  and  C_26
REMARK    5  A    between atoms: N_4  and  C_5
REMARK    6  A    between atoms: C_5  and  C_6
REMARK    7  A    between atoms: C_9  and  C_10
REMARK    8  A    between atoms: C_10  and  N_11
REMARK    9  A    between atoms: C_12  and  C_14
REMARK                            x       y       z     vdW  Elec       q    Type
REMARK                         _______ _______ _______ _____ _____    ______ ____
ROOT
ATOM      1  C   UNL     1      44.246   6.372  11.641  0.00  0.00    +0.000 A 
ATOM      2  C   UNL     1      44.497   7.715  11.322  0.00  0.00    +0.000 A 
ATOM      3  C   UNL     1      45.536   8.413  11.941  0.00  0.00    +0.000 A 
ATOM      4  C   UNL     1      46.346   7.780  12.891  0.00  0.00    +0.000 A 
ATOM      5  C   UNL     1      46.075   6.449  13.234  0.00  0.00    +0.000 A 
ATOM      6  C   UNL     1      45.038   5.750  12.614  0.00  0.00    +0.000 A 
ENDROOT
BRANCH   1   7
ATOM      7  C   UNL     1      43.093   5.637  11.002  0.00  0.00    +0.000 C 
BRANCH   7   8
ATOM      8  N   UNL     1      43.537   4.791   9.896  0.00  0.00    +0.000 NA
ATOM      9  H   UNL     1      44.094   5.363   9.255  0.00  0.00    +0.000 HD
BRANCH   8  10
ATOM     10  C   UNL     1      44.404   3.664  10.321  0.00  0.00    +0.000 C 
BRANCH  10  11
ATOM     11  C   UNL     1      45.219   3.181   9.115  0.00  0.00    +0.000 A 
ATOM     12  C   UNL     1      45.699   4.063   8.144  0.00  0.00    +0.000 A 
ATOM     13  C   UNL     1      46.474   3.573   7.095  0.00  0.00    +0.000 A 
ATOM     14  C   UNL     1      46.772   2.219   7.045  0.00  0.00    +0.000 A 
ATOM     15  C   UNL     1      46.282   1.409   8.054  0.00  0.00    +0.000 A 
ATOM     16  N   UNL     1      45.526   1.853   9.084  0.00  0.00    +0.000 NA
ENDBRANCH  10  11
BRANCH  10  17
ATOM     17  C   UNL     1      43.604   2.530  11.041  0.00  0.00    +0.000 C 
BRANCH  17  18
ATOM     18  N   UNL     1      43.847   2.411  12.483  0.00  0.00    +0.000 NA
ATOM     19  H   UNL     1      42.970   2.188  12.950  0.00  0.00    +0.000 HD
ATOM     20  H   UNL     1      44.147   3.313  12.851  0.00  0.00    +0.000 HD
ENDBRANCH  17  18
ENDBRANCH  10  17
ENDBRANCH   8  10
ENDBRANCH   7   8
ENDBRANCH   1   7
BRANCH   4  21
ATOM     21  C   UNL     1      47.456   8.529  13.575  0.00  0.00    +0.000 C 
BRANCH  21  22
ATOM     22  N   UNL     1      47.770   7.934  14.847  0.00  0.00    +0.000 N 
ATOM     23  C   UNL     1      48.788   7.026  14.973  0.00  0.00    +0.000 C 
ATOM     24  O   UNL     1      49.498   6.712  14.021  0.00  0.00    +0.000 OA
ATOM     25  H   UNL     1      47.073   8.018  15.583  0.00  0.00    +0.000 HD
BRANCH  23  26
ATOM     26  C   UNL     1      49.030   6.491  16.317  0.00  0.00    +0.000 A 
ATOM     27  C   UNL     1      49.736   7.254  17.239  0.00  0.00    +0.000 A 
ATOM     28  S   UNL     1      49.895   6.510  18.764  0.00  0.00    +0.000 S 
ATOM     29  C   UNL     1      49.067   5.122  18.234  0.00  0.00    +0.000 A 
ATOM     30  N   UNL     1      48.876   4.064  19.066  0.00  0.00    +0.000 NA
ATOM     31  C   UNL     1      48.253   3.068  18.528  0.00  0.00    +0.000 A 
ATOM     32  N   UNL     1      47.801   3.038  17.235  0.00  0.00    +0.000 N 
ATOM     33  C   UNL     1      47.950   4.091  16.367  0.00  0.00    +0.000 A 
ATOM     34  O   UNL     1      47.499   4.042  15.227  0.00  0.00    +0.000 OA
ATOM     35  C   UNL     1      48.654   5.233  16.917  0.00  0.00    +0.000 A 
ATOM     36  H   UNL     1      47.310   2.231  16.876  0.00  0.00    +0.000 HD
ENDBRANCH  23  26
ENDBRANCH  21  22
ENDBRANCH   4  21
TORSDOF 9
ENDMDL
MODEL 2
REMARK VINA RESULT:    -8.120      1.580      1.801
REMARK INTER + INTRA:         -12.999
REMARK INTER:                 -12.105
REMARK INTRA:                  -0.894
REMARK UNBOUND:                -0.843
REMARK  Name = 
REMARK  9 active torsions:
REMARK  status: ('A' for Active; 'I' for Inactive)
REMARK    1  A    between atoms: N_1  and  C_2
REMARK    2  A    between atoms: C_2  and  C_3
REMARK    3  A    between atoms: C_3  and  N_4
REMARK    4  A    between atoms: C_3  and  C_26
REMARK    5  A    between atoms: N_4  and  C_5
REMARK    6  A    between atoms: C_5  and  C_6
REMARK    7  A    between atoms: C_9  and  C_10
REMARK    8  A    between atoms: C_10  and  N_11
REMARK    9  A    between atoms: C_12  and  C_14
REMARK                            x       y       z     vdW  Elec       q    Type
REMARK                         _______ _______ _______ _____ _____    ______ ____
ROOT
ATOM      1  C   UNL     1      44.957   5.526  11.540  0.00  0.00    +0.000 A 
ATOM      2  C   UNL     1      45.962   6.310  10.953  0.00  0.00    +0.000 A 
ATOM      3  C   UNL     1      47.109   6.654  11.671  0.00  0.00    +0.000 A 
ATOM      4  C   UNL     1      47.273   6.219  12.991  0.00  0.00    +0.000 A 
ATOM      5  C   UNL     1      46.255   5.465  13.589  0.00  0.00    +0.000 A 
ATOM      6  C   UNL     1      45.110   5.118  12.871  0.00  0.00    +0.000 A 
ENDROOT
BRANCH   1   7
ATOM      7  C   UNL     1      43.699   5.196  10.773  0.00  0.00    +0.000 C 
BRANCH   7   8
ATOM      8  N   UNL     1      43.986   4.409   9.576  0.00  0.00    +0.000 NA
ATOM      9  H   UNL     1      44.588   4.964   8.962  0.00  0.00    +0.000 HD
BRANCH   8  10
ATOM     10  C   UNL     1      44.714   3.147   9.855  0.00  0.00    +0.000 C 
BRANCH  10  11
ATOM     11  C   UNL     1      45.563   2.781   8.631  0.00  0.00    +0.000 A 
ATOM     12  C   UNL     1      45.937   3.731   7.678  0.00  0.00    +0.000 A 
ATOM     13  C   UNL     1      46.748   3.349   6.610  0.00  0.00    +0.000 A 
ATOM     14  C   UNL     1      47.186   2.035   6.525  0.00  0.00    +0.000 A 
ATOM     15  C   UNL     1      46.794   1.155   7.519  0.00  0.00    +0.000 A 
ATOM     16  N   UNL     1      46.007   1.493   8.565  0.00  0.00    +0.000 NA
ENDBRANCH  10  11
BRANCH  10  17
ATOM     17  C   UNL     1      43.766   2.001  10.335  0.00  0.00    +0.000 C 
BRANCH  17  18
ATOM     18  N   UNL     1      43.265   2.136  11.708  0.00  0.00    +0.000 NA
ATOM     19  H   UNL     1      42.736   3.002  11.785  0.00  0.00    +0.000 HD
ATOM     20  H   UNL     1      44.054   2.223  12.348  0.00  0.00    +0.000 HD
ENDBRANCH  17  18
ENDBRANCH  10  17
ENDBRANCH   8  10
ENDBRANCH   7   8
ENDBRANCH   1   7
BRANCH   4  21
ATOM     21  C   UNL     1      48.497   6.600  13.777  0.00  0.00    +0.000 C 
BRANCH  21  22
ATOM     22  N   UNL     1      48.177   6.790  15.168  0.00  0.00    +0.000 N 
ATOM     23  C   UNL     1      49.112   6.574  16.146  0.00  0.00    +0.000 C 
ATOM     24  O   UNL     1      50.266   6.250  15.880  0.00  0.00    +0.000 OA
ATOM     25  H   UNL     1      47.193   6.848  15.413  0.00  0.00    +0.000 HD
BRANCH  23  26
ATOM     26  C   UNL     1      48.683   6.809  17.529  0.00  0.00    +0.000 A 
ATOM     27  C   UNL     1      48.296   8.086  17.916  0.00  0.00    +0.000 A 
ATOM     28  S   UNL     1      47.787   8.183  19.540  0.00  0.00    +0.000 S 
ATOM     29  C   UNL     1      48.108   6.533  19.797  0.00  0.00    +0.000 A 
ATOM     30  N   UNL     1      47.906   5.965  21.015  0.00  0.00    +0.000 NA
ATOM     31  C   UNL     1      48.213   4.712  21.078  0.00  0.00    +0.000 A 
ATOM     32  N   UNL     1      48.698   3.975  20.029  0.00  0.00    +0.000 N 
ATOM     33  C   UNL     1      48.895   4.500  18.775  0.00  0.00    +0.000 A 
ATOM     34  O   UNL     1      49.296   3.800  17.851  0.00  0.00    +0.000 OA
ATOM     35  C   UNL     1      48.577   5.910  18.654  0.00  0.00    +0.000 A 
ATOM     36  H   UNL     1      48.909   2.994  20.138  0.00  0.00    +0.000 HD
ENDBRANCH  23  26
ENDBRANCH  21  22
ENDBRANCH   4  21
TORSDOF 9
ENDMDL
MODEL 3
REMARK VINA RESULT:    -7.887      1.914      2.559
REMARK INTER + INTRA:         -12.649
REMARK INTER:                 -11.760
REMARK INTRA:                  -0.889
REMARK UNBOUND:                -0.843
REMARK  Name = 
REMARK  9 active torsions:
REMARK  status: ('A' for Active; 'I' for Inactive)
REMARK    1  A    between atoms: N_1  and  C_2
REMARK    2  A    between atoms: C_2  and  C_3
REMARK    3  A    between atoms: C_3  and  N_4
REMARK    4  A    between atoms: C_3  and  C_26
REMARK    5  A    between atoms: N_4  and  C_5
REMARK    6  A    between atoms: C_5  and  C_6
REMARK    7  A    between atoms: C_9  and  C_10
REMARK    8  A    between atoms: C_10  and  N_11
REMARK    9  A    between atoms: C_12  and  C_14
REMARK                            x       y       z     vdW  Elec       q    Type
REMARK                         _______ _______ _______ _____ _____    ______ ____
ROOT
ATOM      1  C   UNL     1      44.703   5.566  11.503  0.00  0.00    +0.000 A 
ATOM      2  C   UNL     1      44.940   5.012  12.770  0.00  0.00    +0.000 A 
ATOM      3  C   UNL     1      46.070   5.371  13.506  0.00  0.00    +0.000 A 
ATOM      4  C   UNL     1      46.987   6.293  12.989  0.00  0.00    +0.000 A 
ATOM      5  C   UNL     1      46.769   6.822  11.710  0.00  0.00    +0.000 A 
ATOM      6  C   UNL     1      45.637   6.465  10.975  0.00  0.00    +0.000 A 
ENDROOT
BRANCH   1   7
ATOM      7  C   UNL     1      43.503   5.138  10.694  0.00  0.00    +0.000 C 
BRANCH   7   8
ATOM      8  N   UNL     1      43.891   4.365   9.516  0.00  0.00    +0.000 NA
ATOM      9  H   UNL     1      44.511   4.943   8.941  0.00  0.00    +0.000 HD
BRANCH   8  10
ATOM     10  C   UNL     1      44.644   3.128   9.839  0.00  0.00    +0.000 C 
BRANCH  10  11
ATOM     11  C   UNL     1      45.526   2.756   8.640  0.00  0.00    +0.000 A 
ATOM     12  C   UNL     1      45.936   3.703   7.698  0.00  0.00    +0.000 A 
ATOM     13  C   UNL     1      46.775   3.315   6.656  0.00  0.00    +0.000 A 
ATOM     14  C   UNL     1      47.205   1.998   6.583  0.00  0.00    +0.000 A 
ATOM     15  C   UNL     1      46.778   1.120   7.564  0.00  0.00    +0.000 A 
ATOM     16  N   UNL     1      45.962   1.465   8.587  0.00  0.00    +0.000 NA
ENDBRANCH  10  11
BRANCH  10  17
ATOM     17  C   UNL     1      43.715   1.970  10.326  0.00  0.00    +0.000 C 
BRANCH  17  18
ATOM     18  N   UNL     1      43.279   2.063  11.724  0.00  0.00    +0.000 NA
ATOM     19  H   UNL     1      43.611   1.245  12.231  0.00  0.00    +0.000 HD
ATOM     20  H   UNL     1      42.260   2.031  11.763  0.00  0.00    +0.000 HD
ENDBRANCH  17  18
ENDBRANCH  10  17
ENDBRANCH   8  10
ENDBRANCH   7   8
ENDBRANCH   1   7
BRANCH   4  21
ATOM     21  C   UNL     1      48.216   6.673  13.767  0.00  0.00    +0.000 C 
BRANCH  21  22
ATOM     22  N   UNL     1      48.058   6.360  15.164  0.00  0.00    +0.000 N 
ATOM     23  C   UNL     1      49.137   6.321  16.007  0.00  0.00    +0.000 C 
ATOM     24  O   UNL     1      50.272   6.587  15.621  0.00  0.00    +0.000 OA
ATOM     25  H   UNL     1      47.178   5.938  15.448  0.00  0.00    +0.000 HD
BRANCH  23  26
ATOM     26  C   UNL     1      48.862   6.003  17.412  0.00  0.00    +0.000 A 
ATOM     27  C   UNL     1      49.065   4.708  17.872  0.00  0.00    +0.000 A 
ATOM     28  S   UNL     1      48.741   4.513  19.534  0.00  0.00    +0.000 S 
ATOM     29  C   UNL     1      48.274   6.141  19.690  0.00  0.00    +0.000 A 
ATOM     30  N   UNL     1      47.848   6.633  20.883  0.00  0.00    +0.000 NA
ATOM     31  C   UNL     1      47.502   7.877  20.855  0.00  0.00    +0.000 A 
ATOM     32  N   UNL     1      47.549   8.674  19.741  0.00  0.00    +0.000 N 
ATOM     33  C   UNL     1      47.994   8.227  18.521  0.00  0.00    +0.000 A 
ATOM     34  O   UNL     1      48.057   8.980  17.554  0.00  0.00    +0.000 OA
ATOM     35  C   UNL     1      48.384   6.831  18.495  0.00  0.00    +0.000 A 
ATOM     36  H   UNL     1      47.274   9.645  19.786  0.00  0.00    +0.000 HD
ENDBRANCH  23  26
ENDBRANCH  21  22
ENDBRANCH   4  21
TORSDOF 9
ENDMDL
MODEL 4
REMARK VINA RESULT:    -7.748      3.033      4.235
REMARK INTER + INTRA:         -12.441
REMARK INTER:                 -11.132
REMARK INTRA:                  -1.309
REMARK UNBOUND:                -0.843
REMARK  Name = 
REMARK  9 active torsions:
REMARK  status: ('A' for Active; 'I' for Inactive)
REMARK    1  A    between atoms: N_1  and  C_2
REMARK    2  A    between atoms: C_2  and  C_3
REMARK    3  A    between atoms: C_3  and  N_4
REMARK    4  A    between atoms: C_3  and  C_26
REMARK    5  A    between atoms: N_4  and  C_5
REMARK    6  A    between atoms: C_5  and  C_6
REMARK    7  A    between atoms: C_9  and  C_10
REMARK    8  A    between atoms: C_10  and  N_11
REMARK    9  A    between atoms: C_12  and  C_14
REMARK                            x       y       z     vdW  Elec       q    Type
REMARK                         _______ _______ _______ _____ _____    ______ ____
ROOT
ATOM      1  C   UNL     1      47.040   4.952  14.277  0.00  0.00    +0.000 A 
ATOM      2  C   UNL     1      47.122   4.276  15.503  0.00  0.00    +0.000 A 
ATOM      3  C   UNL     1      47.916   4.772  16.540  0.00  0.00    +0.000 A 
ATOM      4  C   UNL     1      48.642   5.956  16.369  0.00  0.00    +0.000 A 
ATOM      5  C   UNL     1      48.588   6.614  15.133  0.00  0.00    +0.000 A 
ATOM      6  C   UNL     1      47.792   6.120  14.098  0.00  0.00    +0.000 A 
ENDROOT
BRANCH   1   7
ATOM      7  C   UNL     1      46.216   4.386  13.146  0.00  0.00    +0.000 C 
BRANCH   7   8
ATOM      8  N   UNL     1      45.078   5.244  12.824  0.00  0.00    +0.000 NA
ATOM      9  H   UNL     1      45.396   5.972  12.177  0.00  0.00    +0.000 HD
BRANCH   8  10
ATOM     10  C   UNL     1      43.968   4.529  12.146  0.00  0.00    +0.000 C 
BRANCH  10  11
ATOM     11  C   UNL     1      44.460   4.027  10.782  0.00  0.00    +0.000 A 
ATOM     12  C   UNL     1      44.191   2.734  10.328  0.00  0.00    +0.000 A 
ATOM     13  C   UNL     1      44.623   2.349   9.060  0.00  0.00    +0.000 A 
ATOM     14  C   UNL     1      45.295   3.264   8.264  0.00  0.00    +0.000 A 
ATOM     15  C   UNL     1      45.505   4.535   8.771  0.00  0.00    +0.000 A 
ATOM     16  N   UNL     1      45.101   4.939   9.996  0.00  0.00    +0.000 NA
ENDBRANCH  10  11
BRANCH  10  17
ATOM     17  C   UNL     1      42.661   5.383  12.074  0.00  0.00    +0.000 C 
BRANCH  17  18
ATOM     18  N   UNL     1      42.671   6.462  11.080  0.00  0.00    +0.000 NA
ATOM     19  H   UNL     1      42.500   7.349  11.550  0.00  0.00    +0.000 HD
ATOM     20  H   UNL     1      41.899   6.329  10.427  0.00  0.00    +0.000 HD
ENDBRANCH  17  18
ENDBRANCH  10  17
ENDBRANCH   8  10
ENDBRANCH   7   8
ENDBRANCH   1   7
BRANCH   4  21
ATOM     21  C   UNL     1      49.513   6.488  17.474  0.00  0.00    +0.000 C 
BRANCH  21  22
ATOM     22  N   UNL     1      50.458   5.492  17.909  0.00  0.00    +0.000 N 
ATOM     23  C   UNL     1      51.692   5.384  17.324  0.00  0.00    +0.000 C 
ATOM     24  O   UNL     1      52.059   6.150  16.437  0.00  0.00    +0.000 OA
ATOM     25  H   UNL     1      50.100   4.732  18.480  0.00  0.00    +0.000 HD
BRANCH  23  26
ATOM     26  C   UNL     1      52.580   4.343  17.852  0.00  0.00    +0.000 A 
ATOM     27  C   UNL     1      53.777   4.708  18.456  0.00  0.00    +0.000 A 
ATOM     28  S   UNL     1      54.673   3.387  19.053  0.00  0.00    +0.000 S 
ATOM     29  C   UNL     1      53.518   2.276  18.487  0.00  0.00    +0.000 A 
ATOM     30  N   UNL     1      53.695   0.939  18.655  0.00  0.00    +0.000 NA
ATOM     31  C   UNL     1      52.753   0.208  18.156  0.00  0.00    +0.000 A 
ATOM     32  N   UNL     1      51.648   0.697  17.509  0.00  0.00    +0.000 N 
ATOM     33  C   UNL     1      51.415   2.039  17.337  0.00  0.00    +0.000 A 
ATOM     34  O   UNL     1      50.396   2.440  16.785  0.00  0.00    +0.000 OA
ATOM     35  C   UNL     1      52.450   2.904  17.869  0.00  0.00    +0.000 A 
ATOM     36  H   UNL     1      50.940   0.073  17.150  0.00  0.00    +0.000 HD
ENDBRANCH  23  26
ENDBRANCH  21  22
ENDBRANCH   4  21
TORSDOF 9
ENDMDL
MODEL 5
REMARK VINA RESULT:    -7.520      2.820      8.284
REMARK INTER + INTRA:         -12.100
REMARK INTER:                 -10.419
REMARK INTRA:                  -1.681
REMARK UNBOUND:                -0.843
REMARK  Name = 
REMARK  9 active torsions:
REMARK  status: ('A' for Active; 'I' for Inactive)
REMARK    1  A    between atoms: N_1  and  C_2
REMARK    2  A    between atoms: C_2  and  C_3
REMARK    3  A    between atoms: C_3  and  N_4
REMARK    4  A    between atoms: C_3  and  C_26
REMARK    5  A    between atoms: N_4  and  C_5
REMARK    6  A    between atoms: C_5  and  C_6
REMARK    7  A    between atoms: C_9  and  C_10
REMARK    8  A    between atoms: C_10  and  N_11
REMARK    9  A    between atoms: C_12  and  C_14
REMARK                            x       y       z     vdW  Elec       q    Type
REMARK                         _______ _______ _______ _____ _____    ______ ____
ROOT
ATOM      1  C   UNL     1      48.922   7.660  16.207  0.00  0.00    +0.000 A 
ATOM      2  C   UNL     1      48.890   6.492  15.429  0.00  0.00    +0.000 A 
ATOM      3  C   UNL     1      48.378   6.513  14.131  0.00  0.00    +0.000 A 
ATOM      4  C   UNL     1      47.888   7.704  13.583  0.00  0.00    +0.000 A 
ATOM      5  C   UNL     1      47.888   8.863  14.370  0.00  0.00    +0.000 A 
ATOM      6  C   UNL     1      48.402   8.843  15.668  0.00  0.00    +0.000 A 
ENDROOT
BRANCH   1   7
ATOM      7  C   UNL     1      49.435   7.619  17.625  0.00  0.00    +0.000 C 
BRANCH   7   8
ATOM      8  N   UNL     1      48.609   6.765  18.476  0.00  0.00    +0.000 NA
ATOM      9  H   UNL     1      47.888   6.331  17.893  0.00  0.00    +0.000 HD
BRANCH   8  10
ATOM     10  C   UNL     1      49.362   5.657  19.114  0.00  0.00    +0.000 C 
BRANCH  10  11
ATOM     11  C   UNL     1      49.266   4.412  18.222  0.00  0.00    +0.000 A 
ATOM     12  C   UNL     1      50.391   3.660  17.876  0.00  0.00    +0.000 A 
ATOM     13  C   UNL     1      50.237   2.512  17.101  0.00  0.00    +0.000 A 
ATOM     14  C   UNL     1      48.965   2.126  16.704  0.00  0.00    +0.000 A 
ATOM     15  C   UNL     1      47.895   2.907  17.103  0.00  0.00    +0.000 A 
ATOM     16  N   UNL     1      48.011   4.027  17.853  0.00  0.00    +0.000 NA
ENDBRANCH  10  11
BRANCH  10  17
ATOM     17  C   UNL     1      48.926   5.411  20.595  0.00  0.00    +0.000 C 
BRANCH  17  18
ATOM     18  N   UNL     1      48.435   4.059  20.887  0.00  0.00    +0.000 NA
ATOM     19  H   UNL     1      47.681   3.832  20.241  0.00  0.00    +0.000 HD
ATOM     20  H   UNL     1      48.028   4.041  21.822  0.00  0.00    +0.000 HD
ENDBRANCH  17  18
ENDBRANCH  10  17
ENDBRANCH   8  10
ENDBRANCH   7   8
ENDBRANCH   1   7
BRANCH   4  21
ATOM     21  C   UNL     1      47.318   7.732  12.192  0.00  0.00    +0.000 C 
BRANCH  21  22
ATOM     22  N   UNL     1      46.685   6.480  11.870  0.00  0.00    +0.000 N 
ATOM     23  C   UNL     1      45.321   6.369  11.818  0.00  0.00    +0.000 C 
ATOM     24  O   UNL     1      44.584   7.334  12.003  0.00  0.00    +0.000 OA
ATOM     25  H   UNL     1      47.259   5.643  11.923  0.00  0.00    +0.000 HD
BRANCH  23  26
ATOM     26  C   UNL     1      44.781   5.050  11.469  0.00  0.00    +0.000 A 
ATOM     27  C   UNL     1      44.034   4.348  12.406  0.00  0.00    +0.000 A 
ATOM     28  S   UNL     1      43.444   2.856  11.833  0.00  0.00    +0.000 S 
ATOM     29  C   UNL     1      44.204   3.072  10.327  0.00  0.00    +0.000 A 
ATOM     30  N   UNL     1      44.115   2.123   9.358  0.00  0.00    +0.000 NA
ATOM     31  C   UNL     1      44.758   2.404   8.274  0.00  0.00    +0.000 A 
ATOM     32  N   UNL     1      45.477   3.553   8.070  0.00  0.00    +0.000 N 
ATOM     33  C   UNL     1      45.576   4.549   9.010  0.00  0.00    +0.000 A 
ATOM     34  O   UNL     1      46.198   5.580   8.778  0.00  0.00    +0.000 OA
ATOM     35  C   UNL     1      44.881   4.277  10.253  0.00  0.00    +0.000 A 
ATOM     36  H   UNL     1      45.950   3.720   7.193  0.00  0.00    +0.000 HD
ENDBRANCH  23  26
ENDBRANCH  21  22
ENDBRANCH   4  21
TORSDOF 9
ENDMDL
MODEL 6
REMARK VINA RESULT:    -7.480      2.989      7.814
REMARK INTER + INTRA:         -12.041
REMARK INTER:                 -10.358
REMARK INTRA:                  -1.683
REMARK UNBOUND:                -0.843
REMARK  Name = 
REMARK  9 active torsions:
REMARK  status: ('A' for Active; 'I' for Inactive)
REMARK    1  A    between atoms: N_1  and  C_2
REMARK    2  A    between atoms: C_2  and  C_3
REMARK    3  A    between atoms: C_3  and  N_4
REMARK    4  A    between atoms: C_3  and  C_26
REMARK    5  A    between atoms: N_4  and  C_5
REMARK    6  A    between atoms: C_5  and  C_6
REMARK    7  A    between atoms: C_9  and  C_10
REMARK    8  A    between atoms: C_10  and  N_11
REMARK    9  A    between atoms: C_12  and  C_14
REMARK                            x       y       z     vdW  Elec       q    Type
REMARK                         _______ _______ _______ _____ _____    ______ ____
ROOT
ATOM      1  C   UNL     1      48.713   7.880  16.221  0.00  0.00    +0.000 A 
ATOM      2  C   UNL     1      48.951   6.772  15.394  0.00  0.00    +0.000 A 
ATOM      3  C   UNL     1      48.815   6.873  14.008  0.00  0.00    +0.000 A 
ATOM      4  C   UNL     1      48.440   8.087  13.422  0.00  0.00    +0.000 A 
ATOM      5  C   UNL     1      48.170   9.186  14.248  0.00  0.00    +0.000 A 
ATOM      6  C   UNL     1      48.309   9.085  15.634  0.00  0.00    +0.000 A 
ENDROOT
BRANCH   1   7
ATOM      7  C   UNL     1      48.818   7.751  17.721  0.00  0.00    +0.000 C 
BRANCH   7   8
ATOM      8  N   UNL     1      47.985   6.664  18.230  0.00  0.00    +0.000 NA
ATOM      9  H   UNL     1      47.568   6.176  17.432  0.00  0.00    +0.000 HD
BRANCH   8  10
ATOM     10  C   UNL     1      48.740   5.646  19.001  0.00  0.00    +0.000 C 
BRANCH  10  11
ATOM     11  C   UNL     1      48.863   4.371  18.156  0.00  0.00    +0.000 A 
ATOM     12  C   UNL     1      47.821   3.918  17.344  0.00  0.00    +0.000 A 
ATOM     13  C   UNL     1      48.006   2.779  16.562  0.00  0.00    +0.000 A 
ATOM     14  C   UNL     1      49.231   2.127  16.591  0.00  0.00    +0.000 A 
ATOM     15  C   UNL     1      50.225   2.647  17.401  0.00  0.00    +0.000 A 
ATOM     16  N   UNL     1      50.076   3.748  18.172  0.00  0.00    +0.000 NA
ENDBRANCH  10  11
BRANCH  10  17
ATOM     17  C   UNL     1      48.144   5.408  20.426  0.00  0.00    +0.000 C 
BRANCH  17  18
ATOM     18  N   UNL     1      48.411   4.085  21.003  0.00  0.00    +0.000 NA
ATOM     19  H   UNL     1      48.910   3.519  20.320  0.00  0.00    +0.000 HD
ATOM     20  H   UNL     1      47.527   3.609  21.181  0.00  0.00    +0.000 HD
ENDBRANCH  17  18
ENDBRANCH  10  17
ENDBRANCH   8  10
ENDBRANCH   7   8
ENDBRANCH   1   7
BRANCH   4  21
ATOM     21  C   UNL     1      48.275   8.200  11.931  0.00  0.00    +0.000 C 
BRANCH  21  22
ATOM     22  N   UNL     1      47.590   7.051  11.401  0.00  0.00    +0.000 N 
ATOM     23  C   UNL     1      46.222   6.994  11.368  0.00  0.00    +0.000 C 
ATOM     24  O   UNL     1      45.524   7.930  11.751  0.00  0.00    +0.000 OA
ATOM     25  H   UNL     1      48.135   6.201  11.281  0.00  0.00    +0.000 HD
BRANCH  23  26
ATOM     26  C   UNL     1      45.627   5.781  10.796  0.00  0.00    +0.000 A 
ATOM     27  C   UNL     1      45.799   5.508   9.445  0.00  0.00    +0.000 A 
ATOM     28  S   UNL     1      45.084   4.044   8.946  0.00  0.00    +0.000 S 
ATOM     29  C   UNL     1      44.480   3.743  10.507  0.00  0.00    +0.000 A 
ATOM     30  N   UNL     1      43.735   2.636  10.765  0.00  0.00    +0.000 NA
ATOM     31  C   UNL     1      43.320   2.544  11.985  0.00  0.00    +0.000 A 
ATOM     32  N   UNL     1      43.588   3.458  12.970  0.00  0.00    +0.000 N 
ATOM     33  C   UNL     1      44.355   4.578  12.762  0.00  0.00    +0.000 A 
ATOM     34  O   UNL     1      44.604   5.355  13.678  0.00  0.00    +0.000 OA
ATOM     35  C   UNL     1      44.837   4.736  11.403  0.00  0.00    +0.000 A 
ATOM     36  H   UNL     1      43.243   3.323  13.910  0.00  0.00    +0.000 HD
ENDBRANCH  23  26
ENDBRANCH  21  22
ENDBRANCH   4  21
TORSDOF 9
ENDMDL
MODEL 7
REMARK VINA RESULT:    -7.249      1.797      2.130
REMARK INTER + INTRA:         -11.694
REMARK INTER:                 -10.645
REMARK INTRA:                  -1.049
REMARK UNBOUND:                -0.843
REMARK  Name = 
REMARK  9 active torsions:
REMARK  status: ('A' for Active; 'I' for Inactive)
REMARK    1  A    between atoms: N_1  and  C_2
REMARK    2  A    between atoms: C_2  and  C_3
REMARK    3  A    between atoms: C_3  and  N_4
REMARK    4  A    between atoms: C_3  and  C_26
REMARK    5  A    between atoms: N_4  and  C_5
REMARK    6  A    between atoms: C_5  and  C_6
REMARK    7  A    between atoms: C_9  and  C_10
REMARK    8  A    between atoms: C_10  and  N_11
REMARK    9  A    between atoms: C_12  and  C_14
REMARK                            x       y       z     vdW  Elec       q    Type
REMARK                         _______ _______ _______ _____ _____    ______ ____
ROOT
ATOM      1  C   UNL     1      45.604   7.221  12.085  0.00  0.00    +0.000 A 
ATOM      2  C   UNL     1      46.616   6.265  12.259  0.00  0.00    +0.000 A 
ATOM      3  C   UNL     1      47.942   6.657  12.453  0.00  0.00    +0.000 A 
ATOM      4  C   UNL     1      48.281   8.014  12.478  0.00  0.00    +0.000 A 
ATOM      5  C   UNL     1      47.277   8.969  12.270  0.00  0.00    +0.000 A 
ATOM      6  C   UNL     1      45.951   8.577  12.079  0.00  0.00    +0.000 A 
ENDROOT
BRANCH   1   7
ATOM      7  C   UNL     1      44.180   6.789  11.830  0.00  0.00    +0.000 C 
BRANCH   7   8
ATOM      8  N   UNL     1      44.084   5.894  10.679  0.00  0.00    +0.000 NA
ATOM      9  H   UNL     1      44.738   6.219   9.962  0.00  0.00    +0.000 HD
BRANCH   8  10
ATOM     10  C   UNL     1      44.455   4.490  10.985  0.00  0.00    +0.000 C 
BRANCH  10  11
ATOM     11  C   UNL     1      45.071   3.854   9.732  0.00  0.00    +0.000 A 
ATOM     12  C   UNL     1      45.698   4.618   8.745  0.00  0.00    +0.000 A 
ATOM     13  C   UNL     1      46.280   3.980   7.651  0.00  0.00    +0.000 A 
ATOM     14  C   UNL     1      46.243   2.596   7.572  0.00  0.00    +0.000 A 
ATOM     15  C   UNL     1      45.625   1.903   8.598  0.00  0.00    +0.000 A 
ATOM     16  N   UNL     1      45.049   2.492   9.671  0.00  0.00    +0.000 NA
ENDBRANCH  10  11
BRANCH  10  17
ATOM     17  C   UNL     1      43.269   3.674  11.593  0.00  0.00    +0.000 C 
BRANCH  17  18
ATOM     18  N   UNL     1      43.653   2.471  12.339  0.00  0.00    +0.000 NA
ATOM     19  H   UNL     1      42.844   2.122  12.849  0.00  0.00    +0.000 HD
ATOM     20  H   UNL     1      44.351   2.717  13.041  0.00  0.00    +0.000 HD
ENDBRANCH  17  18
ENDBRANCH  10  17
ENDBRANCH   8  10
ENDBRANCH   7   8
ENDBRANCH   1   7
BRANCH   4  21
ATOM     21  C   UNL     1      49.710   8.445  12.668  0.00  0.00    +0.000 C 
BRANCH  21  22
ATOM     22  N   UNL     1      50.378   7.601  13.624  0.00  0.00    +0.000 N 
ATOM     23  C   UNL     1      50.396   7.918  14.957  0.00  0.00    +0.000 C 
ATOM     24  O   UNL     1      49.814   8.906  15.397  0.00  0.00    +0.000 OA
ATOM     25  H   UNL     1      51.030   6.913  13.259  0.00  0.00    +0.000 HD
BRANCH  23  26
ATOM     26  C   UNL     1      51.096   6.984  15.846  0.00  0.00    +0.000 A 
ATOM     27  C   UNL     1      52.468   7.108  16.022  0.00  0.00    +0.000 A 
ATOM     28  S   UNL     1      53.122   5.975  17.116  0.00  0.00    +0.000 S 
ATOM     29  C   UNL     1      51.604   5.249  17.357  0.00  0.00    +0.000 A 
ATOM     30  N   UNL     1      51.466   4.177  18.181  0.00  0.00    +0.000 NA
ATOM     31  C   UNL     1      50.264   3.710  18.255  0.00  0.00    +0.000 A 
ATOM     32  N   UNL     1      49.186   4.224  17.582  0.00  0.00    +0.000 N 
ATOM     33  C   UNL     1      49.272   5.319  16.758  0.00  0.00    +0.000 A 
ATOM     34  O   UNL     1      48.278   5.773  16.201  0.00  0.00    +0.000 OA
ATOM     35  C   UNL     1      50.605   5.876  16.631  0.00  0.00    +0.000 A 
ATOM     36  H   UNL     1      48.267   3.819  17.690  0.00  0.00    +0.000 HD
ENDBRANCH  23  26
ENDBRANCH  21  22
ENDBRANCH   4  21
TORSDOF 9
ENDMDL
MODEL 8
REMARK VINA RESULT:    -7.171      3.149      7.897
REMARK INTER + INTRA:         -11.577
REMARK INTER:                  -9.490
REMARK INTRA:                  -2.088
REMARK UNBOUND:                -0.843
REMARK  Name = 
REMARK  9 active torsions:
REMARK  status: ('A' for Active; 'I' for Inactive)
REMARK    1  A    between atoms: N_1  and  C_2
REMARK    2  A    between atoms: C_2  and  C_3
REMARK    3  A    between atoms: C_3  and  N_4
REMARK    4  A    between atoms: C_3  and  C_26
REMARK    5  A    between atoms: N_4  and  C_5
REMARK    6  A    between atoms: C_5  and  C_6
REMARK    7  A    between atoms: C_9  and  C_10
REMARK    8  A    between atoms: C_10  and  N_11
REMARK    9  A    between atoms: C_12  and  C_14
REMARK                            x       y       z     vdW  Elec       q    Type
REMARK                         _______ _______ _______ _____ _____    ______ ____
ROOT
ATOM      1  C   UNL     1      51.742   6.055  17.619  0.00  0.00    +0.000 A 
ATOM      2  C   UNL     1      50.731   6.585  18.434  0.00  0.00    +0.000 A 
ATOM      3  C   UNL     1      49.791   7.477  17.915  0.00  0.00    +0.000 A 
ATOM      4  C   UNL     1      49.844   7.857  16.569  0.00  0.00    +0.000 A 
ATOM      5  C   UNL     1      50.874   7.354  15.762  0.00  0.00    +0.000 A 
ATOM      6  C   UNL     1      51.812   6.460  16.280  0.00  0.00    +0.000 A 
ENDROOT
BRANCH   1   7
ATOM      7  C   UNL     1      52.782   5.126  18.197  0.00  0.00    +0.000 C 
BRANCH   7   8
ATOM      8  N   UNL     1      52.186   3.884  18.684  0.00  0.00    +0.000 NA
ATOM      9  H   UNL     1      51.325   4.114  19.187  0.00  0.00    +0.000 HD
BRANCH   8  10
ATOM     10  C   UNL     1      51.806   2.943  17.602  0.00  0.00    +0.000 C 
BRANCH  10  11
ATOM     11  C   UNL     1      50.276   2.884  17.509  0.00  0.00    +0.000 A 
ATOM     12  C   UNL     1      49.452   3.550  18.420  0.00  0.00    +0.000 A 
ATOM     13  C   UNL     1      48.068   3.498  18.258  0.00  0.00    +0.000 A 
ATOM     14  C   UNL     1      47.536   2.801  17.183  0.00  0.00    +0.000 A 
ATOM     15  C   UNL     1      48.413   2.185  16.308  0.00  0.00    +0.000 A 
ATOM     16  N   UNL     1      49.759   2.215  16.439  0.00  0.00    +0.000 NA
ENDBRANCH  10  11
BRANCH  10  17
ATOM     17  C   UNL     1      52.486   1.544  17.756  0.00  0.00    +0.000 C 
BRANCH  17  18
ATOM     18  N   UNL     1      51.579   0.440  18.086  0.00  0.00    +0.000 NA
ATOM     19  H   UNL     1      51.688  -0.299  17.393  0.00  0.00    +0.000 HD
ATOM     20  H   UNL     1      50.614   0.761  18.013  0.00  0.00    +0.000 HD
ENDBRANCH  17  18
ENDBRANCH  10  17
ENDBRANCH   8  10
ENDBRANCH   7   8
ENDBRANCH   1   7
BRANCH   4  21
ATOM     21  C   UNL     1      48.846   8.831  16.006  0.00  0.00    +0.000 C 
BRANCH  21  22
ATOM     22  N   UNL     1      47.866   8.154  15.198  0.00  0.00    +0.000 N 
ATOM     23  C   UNL     1      47.803   8.355  13.845  0.00  0.00    +0.000 C 
ATOM     24  O   UNL     1      48.599   9.084  13.259  0.00  0.00    +0.000 OA
ATOM     25  H   UNL     1      47.083   7.724  15.683  0.00  0.00    +0.000 HD
BRANCH  23  26
ATOM     26  C   UNL     1      46.773   7.606  13.116  0.00  0.00    +0.000 A 
ATOM     27  C   UNL     1      45.901   8.287  12.276  0.00  0.00    +0.000 A 
ATOM     28  S   UNL     1      44.793   7.271  11.472  0.00  0.00    +0.000 S 
ATOM     29  C   UNL     1      45.409   5.891  12.251  0.00  0.00    +0.000 A 
ATOM     30  N   UNL     1      44.874   4.662  12.021  0.00  0.00    +0.000 NA
ATOM     31  C   UNL     1      45.420   3.707  12.697  0.00  0.00    +0.000 A 
ATOM     32  N   UNL     1      46.458   3.869  13.577  0.00  0.00    +0.000 N 
ATOM     33  C   UNL     1      47.046   5.086  13.823  0.00  0.00    +0.000 A 
ATOM     34  O   UNL     1      47.998   5.186  14.590  0.00  0.00    +0.000 OA
ATOM     35  C   UNL     1      46.460   6.197  13.098  0.00  0.00    +0.000 A 
ATOM     36  H   UNL     1      46.850   3.078  14.068  0.00  0.00    +0.000 HD
ENDBRANCH  23  26
ENDBRANCH  21  22
ENDBRANCH   4  21
TORSDOF 9
ENDMDL
MODEL 9
REMARK VINA RESULT:    -7.074      4.713      9.760
REMARK INTER + INTRA:         -11.433
REMARK INTER:                 -10.320
REMARK INTRA:                  -1.113
REMARK UNBOUND:                -0.843
REMARK  Name = 
REMARK  9 active torsions:
REMARK  status: ('A' for Active; 'I' for Inactive)
REMARK    1  A    between atoms: N_1  and  C_2
REMARK    2  A    between atoms: C_2  and  C_3
REMARK    3  A    between atoms: C_3  and  N_4
REMARK    4  A    between atoms: C_3  and  C_26
REMARK    5  A    between atoms: N_4  and  C_5
REMARK    6  A    between atoms: C_5  and  C_6
REMARK    7  A    between atoms: C_9  and  C_10
REMARK    8  A    between atoms: C_10  and  N_11
REMARK    9  A    between atoms: C_12  and  C_14
REMARK                            x       y       z     vdW  Elec       q    Type
REMARK                         _______ _______ _______ _____ _____    ______ ____
ROOT
ATOM      1  C   UNL     1      51.328   3.244  17.728  0.00  0.00    +0.000 A 
ATOM      2  C   UNL     1      50.606   4.426  17.947  0.00  0.00    +0.000 A 
ATOM      3  C   UNL     1      49.236   4.486  17.680  0.00  0.00    +0.000 A 
ATOM      4  C   UNL     1      48.562   3.362  17.190  0.00  0.00    +0.000 A 
ATOM      5  C   UNL     1      49.289   2.190  16.940  0.00  0.00    +0.000 A 
ATOM      6  C   UNL     1      50.657   2.129  17.210  0.00  0.00    +0.000 A 
ENDROOT
BRANCH   1   7
ATOM      7  C   UNL     1      52.816   3.201  17.976  0.00  0.00    +0.000 C 
BRANCH   7   8
ATOM      8  N   UNL     1      53.200   2.031  18.763  0.00  0.00    +0.000 NA
ATOM      9  H   UNL     1      52.633   1.235  18.456  0.00  0.00    +0.000 HD
BRANCH   8  10
ATOM     10  C   UNL     1      54.619   1.634  18.584  0.00  0.00    +0.000 C 
BRANCH  10  11
ATOM     11  C   UNL     1      54.671   0.189  18.072  0.00  0.00    +0.000 A 
ATOM     12  C   UNL     1      54.847  -0.112  16.719  0.00  0.00    +0.000 A 
ATOM     13  C   UNL     1      54.932  -1.444  16.318  0.00  0.00    +0.000 A 
ATOM     14  C   UNL     1      54.861  -2.447  17.273  0.00  0.00    +0.000 A 
ATOM     15  C   UNL     1      54.710  -2.074  18.597  0.00  0.00    +0.000 A 
ATOM     16  N   UNL     1      54.621  -0.791  19.018  0.00  0.00    +0.000 NA
ENDBRANCH  10  11
BRANCH  10  17
ATOM     17  C   UNL     1      55.477   1.883  19.867  0.00  0.00    +0.000 C 
BRANCH  17  18
ATOM     18  N   UNL     1      54.766   1.713  21.139  0.00  0.00    +0.000 NA
ATOM     19  H   UNL     1      54.359   0.780  21.170  0.00  0.00    +0.000 HD
ATOM     20  H   UNL     1      53.986   2.369  21.181  0.00  0.00    +0.000 HD
ENDBRANCH  17  18
ENDBRANCH  10  17
ENDBRANCH   8  10
ENDBRANCH   7   8
ENDBRANCH   1   7
BRANCH   4  21
ATOM     21  C   UNL     1      47.091   3.422  16.884  0.00  0.00    +0.000 C 
BRANCH  21  22
ATOM     22  N   UNL     1      46.812   4.432  15.897  0.00  0.00    +0.000 N 
ATOM     23  C   UNL     1      46.922   4.164  14.558  0.00  0.00    +0.000 C 
ATOM     24  O   UNL     1      47.222   3.048  14.142  0.00  0.00    +0.000 OA
ATOM     25  H   UNL     1      46.773   5.395  16.219  0.00  0.00    +0.000 HD
BRANCH  23  26
ATOM     26  C   UNL     1      46.603   5.262  13.639  0.00  0.00    +0.000 A 
ATOM     27  C   UNL     1      47.562   6.231  13.375  0.00  0.00    +0.000 A 
ATOM     28  S   UNL     1      47.052   7.412  12.257  0.00  0.00    +0.000 S 
ATOM     29  C   UNL     1      45.515   6.698  12.120  0.00  0.00    +0.000 A 
ATOM     30  N   UNL     1      44.561   7.243  11.320  0.00  0.00    +0.000 NA
ATOM     31  C   UNL     1      43.433   6.613  11.328  0.00  0.00    +0.000 A 
ATOM     32  N   UNL     1      43.177   5.483  12.061  0.00  0.00    +0.000 N 
ATOM     33  C   UNL     1      44.116   4.884  12.864  0.00  0.00    +0.000 A 
ATOM     34  O   UNL     1      43.861   3.853  13.477  0.00  0.00    +0.000 OA
ATOM     35  C   UNL     1      45.399   5.560  12.900  0.00  0.00    +0.000 A 
ATOM     36  H   UNL     1      42.275   5.030  12.016  0.00  0.00    +0.000 HD
ENDBRANCH  23  26
ENDBRANCH  21  22
ENDBRANCH   4  21
TORSDOF 9
ENDMDL
