MODEL 1
REMARK VINA RESULT:    -8.461      0.000      0.000
REMARK INTER + INTRA:         -13.247
REMARK INTER:                 -11.923
REMARK INTRA:                  -1.324
REMARK UNBOUND:                -1.324
REMARK  Name = 
REMARK  7 active torsions:
REMARK  status: ('A' for Active; 'I' for Inactive)
REMARK    1  A    between atoms: C_2  and  C_20
REMARK    2  A    between atoms: N_3  and  C_4
REMARK    3  A    between atoms: C_4  and  C_5
REMARK    4  A    between atoms: C_8  and  C_9
REMARK    5  A    between atoms: C_9  and  N_10
REMARK    6  A    between atoms: N_10  and  C_11
REMARK    7  A    between atoms: C_11  and  C_12
REMARK                            x       y       z     vdW  Elec       q    Type
REMARK                         _______ _______ _______ _____ _____    ______ ____
ROOT
ATOM      1  C   UNL     1      47.094   7.454  13.189  0.00  0.00    +0.000 C 
ENDROOT
BRANCH   1   2
ATOM      2  C   UNL     1      46.564   6.221  12.456  0.00  0.00    +0.000 C 
ATOM      3  C   UNL     1      45.936   6.610  11.109  0.00  0.00    +0.000 C 
ATOM      4  C   UNL     1      45.365   5.395  10.383  0.00  0.00    +0.000 C 
ATOM      5  C   UNL     1      44.346   4.643  11.253  0.00  0.00    +0.000 C 
ATOM      6  C   UNL     1      44.960   4.280  12.616  0.00  0.00    +0.000 C 
ATOM      7  C   UNL     1      45.542   5.493  13.330  0.00  0.00    +0.000 C 
BRANCH   5   8
ATOM      8  C   UNL     1      43.829   3.382  10.530  0.00  0.00    +0.000 C 
BRANCH   8   9
ATOM      9  N   UNL     1      44.934   2.452  10.310  0.00  0.00    +0.000 NA
ATOM     10  H   UNL     1      45.030   1.829  11.111  0.00  0.00    +0.000 HD
BRANCH   9  11
ATOM     11  C   UNL     1      44.775   1.660   9.096  0.00  0.00    +0.000 C 
BRANCH  11  12
ATOM     12  C   UNL     1      45.873   1.973   8.114  0.00  0.00    +0.000 A 
ATOM     13  C   UNL     1      45.975   3.230   7.509  0.00  0.00    +0.000 A 
ATOM     14  C   UNL     1      47.008   3.487   6.612  0.00  0.00    +0.000 A 
ATOM     15  C   UNL     1      47.908   2.471   6.341  0.00  0.00    +0.000 A 
ATOM     16  N   UNL     1      47.844   1.243   6.901  0.00  0.00    +0.000 NA
ATOM     17  C   UNL     1      46.833   1.025   7.772  0.00  0.00    +0.000 A 
ENDBRANCH  11  12
ENDBRANCH   9  11
ENDBRANCH   8   9
ENDBRANCH   5   8
ENDBRANCH   1   2
BRANCH   1  20
ATOM     18  O   UNL     1      49.740   7.003  14.095  0.00  0.00    +0.000 OA
ATOM     19  C   UNL     1      48.798   6.862  14.874  0.00  0.00    +0.000 C 
ATOM     20  N   UNL     1      47.499   7.115  14.528  0.00  0.00    +0.000 N 
ATOM     21  H   UNL     1      46.762   7.007  15.212  0.00  0.00    +0.000 HD
BRANCH  19  22
ATOM     22  C   UNL     1      49.000   6.463  16.261  0.00  0.00    +0.000 A 
ATOM     23  C   UNL     1      49.614   7.306  17.179  0.00  0.00    +0.000 A 
ATOM     24  S   UNL     1      49.682   6.649  18.752  0.00  0.00    +0.000 S 
ATOM     25  C   UNL     1      48.931   5.203  18.246  0.00  0.00    +0.000 A 
ATOM     26  N   UNL     1      48.662   4.198  19.113  0.00  0.00    +0.000 NA
ATOM     27  C   UNL     1      48.080   3.174  18.581  0.00  0.00    +0.000 A 
ATOM     28  N   UNL     1      47.757   3.058  17.254  0.00  0.00    +0.000 N 
ATOM     29  C   UNL     1      48.065   4.020  16.329  0.00  0.00    +0.000 A 
ATOM     30  O   UNL     1      47.816   3.844  15.142  0.00  0.00    +0.000 OA
ATOM     31  C   UNL     1      48.653   5.219  16.889  0.00  0.00    +0.000 A 
ATOM     32  H   UNL     1      47.319   2.226  16.889  0.00  0.00    +0.000 HD
ENDBRANCH  19  22
ENDBRANCH   1  20
TORSDOF 7
ENDMDL
MODEL 2
REMARK VINA RESULT:    -7.952      1.763      2.366
REMARK INTER + INTRA:         -12.530
REMARK INTER:                 -11.349
REMARK INTRA:                  -1.180
REMARK UNBOUND:                -1.324
REMARK  Name = 
REMARK  7 active torsions:
REMARK  status: ('A' for Active; 'I' for Inactive)
REMARK    1  A    between atoms: C_2  and  C_20
REMARK    2  A    between atoms: N_3  and  C_4
REMARK    3  A    between atoms: C_4  and  C_5
REMARK    4  A    between atoms: C_8  and  C_9
REMARK    5  A    between atoms: C_9  and  N_10
REMARK    6  A    between atoms: N_10  and  C_11
REMARK    7  A    between atoms: C_11  and  C_12
REMARK                            x       y       z     vdW  Elec       q    Type
REMARK                         _______ _______ _______ _____ _____    ______ ____
ROOT
ATOM      1  C   UNL     1      47.939   7.246  13.481  0.00  0.00    +0.000 C 
ENDROOT
BRANCH   1   2
ATOM      2  C   UNL     1      47.238   6.149  12.679  0.00  0.00    +0.000 C 
ATOM      3  C   UNL     1      46.339   6.754  11.589  0.00  0.00    +0.000 C 
ATOM      4  C   UNL     1      45.601   5.672  10.805  0.00  0.00    +0.000 C 
ATOM      5  C   UNL     1      44.782   4.760  11.732  0.00  0.00    +0.000 C 
ATOM      6  C   UNL     1      45.673   4.178  12.844  0.00  0.00    +0.000 C 
ATOM      7  C   UNL     1      46.418   5.260  13.614  0.00  0.00    +0.000 C 
BRANCH   5   8
ATOM      8  C   UNL     1      44.096   3.634  10.931  0.00  0.00    +0.000 C 
BRANCH   8   9
ATOM      9  N   UNL     1      45.099   2.675  10.473  0.00  0.00    +0.000 NA
ATOM     10  H   UNL     1      45.243   1.955  11.180  0.00  0.00    +0.000 HD
BRANCH   9  11
ATOM     11  C   UNL     1      44.742   2.046   9.206  0.00  0.00    +0.000 C 
BRANCH  11  12
ATOM     12  C   UNL     1      45.869   2.178   8.216  0.00  0.00    +0.000 A 
ATOM     13  C   UNL     1      46.152   3.397   7.590  0.00  0.00    +0.000 A 
ATOM     14  C   UNL     1      47.205   3.486   6.685  0.00  0.00    +0.000 A 
ATOM     15  C   UNL     1      47.944   2.344   6.427  0.00  0.00    +0.000 A 
ATOM     16  N   UNL     1      47.703   1.148   7.006  0.00  0.00    +0.000 NA
ATOM     17  C   UNL     1      46.676   1.094   7.885  0.00  0.00    +0.000 A 
ENDBRANCH  11  12
ENDBRANCH   9  11
ENDBRANCH   8   9
ENDBRANCH   5   8
ENDBRANCH   1   2
BRANCH   1  20
ATOM     18  O   UNL     1      50.180   6.726  15.133  0.00  0.00    +0.000 OA
ATOM     19  C   UNL     1      49.047   6.649  15.605  0.00  0.00    +0.000 C 
ATOM     20  N   UNL     1      47.919   6.940  14.888  0.00  0.00    +0.000 N 
ATOM     21  H   UNL     1      47.009   6.884  15.327  0.00  0.00    +0.000 HD
BRANCH  19  22
ATOM     22  C   UNL     1      48.816   6.293  16.999  0.00  0.00    +0.000 A 
ATOM     23  C   UNL     1      49.010   4.998  17.462  0.00  0.00    +0.000 A 
ATOM     24  S   UNL     1      48.737   4.837  19.139  0.00  0.00    +0.000 S 
ATOM     25  C   UNL     1      48.313   6.483  19.289  0.00  0.00    +0.000 A 
ATOM     26  N   UNL     1      47.983   7.027  20.484  0.00  0.00    +0.000 NA
ATOM     27  C   UNL     1      47.698   8.287  20.437  0.00  0.00    +0.000 A 
ATOM     28  N   UNL     1      47.698   9.049  19.298  0.00  0.00    +0.000 N 
ATOM     29  C   UNL     1      47.964   8.530  18.059  0.00  0.00    +0.000 A 
ATOM     30  O   UNL     1      47.888   9.234  17.059  0.00  0.00    +0.000 OA
ATOM     31  C   UNL     1      48.360   7.136  18.069  0.00  0.00    +0.000 A 
ATOM     32  H   UNL     1      47.450  10.026  19.317  0.00  0.00    +0.000 HD
ENDBRANCH  19  22
ENDBRANCH   1  20
TORSDOF 7
ENDMDL
MODEL 3
REMARK VINA RESULT:    -7.615      1.917      3.430
REMARK INTER + INTRA:         -12.054
REMARK INTER:                 -10.827
REMARK INTRA:                  -1.227
REMARK UNBOUND:                -1.324
REMARK  Name = 
REMARK  7 active torsions:
REMARK  status: ('A' for Active; 'I' for Inactive)
REMARK    1  A    between atoms: C_2  and  C_20
REMARK    2  A    between atoms: N_3  and  C_4
REMARK    3  A    between atoms: C_4  and  C_5
REMARK    4  A    between atoms: C_8  and  C_9
REMARK    5  A    between atoms: C_9  and  N_10
REMARK    6  A    between atoms: N_10  and  C_11
REMARK    7  A    between atoms: C_11  and  C_12
REMARK                            x       y       z     vdW  Elec       q    Type
REMARK                         _______ _______ _______ _____ _____    ______ ____
ROOT
ATOM      1  C   UNL     1      47.284   4.274  14.899  0.00  0.00    +0.000 C 
ENDROOT
BRANCH   1   2
ATOM      2  C   UNL     1      46.101   4.429  13.943  0.00  0.00    +0.000 C 
ATOM      3  C   UNL     1      46.013   3.236  12.979  0.00  0.00    +0.000 C 
ATOM      4  C   UNL     1      44.861   3.396  11.990  0.00  0.00    +0.000 C 
ATOM      5  C   UNL     1      44.966   4.713  11.206  0.00  0.00    +0.000 C 
ATOM      6  C   UNL     1      45.087   5.908  12.168  0.00  0.00    +0.000 C 
ATOM      7  C   UNL     1      46.228   5.737  13.162  0.00  0.00    +0.000 C 
BRANCH   5   8
ATOM      8  C   UNL     1      43.760   4.889  10.260  0.00  0.00    +0.000 C 
BRANCH   8   9
ATOM      9  N   UNL     1      44.059   4.285   8.964  0.00  0.00    +0.000 NA
ATOM     10  H   UNL     1      43.423   4.646   8.255  0.00  0.00    +0.000 HD
BRANCH   9  11
ATOM     11  C   UNL     1      45.436   4.509   8.539  0.00  0.00    +0.000 C 
BRANCH  11  12
ATOM     12  C   UNL     1      46.046   3.231   8.026  0.00  0.00    +0.000 A 
ATOM     13  C   UNL     1      46.952   3.232   6.960  0.00  0.00    +0.000 A 
ATOM     14  C   UNL     1      47.502   2.034   6.515  0.00  0.00    +0.000 A 
ATOM     15  C   UNL     1      47.122   0.863   7.150  0.00  0.00    +0.000 A 
ATOM     16  N   UNL     1      46.250   0.818   8.180  0.00  0.00    +0.000 NA
ATOM     17  C   UNL     1      45.735   1.999   8.593  0.00  0.00    +0.000 A 
ENDBRANCH  11  12
ENDBRANCH   9  11
ENDBRANCH   8   9
ENDBRANCH   5   8
ENDBRANCH   1   2
BRANCH   1  20
ATOM     18  O   UNL     1      49.472   4.839  16.607  0.00  0.00    +0.000 OA
ATOM     19  C   UNL     1      48.579   5.673  16.468  0.00  0.00    +0.000 C 
ATOM     20  N   UNL     1      47.520   5.498  15.620  0.00  0.00    +0.000 N 
ATOM     21  H   UNL     1      46.822   6.224  15.522  0.00  0.00    +0.000 HD
BRANCH  19  22
ATOM     22  C   UNL     1      48.607   6.954  17.162  0.00  0.00    +0.000 A 
ATOM     23  C   UNL     1      48.464   7.040  18.540  0.00  0.00    +0.000 A 
ATOM     24  S   UNL     1      48.593   8.636  19.131  0.00  0.00    +0.000 S 
ATOM     25  C   UNL     1      48.805   9.264  17.559  0.00  0.00    +0.000 A 
ATOM     26  N   UNL     1      48.997  10.587  17.340  0.00  0.00    +0.000 NA
ATOM     27  C   UNL     1      49.154  10.906  16.097  0.00  0.00    +0.000 A 
ATOM     28  N   UNL     1      49.119  10.022  15.051  0.00  0.00    +0.000 N 
ATOM     29  C   UNL     1      48.865   8.687  15.216  0.00  0.00    +0.000 A 
ATOM     30  O   UNL     1      48.778   7.945  14.245  0.00  0.00    +0.000 OA
ATOM     31  C   UNL     1      48.755   8.268  16.599  0.00  0.00    +0.000 A 
ATOM     32  H   UNL     1      49.229  10.330  14.097  0.00  0.00    +0.000 HD
ENDBRANCH  19  22
ENDBRANCH   1  20
TORSDOF 7
ENDMDL
MODEL 4
REMARK VINA RESULT:    -7.509      2.201      3.909
REMARK INTER + INTRA:         -11.905
REMARK INTER:                 -10.660
REMARK INTRA:                  -1.246
REMARK UNBOUND:                -1.324
REMARK  Name = 
REMARK  7 active torsions:
REMARK  status: ('A' for Active; 'I' for Inactive)
REMARK    1  A    between atoms: C_2  and  C_20
REMARK    2  A    between atoms: N_3  and  C_4
REMARK    3  A    between atoms: C_4  and  C_5
REMARK    4  A    between atoms: C_8  and  C_9
REMARK    5  A    between atoms: C_9  and  N_10
REMARK    6  A    between atoms: N_10  and  C_11
REMARK    7  A    between atoms: C_11  and  C_12
REMARK                            x       y       z     vdW  Elec       q    Type
REMARK                         _______ _______ _______ _____ _____    ______ ____
ROOT
ATOM      1  C   UNL     1      47.235   4.683  14.919  0.00  0.00    +0.000 C 
ENDROOT
BRANCH   1   2
ATOM      2  C   UNL     1      46.011   4.579  14.009  0.00  0.00    +0.000 C 
ATOM      3  C   UNL     1      46.165   3.423  13.009  0.00  0.00    +0.000 C 
ATOM      4  C   UNL     1      44.968   3.332  12.066  0.00  0.00    +0.000 C 
ATOM      5  C   UNL     1      44.729   4.655  11.323  0.00  0.00    +0.000 C 
ATOM      6  C   UNL     1      44.607   5.822  12.320  0.00  0.00    +0.000 C 
ATOM      7  C   UNL     1      45.796   5.899  13.268  0.00  0.00    +0.000 C 
BRANCH   5   8
ATOM      8  C   UNL     1      43.478   4.566  10.425  0.00  0.00    +0.000 C 
BRANCH   8   9
ATOM      9  N   UNL     1      43.806   3.853   9.193  0.00  0.00    +0.000 NA
ATOM     10  H   UNL     1      43.040   3.937   8.526  0.00  0.00    +0.000 HD
BRANCH   9  11
ATOM     11  C   UNL     1      45.040   4.326   8.577  0.00  0.00    +0.000 C 
BRANCH  11  12
ATOM     12  C   UNL     1      45.842   3.167   8.044  0.00  0.00    +0.000 A 
ATOM     13  C   UNL     1      46.783   3.340   7.023  0.00  0.00    +0.000 A 
ATOM     14  C   UNL     1      47.512   2.250   6.559  0.00  0.00    +0.000 A 
ATOM     15  C   UNL     1      47.272   1.011   7.128  0.00  0.00    +0.000 A 
ATOM     16  N   UNL     1      46.371   0.800   8.113  0.00  0.00    +0.000 NA
ATOM     17  C   UNL     1      45.681   1.880   8.547  0.00  0.00    +0.000 A 
ENDBRANCH  11  12
ENDBRANCH   9  11
ENDBRANCH   8   9
ENDBRANCH   5   8
ENDBRANCH   1   2
BRANCH   1  20
ATOM     18  O   UNL     1      49.478   5.629  16.366  0.00  0.00    +0.000 OA
ATOM     19  C   UNL     1      48.872   6.393  15.616  0.00  0.00    +0.000 C 
ATOM     20  N   UNL     1      47.816   5.998  14.842  0.00  0.00    +0.000 N 
ATOM     21  H   UNL     1      47.366   6.658  14.222  0.00  0.00    +0.000 HD
BRANCH  19  22
ATOM     22  C   UNL     1      49.273   7.784  15.447  0.00  0.00    +0.000 A 
ATOM     23  C   UNL     1      49.303   8.669  16.518  0.00  0.00    +0.000 A 
ATOM     24  S   UNL     1      49.863  10.223  16.089  0.00  0.00    +0.000 S 
ATOM     25  C   UNL     1      50.044   9.771  14.454  0.00  0.00    +0.000 A 
ATOM     26  N   UNL     1      50.514  10.637  13.523  0.00  0.00    +0.000 NA
ATOM     27  C   UNL     1      50.604  10.144  12.332  0.00  0.00    +0.000 A 
ATOM     28  N   UNL     1      50.252   8.866  11.983  0.00  0.00    +0.000 N 
ATOM     29  C   UNL     1      49.715   7.976  12.875  0.00  0.00    +0.000 A 
ATOM     30  O   UNL     1      49.353   6.866  12.504  0.00  0.00    +0.000 OA
ATOM     31  C   UNL     1      49.660   8.459  14.240  0.00  0.00    +0.000 A 
ATOM     32  H   UNL     1      50.327   8.539  11.032  0.00  0.00    +0.000 HD
ENDBRANCH  19  22
ENDBRANCH   1  20
TORSDOF 7
ENDMDL
MODEL 5
REMARK VINA RESULT:    -7.477      1.617      2.082
REMARK INTER + INTRA:         -11.861
REMARK INTER:                 -10.934
REMARK INTRA:                  -0.927
REMARK UNBOUND:                -1.324
REMARK  Name = 
REMARK  7 active torsions:
REMARK  status: ('A' for Active; 'I' for Inactive)
REMARK    1  A    between atoms: C_2  and  C_20
REMARK    2  A    between atoms: N_3  and  C_4
REMARK    3  A    between atoms: C_4  and  C_5
REMARK    4  A    between atoms: C_8  and  C_9
REMARK    5  A    between atoms: C_9  and  N_10
REMARK    6  A    between atoms: N_10  and  C_11
REMARK    7  A    between atoms: C_11  and  C_12
REMARK                            x       y       z     vdW  Elec       q    Type
REMARK                         _______ _______ _______ _____ _____    ______ ____
ROOT
ATOM      1  C   UNL     1      47.662   7.079  13.539  0.00  0.00    +0.000 C 
ENDROOT
BRANCH   1   2
ATOM      2  C   UNL     1      46.982   6.123  12.559  0.00  0.00    +0.000 C 
ATOM      3  C   UNL     1      45.858   6.833  11.788  0.00  0.00    +0.000 C 
ATOM      4  C   UNL     1      45.141   5.881  10.835  0.00  0.00    +0.000 C 
ATOM      5  C   UNL     1      44.593   4.649  11.570  0.00  0.00    +0.000 C 
ATOM      6  C   UNL     1      45.709   3.953  12.370  0.00  0.00    +0.000 C 
ATOM      7  C   UNL     1      46.430   4.910  13.309  0.00  0.00    +0.000 C 
BRANCH   5   8
ATOM      8  C   UNL     1      43.930   3.667  10.582  0.00  0.00    +0.000 C 
BRANCH   8   9
ATOM      9  N   UNL     1      44.820   2.533  10.344  0.00  0.00    +0.000 NA
ATOM     10  H   UNL     1      44.699   1.833  11.074  0.00  0.00    +0.000 HD
BRANCH   9  11
ATOM     11  C   UNL     1      44.612   1.914   9.039  0.00  0.00    +0.000 C 
BRANCH  11  12
ATOM     12  C   UNL     1      45.824   2.103   8.166  0.00  0.00    +0.000 A 
ATOM     13  C   UNL     1      46.170   3.360   7.659  0.00  0.00    +0.000 A 
ATOM     14  C   UNL     1      47.301   3.500   6.861  0.00  0.00    +0.000 A 
ATOM     15  C   UNL     1      48.053   2.371   6.586  0.00  0.00    +0.000 A 
ATOM     16  N   UNL     1      47.752   1.139   7.052  0.00  0.00    +0.000 NA
ATOM     17  C   UNL     1      46.650   1.035   7.829  0.00  0.00    +0.000 A 
ENDBRANCH  11  12
ENDBRANCH   9  11
ENDBRANCH   8   9
ENDBRANCH   5   8
ENDBRANCH   1   2
BRANCH   1  20
ATOM     18  O   UNL     1      49.079   8.158  15.742  0.00  0.00    +0.000 OA
ATOM     19  C   UNL     1      48.731   6.979  15.762  0.00  0.00    +0.000 C 
ATOM     20  N   UNL     1      47.996   6.400  14.764  0.00  0.00    +0.000 N 
ATOM     21  H   UNL     1      47.713   5.432  14.838  0.00  0.00    +0.000 HD
BRANCH  19  22
ATOM     22  C   UNL     1      49.028   6.108  16.892  0.00  0.00    +0.000 A 
ATOM     23  C   UNL     1      48.023   5.607  17.710  0.00  0.00    +0.000 A 
ATOM     24  S   UNL     1      48.606   4.562  18.927  0.00  0.00    +0.000 S 
ATOM     25  C   UNL     1      50.221   4.779  18.422  0.00  0.00    +0.000 A 
ATOM     26  N   UNL     1      51.250   4.141  19.031  0.00  0.00    +0.000 NA
ATOM     27  C   UNL     1      52.412   4.398  18.527  0.00  0.00    +0.000 A 
ATOM     28  N   UNL     1      52.640   5.249  17.477  0.00  0.00    +0.000 N 
ATOM     29  C   UNL     1      51.641   5.963  16.871  0.00  0.00    +0.000 A 
ATOM     30  O   UNL     1      51.901   6.762  15.979  0.00  0.00    +0.000 OA
ATOM     31  C   UNL     1      50.311   5.654  17.353  0.00  0.00    +0.000 A 
ATOM     32  H   UNL     1      53.572   5.427  17.135  0.00  0.00    +0.000 HD
ENDBRANCH  19  22
ENDBRANCH   1  20
TORSDOF 7
ENDMDL
MODEL 6
REMARK VINA RESULT:    -7.323      1.663      2.071
REMARK INTER + INTRA:         -11.643
REMARK INTER:                 -10.437
REMARK INTRA:                  -1.206
REMARK UNBOUND:                -1.324
REMARK  Name = 
REMARK  7 active torsions:
REMARK  status: ('A' for Active; 'I' for Inactive)
REMARK    1  A    between atoms: C_2  and  C_20
REMARK    2  A    between atoms: N_3  and  C_4
REMARK    3  A    between atoms: C_4  and  C_5
REMARK    4  A    between atoms: C_8  and  C_9
REMARK    5  A    between atoms: C_9  and  N_10
REMARK    6  A    between atoms: N_10  and  C_11
REMARK    7  A    between atoms: C_11  and  C_12
REMARK                            x       y       z     vdW  Elec       q    Type
REMARK                         _______ _______ _______ _____ _____    ______ ____
ROOT
ATOM      1  C   UNL     1      47.325   7.911  13.236  0.00  0.00    +0.000 C 
ENDROOT
BRANCH   1   2
ATOM      2  C   UNL     1      46.222   6.878  12.999  0.00  0.00    +0.000 C 
ATOM      3  C   UNL     1      46.740   5.454  13.252  0.00  0.00    +0.000 C 
ATOM      4  C   UNL     1      45.662   4.408  12.979  0.00  0.00    +0.000 C 
ATOM      5  C   UNL     1      45.102   4.530  11.554  0.00  0.00    +0.000 C 
ATOM      6  C   UNL     1      44.612   5.964  11.285  0.00  0.00    +0.000 C 
ATOM      7  C   UNL     1      45.685   7.005  11.573  0.00  0.00    +0.000 C 
BRANCH   5   8
ATOM      8  C   UNL     1      43.969   3.509  11.317  0.00  0.00    +0.000 C 
BRANCH   8   9
ATOM      9  N   UNL     1      43.782   3.306   9.883  0.00  0.00    +0.000 NA
ATOM     10  H   UNL     1      44.168   4.093   9.364  0.00  0.00    +0.000 HD
BRANCH   9  11
ATOM     11  C   UNL     1      44.385   2.067   9.403  0.00  0.00    +0.000 C 
BRANCH  11  12
ATOM     12  C   UNL     1      45.496   2.363   8.430  0.00  0.00    +0.000 A 
ATOM     13  C   UNL     1      46.408   1.376   8.043  0.00  0.00    +0.000 A 
ATOM     14  C   UNL     1      47.419   1.681   7.136  0.00  0.00    +0.000 A 
ATOM     15  C   UNL     1      47.490   2.973   6.646  0.00  0.00    +0.000 A 
ATOM     16  N   UNL     1      46.632   3.956   6.996  0.00  0.00    +0.000 NA
ATOM     17  C   UNL     1      45.658   3.628   7.875  0.00  0.00    +0.000 A 
ENDBRANCH  11  12
ENDBRANCH   9  11
ENDBRANCH   8   9
ENDBRANCH   5   8
ENDBRANCH   1   2
BRANCH   1  20
ATOM     18  O   UNL     1      48.408   8.922  15.650  0.00  0.00    +0.000 OA
ATOM     19  C   UNL     1      48.902   7.921  15.135  0.00  0.00    +0.000 C 
ATOM     20  N   UNL     1      48.401   7.340  14.002  0.00  0.00    +0.000 N 
ATOM     21  H   UNL     1      48.828   6.502  13.630  0.00  0.00    +0.000 HD
BRANCH  19  22
ATOM     22  C   UNL     1      50.039   7.231  15.730  0.00  0.00    +0.000 A 
ATOM     23  C   UNL     1      51.338   7.694  15.568  0.00  0.00    +0.000 A 
ATOM     24  S   UNL     1      52.494   6.759  16.407  0.00  0.00    +0.000 S 
ATOM     25  C   UNL     1      51.298   5.685  16.978  0.00  0.00    +0.000 A 
ATOM     26  N   UNL     1      51.604   4.642  17.787  0.00  0.00    +0.000 NA
ATOM     27  C   UNL     1      50.589   3.926  18.144  0.00  0.00    +0.000 A 
ATOM     28  N   UNL     1      49.295   4.150  17.752  0.00  0.00    +0.000 N 
ATOM     29  C   UNL     1      48.946   5.153  16.886  0.00  0.00    +0.000 A 
ATOM     30  O   UNL     1      47.786   5.275  16.512  0.00  0.00    +0.000 OA
ATOM     31  C   UNL     1      50.039   6.027  16.514  0.00  0.00    +0.000 A 
ATOM     32  H   UNL     1      48.543   3.548  18.048  0.00  0.00    +0.000 HD
ENDBRANCH  19  22
ENDBRANCH   1  20
TORSDOF 7
ENDMDL
MODEL 7
REMARK VINA RESULT:    -7.276      2.207      2.848
REMARK INTER + INTRA:         -11.577
REMARK INTER:                 -10.680
REMARK INTRA:                  -0.897
REMARK UNBOUND:                -1.324
REMARK  Name = 
REMARK  7 active torsions:
REMARK  status: ('A' for Active; 'I' for Inactive)
REMARK    1  A    between atoms: C_2  and  C_20
REMARK    2  A    between atoms: N_3  and  C_4
REMARK    3  A    between atoms: C_4  and  C_5
REMARK    4  A    between atoms: C_8  and  C_9
REMARK    5  A    between atoms: C_9  and  N_10
REMARK    6  A    between atoms: N_10  and  C_11
REMARK    7  A    between atoms: C_11  and  C_12
REMARK                            x       y       z     vdW  Elec       q    Type
REMARK                         _______ _______ _______ _____ _____    ______ ____
ROOT
ATOM      1  C   UNL     1      47.416   4.191  14.878  0.00  0.00    +0.000 C 
ENDROOT
BRANCH   1   2
ATOM      2  C   UNL     1      46.704   4.393  13.540  0.00  0.00    +0.000 C 
ATOM      3  C   UNL     1      45.744   5.592  13.603  0.00  0.00    +0.000 C 
ATOM      4  C   UNL     1      44.995   5.782  12.286  0.00  0.00    +0.000 C 
ATOM      5  C   UNL     1      44.239   4.509  11.876  0.00  0.00    +0.000 C 
ATOM      6  C   UNL     1      45.190   3.299  11.844  0.00  0.00    +0.000 C 
ATOM      7  C   UNL     1      45.946   3.123  13.153  0.00  0.00    +0.000 C 
BRANCH   5   8
ATOM      8  C   UNL     1      43.542   4.697  10.513  0.00  0.00    +0.000 C 
BRANCH   8   9
ATOM      9  N   UNL     1      43.907   3.602   9.618  0.00  0.00    +0.000 NA
ATOM     10  H   UNL     1      43.078   3.067   9.363  0.00  0.00    +0.000 HD
BRANCH   9  11
ATOM     11  C   UNL     1      44.580   4.060   8.408  0.00  0.00    +0.000 C 
BRANCH  11  12
ATOM     12  C   UNL     1      45.586   3.040   7.943  0.00  0.00    +0.000 A 
ATOM     13  C   UNL     1      46.546   3.352   6.975  0.00  0.00    +0.000 A 
ATOM     14  C   UNL     1      47.466   2.387   6.574  0.00  0.00    +0.000 A 
ATOM     15  C   UNL     1      47.393   1.132   7.152  0.00  0.00    +0.000 A 
ATOM     16  N   UNL     1      46.480   0.789   8.087  0.00  0.00    +0.000 NA
ATOM     17  C   UNL     1      45.602   1.749   8.460  0.00  0.00    +0.000 A 
ENDBRANCH  11  12
ENDBRANCH   9  11
ENDBRANCH   8   9
ENDBRANCH   5   8
ENDBRANCH   1   2
BRANCH   1  20
ATOM     18  O   UNL     1      49.560   4.963  16.560  0.00  0.00    +0.000 OA
ATOM     19  C   UNL     1      48.601   5.719  16.412  0.00  0.00    +0.000 C 
ATOM     20  N   UNL     1      47.555   5.443  15.574  0.00  0.00    +0.000 N 
ATOM     21  H   UNL     1      46.801   6.109  15.468  0.00  0.00    +0.000 HD
BRANCH  19  22
ATOM     22  C   UNL     1      48.529   7.011  17.082  0.00  0.00    +0.000 A 
ATOM     23  C   UNL     1      48.806   8.196  16.412  0.00  0.00    +0.000 A 
ATOM     24  S   UNL     1      48.595   9.583  17.384  0.00  0.00    +0.000 S 
ATOM     25  C   UNL     1      48.167   8.640  18.740  0.00  0.00    +0.000 A 
ATOM     26  N   UNL     1      47.834   9.206  19.925  0.00  0.00    +0.000 NA
ATOM     27  C   UNL     1      47.523   8.361  20.852  0.00  0.00    +0.000 A 
ATOM     28  N   UNL     1      47.529   6.998  20.705  0.00  0.00    +0.000 N 
ATOM     29  C   UNL     1      47.917   6.379  19.547  0.00  0.00    +0.000 A 
ATOM     30  O   UNL     1      47.969   5.157  19.482  0.00  0.00    +0.000 OA
ATOM     31  C   UNL     1      48.206   7.286  18.455  0.00  0.00    +0.000 A 
ATOM     32  H   UNL     1      47.293   6.384  21.470  0.00  0.00    +0.000 HD
ENDBRANCH  19  22
ENDBRANCH   1  20
TORSDOF 7
ENDMDL
MODEL 8
REMARK VINA RESULT:    -7.001      2.668      3.248
REMARK INTER + INTRA:         -11.189
REMARK INTER:                 -10.785
REMARK INTRA:                  -0.404
REMARK UNBOUND:                -1.324
REMARK  Name = 
REMARK  7 active torsions:
REMARK  status: ('A' for Active; 'I' for Inactive)
REMARK    1  A    between atoms: C_2  and  C_20
REMARK    2  A    between atoms: N_3  and  C_4
REMARK    3  A    between atoms: C_4  and  C_5
REMARK    4  A    between atoms: C_8  and  C_9
REMARK    5  A    between atoms: C_9  and  N_10
REMARK    6  A    between atoms: N_10  and  C_11
REMARK    7  A    between atoms: C_11  and  C_12
REMARK                            x       y       z     vdW  Elec       q    Type
REMARK                         _______ _______ _______ _____ _____    ______ ____
ROOT
ATOM      1  C   UNL     1      47.952   6.029  15.992  0.00  0.00    +0.000 C 
ENDROOT
BRANCH   1   2
ATOM      2  C   UNL     1      47.738   5.701  14.513  0.00  0.00    +0.000 C 
ATOM      3  C   UNL     1      47.599   6.985  13.680  0.00  0.00    +0.000 C 
ATOM      4  C   UNL     1      47.345   6.674  12.207  0.00  0.00    +0.000 C 
ATOM      5  C   UNL     1      46.111   5.777  12.022  0.00  0.00    +0.000 C 
ATOM      6  C   UNL     1      46.232   4.505  12.881  0.00  0.00    +0.000 C 
ATOM      7  C   UNL     1      46.500   4.820  14.346  0.00  0.00    +0.000 C 
BRANCH   5   8
ATOM      8  C   UNL     1      45.908   5.419  10.535  0.00  0.00    +0.000 C 
BRANCH   8   9
ATOM      9  N   UNL     1      44.492   5.531  10.191  0.00  0.00    +0.000 NA
ATOM     10  H   UNL     1      44.368   6.204   9.436  0.00  0.00    +0.000 HD
BRANCH   9  11
ATOM     11  C   UNL     1      43.901   4.255   9.807  0.00  0.00    +0.000 C 
BRANCH  11  12
ATOM     12  C   UNL     1      44.862   3.460   8.963  0.00  0.00    +0.000 A 
ATOM     13  C   UNL     1      45.518   4.033   7.868  0.00  0.00    +0.000 A 
ATOM     14  C   UNL     1      46.407   3.272   7.114  0.00  0.00    +0.000 A 
ATOM     15  C   UNL     1      46.608   1.951   7.476  0.00  0.00    +0.000 A 
ATOM     16  N   UNL     1      45.993   1.358   8.523  0.00  0.00    +0.000 NA
ATOM     17  C   UNL     1      45.139   2.125   9.240  0.00  0.00    +0.000 A 
ENDBRANCH  11  12
ENDBRANCH   9  11
ENDBRANCH   8   9
ENDBRANCH   5   8
ENDBRANCH   1   2
BRANCH   1  20
ATOM     18  O   UNL     1      48.312   4.370  18.259  0.00  0.00    +0.000 OA
ATOM     19  C   UNL     1      49.290   4.720  17.601  0.00  0.00    +0.000 C 
ATOM     20  N   UNL     1      49.193   5.472  16.462  0.00  0.00    +0.000 N 
ATOM     21  H   UNL     1      50.025   5.715  15.942  0.00  0.00    +0.000 HD
BRANCH  19  22
ATOM     22  C   UNL     1      50.642   4.307  17.953  0.00  0.00    +0.000 A 
ATOM     23  C   UNL     1      51.529   5.174  18.579  0.00  0.00    +0.000 A 
ATOM     24  S   UNL     1      53.029   4.449  18.948  0.00  0.00    +0.000 S 
ATOM     25  C   UNL     1      52.554   2.969  18.247  0.00  0.00    +0.000 A 
ATOM     26  N   UNL     1      53.372   1.889  18.239  0.00  0.00    +0.000 NA
ATOM     27  C   UNL     1      52.865   0.838  17.682  0.00  0.00    +0.000 A 
ATOM     28  N   UNL     1      51.618   0.775  17.117  0.00  0.00    +0.000 N 
ATOM     29  C   UNL     1      50.781   1.856  17.046  0.00  0.00    +0.000 A 
ATOM     30  O   UNL     1      49.701   1.770  16.473  0.00  0.00    +0.000 OA
ATOM     31  C   UNL     1      51.275   3.039  17.721  0.00  0.00    +0.000 A 
ATOM     32  H   UNL     1      51.279  -0.069  16.679  0.00  0.00    +0.000 HD
ENDBRANCH  19  22
ENDBRANCH   1  20
TORSDOF 7
ENDMDL
MODEL 9
REMARK VINA RESULT:    -6.865      3.605      7.903
REMARK INTER + INTRA:         -10.998
REMARK INTER:                  -9.241
REMARK INTRA:                  -1.757
REMARK UNBOUND:                -1.324
REMARK  Name = 
REMARK  7 active torsions:
REMARK  status: ('A' for Active; 'I' for Inactive)
REMARK    1  A    between atoms: C_2  and  C_20
REMARK    2  A    between atoms: N_3  and  C_4
REMARK    3  A    between atoms: C_4  and  C_5
REMARK    4  A    between atoms: C_8  and  C_9
REMARK    5  A    between atoms: C_9  and  N_10
REMARK    6  A    between atoms: N_10  and  C_11
REMARK    7  A    between atoms: C_11  and  C_12
REMARK                            x       y       z     vdW  Elec       q    Type
REMARK                         _______ _______ _______ _____ _____    ______ ____
ROOT
ATOM      1  C   UNL     1      48.178   8.390  14.153  0.00  0.00    +0.000 C 
ENDROOT
BRANCH   1   2
ATOM      2  C   UNL     1      48.813   7.633  15.320  0.00  0.00    +0.000 C 
ATOM      3  C   UNL     1      48.623   8.397  16.640  0.00  0.00    +0.000 C 
ATOM      4  C   UNL     1      49.288   7.674  17.808  0.00  0.00    +0.000 C 
ATOM      5  C   UNL     1      50.780   7.422  17.544  0.00  0.00    +0.000 C 
ATOM      6  C   UNL     1      50.977   6.686  16.207  0.00  0.00    +0.000 C 
ATOM      7  C   UNL     1      50.300   7.402  15.047  0.00  0.00    +0.000 C 
BRANCH   5   8
ATOM      8  C   UNL     1      51.420   6.633  18.705  0.00  0.00    +0.000 C 
BRANCH   8   9
ATOM      9  N   UNL     1      50.518   5.567  19.132  0.00  0.00    +0.000 NA
ATOM     10  H   UNL     1      49.593   5.708  18.727  0.00  0.00    +0.000 HD
BRANCH   9  11
ATOM     11  C   UNL     1      51.004   4.238  18.779  0.00  0.00    +0.000 C 
BRANCH  11  12
ATOM     12  C   UNL     1      50.039   3.552  17.850  0.00  0.00    +0.000 A 
ATOM     13  C   UNL     1      48.736   4.028  17.669  0.00  0.00    +0.000 A 
ATOM     14  C   UNL     1      47.871   3.374  16.797  0.00  0.00    +0.000 A 
ATOM     15  C   UNL     1      48.337   2.253  16.133  0.00  0.00    +0.000 A 
ATOM     16  N   UNL     1      49.585   1.758  16.280  0.00  0.00    +0.000 NA
ATOM     17  C   UNL     1      50.404   2.418  17.131  0.00  0.00    +0.000 A 
ENDBRANCH  11  12
ENDBRANCH   9  11
ENDBRANCH   8   9
ENDBRANCH   5   8
ENDBRANCH   1   2
BRANCH   1  20
ATOM     18  O   UNL     1      47.879   6.952  11.731  0.00  0.00    +0.000 OA
ATOM     19  C   UNL     1      46.914   7.084  12.482  0.00  0.00    +0.000 C 
ATOM     20  N   UNL     1      46.992   7.715  13.694  0.00  0.00    +0.000 N 
ATOM     21  H   UNL     1      46.176   7.777  14.288  0.00  0.00    +0.000 HD
BRANCH  19  22
ATOM     22  C   UNL     1      45.608   6.522  12.164  0.00  0.00    +0.000 A 
ATOM     23  C   UNL     1      44.581   7.307  11.656  0.00  0.00    +0.000 A 
ATOM     24  S   UNL     1      43.168   6.417  11.303  0.00  0.00    +0.000 S 
ATOM     25  C   UNL     1      43.872   4.965  11.855  0.00  0.00    +0.000 A 
ATOM     26  N   UNL     1      43.203   3.787  11.814  0.00  0.00    +0.000 NA
ATOM     27  C   UNL     1      43.874   2.775  12.257  0.00  0.00    +0.000 A 
ATOM     28  N   UNL     1      45.150   2.837  12.753  0.00  0.00    +0.000 N 
ATOM     29  C   UNL     1      45.843   4.012  12.872  0.00  0.00    +0.000 A 
ATOM     30  O   UNL     1      46.957   4.029  13.381  0.00  0.00    +0.000 OA
ATOM     31  C   UNL     1      45.160   5.166  12.322  0.00  0.00    +0.000 A 
ATOM     32  H   UNL     1      45.621   2.016  13.102  0.00  0.00    +0.000 HD
ENDBRANCH  19  22
ENDBRANCH   1  20
TORSDOF 7
ENDMDL
