MODEL 1
REMARK VINA RESULT:    -7.413      0.000      0.000
REMARK INTER + INTRA:          -9.010
REMARK INTER:                  -8.713
REMARK INTRA:                  -0.297
REMARK UNBOUND:                -0.297
REMARK  Name = 
REMARK  5 active torsions:
REMARK  status: ('A' for Active; 'I' for Inactive)
REMARK    1  A    between atoms: C_1  and  C_2
REMARK    2  A    between atoms: C_5  and  C_6
REMARK    3  A    between atoms: C_6  and  C_7
REMARK    4  A    between atoms: C_6  and  N_8
REMARK    5  A    between atoms: C_12  and  C_13
REMARK                            x       y       z     vdW  Elec       q    Type
REMARK                         _______ _______ _______ _____ _____    ______ ____
ROOT
ATOM      1  N   UNL     1      43.816   4.929   9.948  0.00  0.00    +0.000 N 
ATOM      2  C   UNL     1      44.592   3.946   9.338  0.00  0.00    +0.000 A 
ATOM      3  C   UNL     1      44.907   4.090   7.986  0.00  0.00    +0.000 A 
ATOM      4  C   UNL     1      45.656   3.108   7.335  0.00  0.00    +0.000 A 
ATOM      5  C   UNL     1      46.101   1.997   8.049  0.00  0.00    +0.000 A 
ATOM      6  C   UNL     1      45.744   1.928   9.383  0.00  0.00    +0.000 A 
ATOM      7  N   UNL     1      44.995   2.861  10.031  0.00  0.00    +0.000 NA
ATOM      8  H   UNL     1      44.238   5.849   9.810  0.00  0.00    +0.000 HD
ENDROOT
BRANCH   5   9
ATOM      9  C   UNL     1      46.915   0.970   7.350  0.00  0.00    +0.000 C 
ATOM     10  N   UNL     1      46.723  -0.353   7.645  0.00  0.00    +0.000 N 
ATOM     11  O   UNL     1      47.768   1.290   6.521  0.00  0.00    +0.000 OA
ATOM     12  H   UNL     1      46.065  -0.726   8.310  0.00  0.00    +0.000 HD
ATOM     13  H   UNL     1      47.310  -1.012   7.149  0.00  0.00    +0.000 HD
ENDBRANCH   5   9
BRANCH   1  14
ATOM     14  C   UNL     1      43.492   4.762  11.385  0.00  0.00    +0.000 C 
ATOM     15  C   UNL     1      42.259   5.599  11.730  0.00  0.00    +0.000 C 
BRANCH  14  20
ATOM     16  C   UNL     1      48.078   6.223  14.528  0.00  0.00    +0.000 C 
ATOM     17  C   UNL     1      46.860   5.862  13.751  0.00  0.00    +0.000 A 
ATOM     18  C   UNL     1      46.157   4.696  13.955  0.00  0.00    +0.000 A 
ATOM     19  N   UNL     1      45.078   4.337  13.237  0.00  0.00    +0.000 NA
ATOM     20  C   UNL     1      44.674   5.192  12.272  0.00  0.00    +0.000 A 
ATOM     21  N   UNL     1      45.294   6.364  11.991  0.00  0.00    +0.000 NA
ATOM     22  C   UNL     1      46.367   6.670  12.748  0.00  0.00    +0.000 A 
ENDBRANCH  14  20
ENDBRANCH   1  14
TORSDOF 3
ENDMDL
MODEL 2
REMARK VINA RESULT:    -6.960      3.302      6.896
REMARK INTER + INTRA:          -8.477
REMARK INTER:                  -8.054
REMARK INTRA:                  -0.424
REMARK UNBOUND:                -0.297
REMARK  Name = 
REMARK  5 active torsions:
REMARK  status: ('A' for Active; 'I' for Inactive)
REMARK    1  A    between atoms: C_1  and  C_2
REMARK    2  A    between atoms: C_5  and  C_6
REMARK    3  A    between atoms: C_6  and  C_7
REMARK    4  A    between atoms: C_6  and  N_8
REMARK    5  A    between atoms: C_12  and  C_13
REMARK                            x       y       z     vdW  Elec       q    Type
REMARK                         _______ _______ _______ _____ _____    ______ ____
ROOT
ATOM      1  N   UNL     1      45.099   4.547  11.724  0.00  0.00    +0.000 N 
ATOM      2  C   UNL     1      45.141   5.937  11.813  0.00  0.00    +0.000 A 
ATOM      3  C   UNL     1      46.004   6.519  12.741  0.00  0.00    +0.000 A 
ATOM      4  C   UNL     1      46.048   7.908  12.880  0.00  0.00    +0.000 A 
ATOM      5  C   UNL     1      45.240   8.705  12.071  0.00  0.00    +0.000 A 
ATOM      6  C   UNL     1      44.412   8.050  11.177  0.00  0.00    +0.000 A 
ATOM      7  N   UNL     1      44.335   6.699  11.044  0.00  0.00    +0.000 NA
ATOM      8  H   UNL     1      46.038   4.174  11.572  0.00  0.00    +0.000 HD
ENDROOT
BRANCH   5   9
ATOM      9  C   UNL     1      45.312  10.181  12.212  0.00  0.00    +0.000 C 
ATOM     10  N   UNL     1      46.513  10.771  12.497  0.00  0.00    +0.000 N 
ATOM     11  O   UNL     1      44.306  10.881  12.091  0.00  0.00    +0.000 OA
ATOM     12  H   UNL     1      47.393  10.298  12.627  0.00  0.00    +0.000 HD
ATOM     13  H   UNL     1      46.507  11.779  12.593  0.00  0.00    +0.000 HD
ENDBRANCH   5   9
BRANCH   1  14
ATOM     14  C   UNL     1      44.178   3.945  10.730  0.00  0.00    +0.000 C 
ATOM     15  C   UNL     1      43.434   2.772  11.371  0.00  0.00    +0.000 C 
BRANCH  14  20
ATOM     16  C   UNL     1      47.291   2.164   6.237  0.00  0.00    +0.000 C 
ATOM     17  C   UNL     1      46.443   2.625   7.371  0.00  0.00    +0.000 A 
ATOM     18  C   UNL     1      46.110   3.946   7.570  0.00  0.00    +0.000 A 
ATOM     19  N   UNL     1      45.377   4.385   8.610  0.00  0.00    +0.000 NA
ATOM     20  C   UNL     1      44.947   3.455   9.491  0.00  0.00    +0.000 A 
ATOM     21  N   UNL     1      45.218   2.131   9.385  0.00  0.00    +0.000 NA
ATOM     22  C   UNL     1      45.953   1.752   8.320  0.00  0.00    +0.000 A 
ENDBRANCH  14  20
ENDBRANCH   1  14
TORSDOF 3
ENDMDL
MODEL 3
REMARK VINA RESULT:    -6.881      2.918      6.781
REMARK INTER + INTRA:          -8.384
REMARK INTER:                  -7.970
REMARK INTRA:                  -0.415
REMARK UNBOUND:                -0.297
REMARK  Name = 
REMARK  5 active torsions:
REMARK  status: ('A' for Active; 'I' for Inactive)
REMARK    1  A    between atoms: C_1  and  C_2
REMARK    2  A    between atoms: C_5  and  C_6
REMARK    3  A    between atoms: C_6  and  C_7
REMARK    4  A    between atoms: C_6  and  N_8
REMARK    5  A    between atoms: C_12  and  C_13
REMARK                            x       y       z     vdW  Elec       q    Type
REMARK                         _______ _______ _______ _____ _____    ______ ____
ROOT
ATOM      1  N   UNL     1      45.516   3.795  12.358  0.00  0.00    +0.000 N 
ATOM      2  C   UNL     1      46.079   5.009  12.746  0.00  0.00    +0.000 A 
ATOM      3  C   UNL     1      47.104   4.995  13.692  0.00  0.00    +0.000 A 
ATOM      4  C   UNL     1      47.669   6.195  14.128  0.00  0.00    +0.000 A 
ATOM      5  C   UNL     1      47.217   7.401  13.595  0.00  0.00    +0.000 A 
ATOM      6  C   UNL     1      46.196   7.328  12.664  0.00  0.00    +0.000 A 
ATOM      7  N   UNL     1      45.615   6.173  12.245  0.00  0.00    +0.000 NA
ATOM      8  H   UNL     1      46.243   3.153  12.038  0.00  0.00    +0.000 HD
ENDROOT
BRANCH   5   9
ATOM      9  C   UNL     1      47.841   8.669  14.050  0.00  0.00    +0.000 C 
ATOM     10  N   UNL     1      47.531   9.163  15.289  0.00  0.00    +0.000 N 
ATOM     11  O   UNL     1      48.620   9.290  13.326  0.00  0.00    +0.000 OA
ATOM     12  H   UNL     1      46.902   8.747  15.956  0.00  0.00    +0.000 HD
ATOM     13  H   UNL     1      47.975  10.035  15.547  0.00  0.00    +0.000 HD
ENDBRANCH   5   9
BRANCH   1  14
ATOM     14  C   UNL     1      44.429   3.827  11.350  0.00  0.00    +0.000 C 
ATOM     15  C   UNL     1      43.360   2.797  11.720  0.00  0.00    +0.000 C 
BRANCH  14  20
ATOM     16  C   UNL     1      46.720   2.719   6.195  0.00  0.00    +0.000 C 
ATOM     17  C   UNL     1      46.081   3.013   7.508  0.00  0.00    +0.000 A 
ATOM     18  C   UNL     1      45.870   4.293   7.970  0.00  0.00    +0.000 A 
ATOM     19  N   UNL     1      45.329   4.576   9.169  0.00  0.00    +0.000 NA
ATOM     20  C   UNL     1      44.972   3.526   9.942  0.00  0.00    +0.000 A 
ATOM     21  N   UNL     1      45.136   2.231   9.581  0.00  0.00    +0.000 NA
ATOM     22  C   UNL     1      45.679   2.011   8.367  0.00  0.00    +0.000 A 
ENDBRANCH  14  20
ENDBRANCH   1  14
TORSDOF 3
ENDMDL
MODEL 4
REMARK VINA RESULT:    -6.800      2.607      6.144
REMARK INTER + INTRA:          -8.289
REMARK INTER:                  -9.096
REMARK INTRA:                   0.806
REMARK UNBOUND:                -0.297
REMARK  Name = 
REMARK  5 active torsions:
REMARK  status: ('A' for Active; 'I' for Inactive)
REMARK    1  A    between atoms: C_1  and  C_2
REMARK    2  A    between atoms: C_5  and  C_6
REMARK    3  A    between atoms: C_6  and  C_7
REMARK    4  A    between atoms: C_6  and  N_8
REMARK    5  A    between atoms: C_12  and  C_13
REMARK                            x       y       z     vdW  Elec       q    Type
REMARK                         _______ _______ _______ _____ _____    ______ ____
ROOT
ATOM      1  N   UNL     1      44.268   5.536  10.378  0.00  0.00    +0.000 N 
ATOM      2  C   UNL     1      45.148   5.564  11.458  0.00  0.00    +0.000 A 
ATOM      3  C   UNL     1      45.612   6.801  11.906  0.00  0.00    +0.000 A 
ATOM      4  C   UNL     1      46.520   6.864  12.965  0.00  0.00    +0.000 A 
ATOM      5  C   UNL     1      46.940   5.688  13.582  0.00  0.00    +0.000 A 
ATOM      6  C   UNL     1      46.434   4.503  13.077  0.00  0.00    +0.000 A 
ATOM      7  N   UNL     1      45.569   4.417  12.031  0.00  0.00    +0.000 NA
ATOM      8  H   UNL     1      43.462   6.137  10.562  0.00  0.00    +0.000 HD
ENDROOT
BRANCH   5   9
ATOM      9  C   UNL     1      47.888   5.769  14.721  0.00  0.00    +0.000 C 
ATOM     10  N   UNL     1      47.546   5.207  15.921  0.00  0.00    +0.000 N 
ATOM     11  O   UNL     1      48.971   6.346  14.608  0.00  0.00    +0.000 OA
ATOM     12  H   UNL     1      46.688   4.723  16.129  0.00  0.00    +0.000 HD
ATOM     13  H   UNL     1      48.223   5.299  16.669  0.00  0.00    +0.000 HD
ENDBRANCH   5   9
BRANCH   1  14
ATOM     14  C   UNL     1      43.782   4.214   9.916  0.00  0.00    +0.000 C 
ATOM     15  C   UNL     1      43.503   3.322  11.127  0.00  0.00    +0.000 C 
BRANCH  14  20
ATOM     16  C   UNL     1      47.845   1.749   6.680  0.00  0.00    +0.000 C 
ATOM     17  C   UNL     1      46.760   2.383   7.480  0.00  0.00    +0.000 A 
ATOM     18  C   UNL     1      46.435   3.717   7.380  0.00  0.00    +0.000 A 
ATOM     19  N   UNL     1      45.484   4.313   8.121  0.00  0.00    +0.000 NA
ATOM     20  C   UNL     1      44.816   3.534   9.001  0.00  0.00    +0.000 A 
ATOM     21  N   UNL     1      45.057   2.212   9.175  0.00  0.00    +0.000 NA
ATOM     22  C   UNL     1      46.019   1.671   8.400  0.00  0.00    +0.000 A 
ENDBRANCH  14  20
ENDBRANCH   1  14
TORSDOF 3
ENDMDL
MODEL 5
REMARK VINA RESULT:    -6.639      1.391      2.037
REMARK INTER + INTRA:          -8.101
REMARK INTER:                  -8.847
REMARK INTRA:                   0.747
REMARK UNBOUND:                -0.297
REMARK  Name = 
REMARK  5 active torsions:
REMARK  status: ('A' for Active; 'I' for Inactive)
REMARK    1  A    between atoms: C_1  and  C_2
REMARK    2  A    between atoms: C_5  and  C_6
REMARK    3  A    between atoms: C_6  and  C_7
REMARK    4  A    between atoms: C_6  and  N_8
REMARK    5  A    between atoms: C_12  and  C_13
REMARK                            x       y       z     vdW  Elec       q    Type
REMARK                         _______ _______ _______ _____ _____    ______ ____
ROOT
ATOM      1  N   UNL     1      44.143   2.765  10.875  0.00  0.00    +0.000 N 
ATOM      2  C   UNL     1      44.911   2.810   9.714  0.00  0.00    +0.000 A 
ATOM      3  C   UNL     1      45.233   1.609   9.082  0.00  0.00    +0.000 A 
ATOM      4  C   UNL     1      46.028   1.615   7.934  0.00  0.00    +0.000 A 
ATOM      5  C   UNL     1      46.478   2.827   7.416  0.00  0.00    +0.000 A 
ATOM      6  C   UNL     1      46.117   3.972   8.103  0.00  0.00    +0.000 A 
ATOM      7  N   UNL     1      45.365   3.988   9.236  0.00  0.00    +0.000 NA
ATOM      8  H   UNL     1      43.279   2.246  10.709  0.00  0.00    +0.000 HD
ENDROOT
BRANCH   5   9
ATOM      9  C   UNL     1      47.305   2.822   6.182  0.00  0.00    +0.000 C 
ATOM     10  N   UNL     1      48.647   2.573   6.275  0.00  0.00    +0.000 N 
ATOM     11  O   UNL     1      46.805   3.052   5.081  0.00  0.00    +0.000 OA
ATOM     12  H   UNL     1      49.162   2.384   7.121  0.00  0.00    +0.000 HD
ATOM     13  H   UNL     1      49.168   2.591   5.407  0.00  0.00    +0.000 HD
ENDBRANCH   5   9
BRANCH   1  14
ATOM     14  C   UNL     1      43.808   4.051  11.533  0.00  0.00    +0.000 C 
ATOM     15  C   UNL     1      43.319   5.049  10.483  0.00  0.00    +0.000 C 
BRANCH  14  20
ATOM     16  C   UNL     1      48.198   6.329  14.465  0.00  0.00    +0.000 C 
ATOM     17  C   UNL     1      47.092   5.728  13.668  0.00  0.00    +0.000 A 
ATOM     18  C   UNL     1      46.407   6.420  12.694  0.00  0.00    +0.000 A 
ATOM     19  N   UNL     1      45.382   5.906  11.991  0.00  0.00    +0.000 NA
ATOM     20  C   UNL     1      45.030   4.630  12.268  0.00  0.00    +0.000 A 
ATOM     21  N   UNL     1      45.640   3.864  13.204  0.00  0.00    +0.000 NA
ATOM     22  C   UNL     1      46.663   4.433  13.872  0.00  0.00    +0.000 A 
ENDBRANCH  14  20
ENDBRANCH   1  14
TORSDOF 3
ENDMDL
MODEL 6
REMARK VINA RESULT:    -6.580      4.092      6.266
REMARK INTER + INTRA:          -8.031
REMARK INTER:                  -7.637
REMARK INTRA:                  -0.394
REMARK UNBOUND:                -0.297
REMARK  Name = 
REMARK  5 active torsions:
REMARK  status: ('A' for Active; 'I' for Inactive)
REMARK    1  A    between atoms: C_1  and  C_2
REMARK    2  A    between atoms: C_5  and  C_6
REMARK    3  A    between atoms: C_6  and  C_7
REMARK    4  A    between atoms: C_6  and  N_8
REMARK    5  A    between atoms: C_12  and  C_13
REMARK                            x       y       z     vdW  Elec       q    Type
REMARK                         _______ _______ _______ _____ _____    ______ ____
ROOT
ATOM      1  N   UNL     1      47.723   5.206  15.460  0.00  0.00    +0.000 N 
ATOM      2  C   UNL     1      47.006   5.098  14.270  0.00  0.00    +0.000 A 
ATOM      3  C   UNL     1      47.143   6.107  13.317  0.00  0.00    +0.000 A 
ATOM      4  C   UNL     1      46.414   6.047  12.127  0.00  0.00    +0.000 A 
ATOM      5  C   UNL     1      45.569   4.964  11.892  0.00  0.00    +0.000 A 
ATOM      6  C   UNL     1      45.488   4.008  12.888  0.00  0.00    +0.000 A 
ATOM      7  N   UNL     1      46.169   4.059  14.065  0.00  0.00    +0.000 NA
ATOM      8  H   UNL     1      48.717   5.333  15.264  0.00  0.00    +0.000 HD
ENDROOT
BRANCH   5   9
ATOM      9  C   UNL     1      44.816   4.901  10.614  0.00  0.00    +0.000 C 
ATOM     10  N   UNL     1      45.389   5.392   9.472  0.00  0.00    +0.000 N 
ATOM     11  O   UNL     1      43.681   4.427  10.567  0.00  0.00    +0.000 OA
ATOM     12  H   UNL     1      46.303   5.810   9.396  0.00  0.00    +0.000 HD
ATOM     13  H   UNL     1      44.831   5.334   8.630  0.00  0.00    +0.000 HD
ENDBRANCH   5   9
BRANCH   1  14
ATOM     14  C   UNL     1      47.568   4.124  16.462  0.00  0.00    +0.000 C 
ATOM     15  C   UNL     1      47.052   4.716  17.774  0.00  0.00    +0.000 C 
BRANCH  14  20
ATOM     16  C   UNL     1      52.468   1.356  17.639  0.00  0.00    +0.000 C 
ATOM     17  C   UNL     1      51.221   2.095  17.294  0.00  0.00    +0.000 A 
ATOM     18  C   UNL     1      50.992   3.399  17.673  0.00  0.00    +0.000 A 
ATOM     19  N   UNL     1      49.857   4.069  17.402  0.00  0.00    +0.000 NA
ATOM     20  C   UNL     1      48.905   3.405  16.709  0.00  0.00    +0.000 A 
ATOM     21  N   UNL     1      49.032   2.122  16.290  0.00  0.00    +0.000 NA
ATOM     22  C   UNL     1      50.193   1.506  16.587  0.00  0.00    +0.000 A 
ENDBRANCH  14  20
ENDBRANCH   1  14
TORSDOF 3
ENDMDL
MODEL 7
REMARK VINA RESULT:    -5.724      3.522      5.656
REMARK INTER + INTRA:          -7.025
REMARK INTER:                  -6.765
REMARK INTRA:                  -0.260
REMARK UNBOUND:                -0.297
REMARK  Name = 
REMARK  5 active torsions:
REMARK  status: ('A' for Active; 'I' for Inactive)
REMARK    1  A    between atoms: C_1  and  C_2
REMARK    2  A    between atoms: C_5  and  C_6
REMARK    3  A    between atoms: C_6  and  C_7
REMARK    4  A    between atoms: C_6  and  N_8
REMARK    5  A    between atoms: C_12  and  C_13
REMARK                            x       y       z     vdW  Elec       q    Type
REMARK                         _______ _______ _______ _____ _____    ______ ____
ROOT
ATOM      1  N   UNL     1      47.117   5.452  15.056  0.00  0.00    +0.000 N 
ATOM      2  C   UNL     1      46.425   5.002  13.934  0.00  0.00    +0.000 A 
ATOM      3  C   UNL     1      45.755   5.938  13.146  0.00  0.00    +0.000 A 
ATOM      4  C   UNL     1      45.025   5.518  12.032  0.00  0.00    +0.000 A 
ATOM      5  C   UNL     1      44.990   4.165  11.703  0.00  0.00    +0.000 A 
ATOM      6  C   UNL     1      45.679   3.302  12.536  0.00  0.00    +0.000 A 
ATOM      7  N   UNL     1      46.375   3.686  13.640  0.00  0.00    +0.000 NA
ATOM      8  H   UNL     1      47.776   6.187  14.795  0.00  0.00    +0.000 HD
ENDROOT
BRANCH   5   9
ATOM      9  C   UNL     1      44.228   3.734  10.503  0.00  0.00    +0.000 C 
ATOM     10  N   UNL     1      44.088   4.597   9.451  0.00  0.00    +0.000 N 
ATOM     11  O   UNL     1      43.710   2.618  10.446  0.00  0.00    +0.000 OA
ATOM     12  H   UNL     1      44.458   5.532   9.394  0.00  0.00    +0.000 HD
ATOM     13  H   UNL     1      43.551   4.259   8.662  0.00  0.00    +0.000 HD
ENDBRANCH   5   9
BRANCH   1  14
ATOM     14  C   UNL     1      47.826   4.445  15.882  0.00  0.00    +0.000 C 
ATOM     15  C   UNL     1      46.872   3.894  16.944  0.00  0.00    +0.000 C 
BRANCH  14  20
ATOM     16  C   UNL     1      52.597   6.541  18.309  0.00  0.00    +0.000 C 
ATOM     17  C   UNL     1      51.333   6.028  17.711  0.00  0.00    +0.000 A 
ATOM     18  C   UNL     1      50.586   5.022  18.282  0.00  0.00    +0.000 A 
ATOM     19  N   UNL     1      49.463   4.521  17.736  0.00  0.00    +0.000 NA
ATOM     20  C   UNL     1      49.061   5.059  16.564  0.00  0.00    +0.000 A 
ATOM     21  N   UNL     1      49.722   6.051  15.920  0.00  0.00    +0.000 NA
ATOM     22  C   UNL     1      50.838   6.515  16.519  0.00  0.00    +0.000 A 
ENDBRANCH  14  20
ENDBRANCH   1  14
TORSDOF 3
ENDMDL
MODEL 8
REMARK VINA RESULT:    -5.538      5.960      8.884
REMARK INTER + INTRA:          -6.806
REMARK INTER:                  -6.439
REMARK INTRA:                  -0.367
REMARK UNBOUND:                -0.297
REMARK  Name = 
REMARK  5 active torsions:
REMARK  status: ('A' for Active; 'I' for Inactive)
REMARK    1  A    between atoms: C_1  and  C_2
REMARK    2  A    between atoms: C_5  and  C_6
REMARK    3  A    between atoms: C_6  and  C_7
REMARK    4  A    between atoms: C_6  and  N_8
REMARK    5  A    between atoms: C_12  and  C_13
REMARK                            x       y       z     vdW  Elec       q    Type
REMARK                         _______ _______ _______ _____ _____    ______ ____
ROOT
ATOM      1  N   UNL     1      48.663   3.165  16.702  0.00  0.00    +0.000 N 
ATOM      2  C   UNL     1      49.979   2.922  17.089  0.00  0.00    +0.000 A 
ATOM      3  C   UNL     1      50.445   1.607  17.074  0.00  0.00    +0.000 A 
ATOM      4  C   UNL     1      51.748   1.323  17.486  0.00  0.00    +0.000 A 
ATOM      5  C   UNL     1      52.583   2.362  17.891  0.00  0.00    +0.000 A 
ATOM      6  C   UNL     1      52.044   3.636  17.879  0.00  0.00    +0.000 A 
ATOM      7  N   UNL     1      50.770   3.932  17.506  0.00  0.00    +0.000 NA
ATOM      8  H   UNL     1      48.487   2.770  15.777  0.00  0.00    +0.000 HD
ENDROOT
BRANCH   5   9
ATOM      9  C   UNL     1      53.974   2.050  18.306  0.00  0.00    +0.000 C 
ATOM     10  N   UNL     1      54.229   1.727  19.611  0.00  0.00    +0.000 N 
ATOM     11  O   UNL     1      54.903   2.091  17.499  0.00  0.00    +0.000 OA
ATOM     12  H   UNL     1      53.551   1.674  20.355  0.00  0.00    +0.000 HD
ATOM     13  H   UNL     1      55.194   1.533  19.845  0.00  0.00    +0.000 HD
ENDBRANCH   5   9
BRANCH   1  14
ATOM     14  C   UNL     1      48.184   4.568  16.722  0.00  0.00    +0.000 C 
ATOM     15  C   UNL     1      47.130   4.731  17.819  0.00  0.00    +0.000 C 
BRANCH  14  20
ATOM     16  C   UNL     1      46.127   5.889  11.519  0.00  0.00    +0.000 C 
ATOM     17  C   UNL     1      46.632   5.585  12.887  0.00  0.00    +0.000 A 
ATOM     18  C   UNL     1      47.679   6.263  13.469  0.00  0.00    +0.000 A 
ATOM     19  N   UNL     1      48.172   5.977  14.687  0.00  0.00    +0.000 NA
ATOM     20  C   UNL     1      47.582   4.966  15.363  0.00  0.00    +0.000 A 
ATOM     21  N   UNL     1      46.547   4.237  14.881  0.00  0.00    +0.000 NA
ATOM     22  C   UNL     1      46.094   4.575  13.657  0.00  0.00    +0.000 A 
ENDBRANCH  14  20
ENDBRANCH   1  14
TORSDOF 3
ENDMDL
MODEL 9
REMARK VINA RESULT:    -5.500      5.159      8.368
REMARK INTER + INTRA:          -6.762
REMARK INTER:                  -6.326
REMARK INTRA:                  -0.436
REMARK UNBOUND:                -0.297
REMARK  Name = 
REMARK  5 active torsions:
REMARK  status: ('A' for Active; 'I' for Inactive)
REMARK    1  A    between atoms: C_1  and  C_2
REMARK    2  A    between atoms: C_5  and  C_6
REMARK    3  A    between atoms: C_6  and  C_7
REMARK    4  A    between atoms: C_6  and  N_8
REMARK    5  A    between atoms: C_12  and  C_13
REMARK                            x       y       z     vdW  Elec       q    Type
REMARK                         _______ _______ _______ _____ _____    ______ ____
ROOT
ATOM      1  N   UNL     1      48.242   7.197  14.745  0.00  0.00    +0.000 N 
ATOM      2  C   UNL     1      48.480   6.522  15.940  0.00  0.00    +0.000 A 
ATOM      3  C   UNL     1      48.593   7.267  17.114  0.00  0.00    +0.000 A 
ATOM      4  C   UNL     1      48.863   6.626  18.324  0.00  0.00    +0.000 A 
ATOM      5  C   UNL     1      48.998   5.240  18.353  0.00  0.00    +0.000 A 
ATOM      6  C   UNL     1      48.875   4.576  17.146  0.00  0.00    +0.000 A 
ATOM      7  N   UNL     1      48.636   5.182  15.952  0.00  0.00    +0.000 NA
ATOM      8  H   UNL     1      47.415   7.791  14.832  0.00  0.00    +0.000 HD
ENDROOT
BRANCH   5   9
ATOM      9  C   UNL     1      49.264   4.568  19.650  0.00  0.00    +0.000 C 
ATOM     10  N   UNL     1      48.498   3.496  20.021  0.00  0.00    +0.000 N 
ATOM     11  O   UNL     1      50.153   4.967  20.403  0.00  0.00    +0.000 OA
ATOM     12  H   UNL     1      47.741   3.093  19.491  0.00  0.00    +0.000 HD
ATOM     13  H   UNL     1      48.713   3.080  20.918  0.00  0.00    +0.000 HD
ENDBRANCH   5   9
BRANCH   1  14
ATOM     14  C   UNL     1      48.122   6.390  13.507  0.00  0.00    +0.000 C 
ATOM     15  C   UNL     1      48.876   7.085  12.371  0.00  0.00    +0.000 C 
BRANCH  14  20
ATOM     16  C   UNL     1      42.699   5.546  11.796  0.00  0.00    +0.000 C 
ATOM     17  C   UNL     1      44.087   5.798  12.273  0.00  0.00    +0.000 A 
ATOM     18  C   UNL     1      44.851   6.856  11.833  0.00  0.00    +0.000 A 
ATOM     19  N   UNL     1      46.119   7.077  12.225  0.00  0.00    +0.000 NA
ATOM     20  C   UNL     1      46.648   6.203  13.110  0.00  0.00    +0.000 A 
ATOM     21  N   UNL     1      45.981   5.131  13.604  0.00  0.00    +0.000 NA
ATOM     22  C   UNL     1      44.713   4.965  13.177  0.00  0.00    +0.000 A 
ENDBRANCH  14  20
ENDBRANCH   1  14
TORSDOF 3
ENDMDL
