MODEL 1
REMARK VINA RESULT:    -7.992      0.000      0.000
REMARK INTER + INTRA:         -11.020
REMARK INTER:                 -11.262
REMARK INTRA:                   0.243
REMARK UNBOUND:                 0.243
REMARK  Name = 
REMARK  9 active torsions:
REMARK  status: ('A' for Active; 'I' for Inactive)
REMARK    1  A    between atoms: C_1  and  N_2
REMARK    2  A    between atoms: N_2  and  C_3
REMARK    3  A    between atoms: N_2  and  C_4
REMARK    4  A    between atoms: C_4  and  C_5
REMARK    5  A    between atoms: C_5  and  N_6
REMARK    6  A    between atoms: C_7  and  C_9
REMARK    7  A    between atoms: N_13  and  C_14
REMARK    8  A    between atoms: C_14  and  C_15
REMARK    9  A    between atoms: C_15  and  C_16
REMARK                            x       y       z     vdW  Elec       q    Type
REMARK                         _______ _______ _______ _____ _____    ______ ____
ROOT
ATOM      1  C   UNL     1      46.859   5.038  13.809  0.00  0.00    +0.000 A 
ATOM      2  C   UNL     1      47.139   6.107  12.964  0.00  0.00    +0.000 A 
ATOM      3  C   UNL     1      46.560   6.133  11.688  0.00  0.00    +0.000 A 
ATOM      4  C   UNL     1      45.672   5.127  11.299  0.00  0.00    +0.000 A 
ATOM      5  N   UNL     1      45.153   5.154   9.990  0.00  0.00    +0.000 N 
ATOM      6  N   UNL     1      45.394   4.093  12.116  0.00  0.00    +0.000 NA
ATOM      7  C   UNL     1      46.001   4.057  13.332  0.00  0.00    +0.000 A 
ATOM      8  H   UNL     1      45.055   6.114   9.678  0.00  0.00    +0.000 HD
ENDROOT
BRANCH   1  10
ATOM      9  N   UNL     1      47.171   3.703  15.844  0.00  0.00    +0.000 N 
ATOM     10  C   UNL     1      47.481   4.847  15.136  0.00  0.00    +0.000 C 
ATOM     11  O   UNL     1      48.258   5.701  15.563  0.00  0.00    +0.000 OA
ATOM     12  H   UNL     1      46.758   2.904  15.376  0.00  0.00    +0.000 HD
BRANCH   9  13
ATOM     13  C   UNL     1      47.827   3.439  17.112  0.00  0.00    +0.000 C 
BRANCH  13  14
ATOM     14  C   UNL     1      48.901   2.342  17.013  0.00  0.00    +0.000 C 
BRANCH  14  16
ATOM     15  C   UNL     1      50.516   4.007  17.757  0.00  0.00    +0.000 C 
ATOM     16  N   UNL     1      50.294   2.837  16.901  0.00  0.00    +0.000 NA
ATOM     17  C   UNL     1      51.216   1.766  17.307  0.00  0.00    +0.000 C 
ENDBRANCH  14  16
ENDBRANCH  13  14
ENDBRANCH   9  13
ENDBRANCH   1  10
BRANCH   5  18
ATOM     18  C   UNL     1      43.898   4.405   9.856  0.00  0.00    +0.000 C 
BRANCH  18  19
ATOM     19  C   UNL     1      44.201   2.933   9.537  0.00  0.00    +0.000 C 
BRANCH  19  20
ATOM     20  C   UNL     1      45.287   2.791   8.516  0.00  0.00    +0.000 A 
ATOM     21  C   UNL     1      46.090   1.675   8.427  0.00  0.00    +0.000 A 
ATOM     22  N   UNL     1      47.107   1.550   7.553  0.00  0.00    +0.000 NA
ATOM     23  C   UNL     1      47.335   2.593   6.751  0.00  0.00    +0.000 A 
ATOM     24  N   UNL     1      48.382   2.499   5.860  0.00  0.00    +0.000 N 
ATOM     25  N   UNL     1      46.603   3.710   6.725  0.00  0.00    +0.000 NA
ATOM     26  C   UNL     1      45.595   3.789   7.618  0.00  0.00    +0.000 A 
ATOM     27  H   UNL     1      48.582   1.527   5.669  0.00  0.00    +0.000 HD
ATOM     28  H   UNL     1      48.213   3.107   5.072  0.00  0.00    +0.000 HD
ENDBRANCH  19  20
ENDBRANCH  18  19
ENDBRANCH   5  18
TORSDOF 7
ENDMDL
MODEL 2
REMARK VINA RESULT:    -7.932      2.732      4.367
REMARK INTER + INTRA:         -10.935
REMARK INTER:                 -10.185
REMARK INTRA:                  -0.750
REMARK UNBOUND:                 0.243
REMARK  Name = 
REMARK  9 active torsions:
REMARK  status: ('A' for Active; 'I' for Inactive)
REMARK    1  A    between atoms: C_1  and  N_2
REMARK    2  A    between atoms: N_2  and  C_3
REMARK    3  A    between atoms: N_2  and  C_4
REMARK    4  A    between atoms: C_4  and  C_5
REMARK    5  A    between atoms: C_5  and  N_6
REMARK    6  A    between atoms: C_7  and  C_9
REMARK    7  A    between atoms: N_13  and  C_14
REMARK    8  A    between atoms: C_14  and  C_15
REMARK    9  A    between atoms: C_15  and  C_16
REMARK                            x       y       z     vdW  Elec       q    Type
REMARK                         _______ _______ _______ _____ _____    ______ ____
ROOT
ATOM      1  C   UNL     1      47.105   5.661  13.189  0.00  0.00    +0.000 A 
ATOM      2  C   UNL     1      46.961   4.409  13.777  0.00  0.00    +0.000 A 
ATOM      3  C   UNL     1      46.051   3.500  13.223  0.00  0.00    +0.000 A 
ATOM      4  C   UNL     1      45.344   3.832  12.064  0.00  0.00    +0.000 A 
ATOM      5  N   UNL     1      44.395   2.917  11.566  0.00  0.00    +0.000 N 
ATOM      6  N   UNL     1      45.485   5.041  11.488  0.00  0.00    +0.000 NA
ATOM      7  C   UNL     1      46.336   5.930  12.065  0.00  0.00    +0.000 A 
ATOM      8  H   UNL     1      44.694   1.969  11.767  0.00  0.00    +0.000 HD
ENDROOT
BRANCH   1  10
ATOM      9  N   UNL     1      47.361   7.935  14.078  0.00  0.00    +0.000 N 
ATOM     10  C   UNL     1      47.959   6.739  13.733  0.00  0.00    +0.000 C 
ATOM     11  O   UNL     1      49.166   6.535  13.873  0.00  0.00    +0.000 OA
ATOM     12  H   UNL     1      46.358   7.989  14.210  0.00  0.00    +0.000 HD
BRANCH   9  13
ATOM     13  C   UNL     1      48.152   8.984  14.696  0.00  0.00    +0.000 C 
BRANCH  13  14
ATOM     14  C   UNL     1      48.541  10.099  13.710  0.00  0.00    +0.000 C 
BRANCH  14  16
ATOM     15  C   UNL     1      47.683  10.858  11.560  0.00  0.00    +0.000 C 
ATOM     16  N   UNL     1      48.348   9.766  12.279  0.00  0.00    +0.000 NA
ATOM     17  C   UNL     1      49.661   9.519  11.664  0.00  0.00    +0.000 C 
ENDBRANCH  14  16
ENDBRANCH  13  14
ENDBRANCH   9  13
ENDBRANCH   1  10
BRANCH   5  18
ATOM     18  C   UNL     1      44.106   3.110  10.141  0.00  0.00    +0.000 C 
BRANCH  18  19
ATOM     19  C   UNL     1      44.458   1.835   9.359  0.00  0.00    +0.000 C 
BRANCH  19  20
ATOM     20  C   UNL     1      45.623   2.043   8.442  0.00  0.00    +0.000 A 
ATOM     21  C   UNL     1      45.955   3.274   7.920  0.00  0.00    +0.000 A 
ATOM     22  N   UNL     1      46.964   3.473   7.050  0.00  0.00    +0.000 NA
ATOM     23  C   UNL     1      47.653   2.391   6.679  0.00  0.00    +0.000 A 
ATOM     24  N   UNL     1      48.680   2.564   5.775  0.00  0.00    +0.000 N 
ATOM     25  N   UNL     1      47.443   1.157   7.144  0.00  0.00    +0.000 NA
ATOM     26  C   UNL     1      46.422   1.006   8.012  0.00  0.00    +0.000 A 
ATOM     27  H   UNL     1      49.015   3.516   5.816  0.00  0.00    +0.000 HD
ATOM     28  H   UNL     1      49.356   1.823   5.884  0.00  0.00    +0.000 HD
ENDBRANCH  19  20
ENDBRANCH  18  19
ENDBRANCH   5  18
TORSDOF 7
ENDMDL
MODEL 3
REMARK VINA RESULT:    -7.775      2.040      2.750
REMARK INTER + INTRA:         -10.714
REMARK INTER:                 -10.013
REMARK INTRA:                  -0.700
REMARK UNBOUND:                 0.243
REMARK  Name = 
REMARK  9 active torsions:
REMARK  status: ('A' for Active; 'I' for Inactive)
REMARK    1  A    between atoms: C_1  and  N_2
REMARK    2  A    between atoms: N_2  and  C_3
REMARK    3  A    between atoms: N_2  and  C_4
REMARK    4  A    between atoms: C_4  and  C_5
REMARK    5  A    between atoms: C_5  and  N_6
REMARK    6  A    between atoms: C_7  and  C_9
REMARK    7  A    between atoms: N_13  and  C_14
REMARK    8  A    between atoms: C_14  and  C_15
REMARK    9  A    between atoms: C_15  and  C_16
REMARK                            x       y       z     vdW  Elec       q    Type
REMARK                         _______ _______ _______ _____ _____    ______ ____
ROOT
ATOM      1  C   UNL     1      47.218   5.995  13.294  0.00  0.00    +0.000 A 
ATOM      2  C   UNL     1      46.588   4.969  13.990  0.00  0.00    +0.000 A 
ATOM      3  C   UNL     1      45.556   4.257  13.363  0.00  0.00    +0.000 A 
ATOM      4  C   UNL     1      45.209   4.543  12.040  0.00  0.00    +0.000 A 
ATOM      5  N   UNL     1      44.130   3.848  11.460  0.00  0.00    +0.000 N 
ATOM      6  N   UNL     1      45.821   5.532  11.360  0.00  0.00    +0.000 NA
ATOM      7  C   UNL     1      46.787   6.244  11.998  0.00  0.00    +0.000 A 
ATOM      8  H   UNL     1      44.077   2.911  11.844  0.00  0.00    +0.000 HD
ENDROOT
BRANCH   1  10
ATOM      9  N   UNL     1      47.879   7.739  14.888  0.00  0.00    +0.000 N 
ATOM     10  C   UNL     1      48.252   6.877  13.876  0.00  0.00    +0.000 C 
ATOM     11  O   UNL     1      49.406   6.811  13.452  0.00  0.00    +0.000 OA
ATOM     12  H   UNL     1      47.015   7.592  15.397  0.00  0.00    +0.000 HD
BRANCH   9  13
ATOM     13  C   UNL     1      48.882   8.559  15.544  0.00  0.00    +0.000 C 
BRANCH  13  14
ATOM     14  C   UNL     1      49.452   7.906  16.815  0.00  0.00    +0.000 C 
BRANCH  14  16
ATOM     15  C   UNL     1      49.508   5.526  17.335  0.00  0.00    +0.000 C 
ATOM     16  N   UNL     1      48.686   6.741  17.318  0.00  0.00    +0.000 NA
ATOM     17  C   UNL     1      48.226   7.025  18.685  0.00  0.00    +0.000 C 
ENDBRANCH  14  16
ENDBRANCH  13  14
ENDBRANCH   9  13
ENDBRANCH   1  10
BRANCH   5  18
ATOM     18  C   UNL     1      44.178   3.837   9.993  0.00  0.00    +0.000 C 
BRANCH  18  19
ATOM     19  C   UNL     1      44.545   2.431   9.494  0.00  0.00    +0.000 C 
BRANCH  19  20
ATOM     20  C   UNL     1      45.517   2.475   8.356  0.00  0.00    +0.000 A 
ATOM     21  C   UNL     1      46.359   1.428   8.050  0.00  0.00    +0.000 A 
ATOM     22  N   UNL     1      47.279   1.468   7.066  0.00  0.00    +0.000 NA
ATOM     23  C   UNL     1      47.365   2.608   6.377  0.00  0.00    +0.000 A 
ATOM     24  N   UNL     1      48.310   2.682   5.377  0.00  0.00    +0.000 N 
ATOM     25  N   UNL     1      46.580   3.673   6.563  0.00  0.00    +0.000 NA
ATOM     26  C   UNL     1      45.675   3.587   7.559  0.00  0.00    +0.000 A 
ATOM     27  H   UNL     1      48.536   1.753   5.050  0.00  0.00    +0.000 HD
ATOM     28  H   UNL     1      48.026   3.365   4.691  0.00  0.00    +0.000 HD
ENDBRANCH  19  20
ENDBRANCH  18  19
ENDBRANCH   5  18
TORSDOF 7
ENDMDL
MODEL 4
REMARK VINA RESULT:    -7.379      2.547      3.186
REMARK INTER + INTRA:         -10.156
REMARK INTER:                  -9.582
REMARK INTRA:                  -0.574
REMARK UNBOUND:                 0.243
REMARK  Name = 
REMARK  9 active torsions:
REMARK  status: ('A' for Active; 'I' for Inactive)
REMARK    1  A    between atoms: C_1  and  N_2
REMARK    2  A    between atoms: N_2  and  C_3
REMARK    3  A    between atoms: N_2  and  C_4
REMARK    4  A    between atoms: C_4  and  C_5
REMARK    5  A    between atoms: C_5  and  N_6
REMARK    6  A    between atoms: C_7  and  C_9
REMARK    7  A    between atoms: N_13  and  C_14
REMARK    8  A    between atoms: C_14  and  C_15
REMARK    9  A    between atoms: C_15  and  C_16
REMARK                            x       y       z     vdW  Elec       q    Type
REMARK                         _______ _______ _______ _____ _____    ______ ____
ROOT
ATOM      1  C   UNL     1      46.854   7.769  13.041  0.00  0.00    +0.000 A 
ATOM      2  C   UNL     1      45.649   8.276  12.567  0.00  0.00    +0.000 A 
ATOM      3  C   UNL     1      44.845   7.466  11.753  0.00  0.00    +0.000 A 
ATOM      4  C   UNL     1      45.228   6.152  11.473  0.00  0.00    +0.000 A 
ATOM      5  N   UNL     1      44.426   5.385  10.606  0.00  0.00    +0.000 N 
ATOM      6  N   UNL     1      46.392   5.655  11.935  0.00  0.00    +0.000 NA
ATOM      7  C   UNL     1      47.183   6.469  12.683  0.00  0.00    +0.000 A 
ATOM      8  H   UNL     1      43.454   5.657  10.705  0.00  0.00    +0.000 HD
ENDROOT
BRANCH   1  10
ATOM      9  N   UNL     1      47.503   8.893  15.124  0.00  0.00    +0.000 N 
ATOM     10  C   UNL     1      47.830   8.554  13.826  0.00  0.00    +0.000 C 
ATOM     11  O   UNL     1      48.902   8.869  13.308  0.00  0.00    +0.000 OA
ATOM     12  H   UNL     1      46.759   8.406  15.611  0.00  0.00    +0.000 HD
BRANCH   9  13
ATOM     13  C   UNL     1      48.471   9.588  15.954  0.00  0.00    +0.000 C 
BRANCH  13  14
ATOM     14  C   UNL     1      49.312   8.633  16.819  0.00  0.00    +0.000 C 
BRANCH  14  16
ATOM     15  C   UNL     1      49.513   6.206  16.779  0.00  0.00    +0.000 C 
ATOM     16  N   UNL     1      48.660   7.342  17.143  0.00  0.00    +0.000 NA
ATOM     17  C   UNL     1      48.388   7.292  18.587  0.00  0.00    +0.000 C 
ENDBRANCH  14  16
ENDBRANCH  13  14
ENDBRANCH   9  13
ENDBRANCH   1  10
BRANCH   5  18
ATOM     18  C   UNL     1      44.611   3.940  10.783  0.00  0.00    +0.000 C 
BRANCH  18  19
ATOM     19  C   UNL     1      44.179   3.199   9.508  0.00  0.00    +0.000 C 
BRANCH  19  20
ATOM     20  C   UNL     1      45.323   2.989   8.566  0.00  0.00    +0.000 A 
ATOM     21  C   UNL     1      45.939   1.768   8.396  0.00  0.00    +0.000 A 
ATOM     22  N   UNL     1      47.004   1.570   7.596  0.00  0.00    +0.000 NA
ATOM     23  C   UNL     1      47.477   2.643   6.956  0.00  0.00    +0.000 A 
ATOM     24  N   UNL     1      48.578   2.472   6.144  0.00  0.00    +0.000 N 
ATOM     25  N   UNL     1      46.941   3.865   7.018  0.00  0.00    +0.000 NA
ATOM     26  C   UNL     1      45.877   4.015   7.832  0.00  0.00    +0.000 A 
ATOM     27  H   UNL     1      48.636   1.509   5.845  0.00  0.00    +0.000 HD
ATOM     28  H   UNL     1      48.588   3.187   5.432  0.00  0.00    +0.000 HD
ENDBRANCH  19  20
ENDBRANCH  18  19
ENDBRANCH   5  18
TORSDOF 7
ENDMDL
MODEL 5
REMARK VINA RESULT:    -7.317      1.928      2.505
REMARK INTER + INTRA:         -10.069
REMARK INTER:                  -9.479
REMARK INTRA:                  -0.590
REMARK UNBOUND:                 0.243
REMARK  Name = 
REMARK  9 active torsions:
REMARK  status: ('A' for Active; 'I' for Inactive)
REMARK    1  A    between atoms: C_1  and  N_2
REMARK    2  A    between atoms: N_2  and  C_3
REMARK    3  A    between atoms: N_2  and  C_4
REMARK    4  A    between atoms: C_4  and  C_5
REMARK    5  A    between atoms: C_5  and  N_6
REMARK    6  A    between atoms: C_7  and  C_9
REMARK    7  A    between atoms: N_13  and  C_14
REMARK    8  A    between atoms: C_14  and  C_15
REMARK    9  A    between atoms: C_15  and  C_16
REMARK                            x       y       z     vdW  Elec       q    Type
REMARK                         _______ _______ _______ _____ _____    ______ ____
ROOT
ATOM      1  C   UNL     1      47.296   5.032  14.833  0.00  0.00    +0.000 A 
ATOM      2  C   UNL     1      47.041   6.126  14.014  0.00  0.00    +0.000 A 
ATOM      3  C   UNL     1      46.398   5.920  12.786  0.00  0.00    +0.000 A 
ATOM      4  C   UNL     1      45.974   4.640  12.422  0.00  0.00    +0.000 A 
ATOM      5  N   UNL     1      45.382   4.459  11.156  0.00  0.00    +0.000 N 
ATOM      6  N   UNL     1      46.213   3.578  13.215  0.00  0.00    +0.000 NA
ATOM      7  C   UNL     1      46.880   3.787  14.380  0.00  0.00    +0.000 A 
ATOM      8  H   UNL     1      44.873   5.295  10.891  0.00  0.00    +0.000 HD
ENDROOT
BRANCH   1  10
ATOM      9  N   UNL     1      47.417   4.695  17.260  0.00  0.00    +0.000 N 
ATOM     10  C   UNL     1      48.048   5.106  16.103  0.00  0.00    +0.000 C 
ATOM     11  O   UNL     1      49.209   5.517  16.090  0.00  0.00    +0.000 OA
ATOM     12  H   UNL     1      46.584   4.119  17.216  0.00  0.00    +0.000 HD
BRANCH   9  13
ATOM     13  C   UNL     1      48.152   4.671  18.513  0.00  0.00    +0.000 C 
BRANCH  13  14
ATOM     14  C   UNL     1      47.688   5.756  19.499  0.00  0.00    +0.000 C 
BRANCH  14  16
ATOM     15  C   UNL     1      49.979   6.568  19.341  0.00  0.00    +0.000 C 
ATOM     16  N   UNL     1      48.583   6.933  19.603  0.00  0.00    +0.000 NA
ATOM     17  C   UNL     1      48.161   7.943  18.621  0.00  0.00    +0.000 C 
ENDBRANCH  14  16
ENDBRANCH  13  14
ENDBRANCH   9  13
ENDBRANCH   1  10
BRANCH   5  18
ATOM     18  C   UNL     1      44.541   3.259  11.083  0.00  0.00    +0.000 C 
BRANCH  18  19
ATOM     19  C   UNL     1      44.104   3.014   9.631  0.00  0.00    +0.000 C 
BRANCH  19  20
ATOM     20  C   UNL     1      45.275   2.887   8.706  0.00  0.00    +0.000 A 
ATOM     21  C   UNL     1      45.748   3.937   7.949  0.00  0.00    +0.000 A 
ATOM     22  N   UNL     1      46.764   3.830   7.071  0.00  0.00    +0.000 NA
ATOM     23  C   UNL     1      47.312   2.620   6.937  0.00  0.00    +0.000 A 
ATOM     24  N   UNL     1      48.342   2.479   6.032  0.00  0.00    +0.000 N 
ATOM     25  N   UNL     1      46.959   1.541   7.641  0.00  0.00    +0.000 NA
ATOM     26  C   UNL     1      45.937   1.696   8.508  0.00  0.00    +0.000 A 
ATOM     27  H   UNL     1      48.791   3.372   5.883  0.00  0.00    +0.000 HD
ATOM     28  H   UNL     1      48.924   1.699   6.299  0.00  0.00    +0.000 HD
ENDBRANCH  19  20
ENDBRANCH  18  19
ENDBRANCH   5  18
TORSDOF 7
ENDMDL
MODEL 6
REMARK VINA RESULT:    -7.256      1.475      1.968
REMARK INTER + INTRA:          -9.983
REMARK INTER:                 -10.324
REMARK INTRA:                   0.342
REMARK UNBOUND:                 0.243
REMARK  Name = 
REMARK  9 active torsions:
REMARK  status: ('A' for Active; 'I' for Inactive)
REMARK    1  A    between atoms: C_1  and  N_2
REMARK    2  A    between atoms: N_2  and  C_3
REMARK    3  A    between atoms: N_2  and  C_4
REMARK    4  A    between atoms: C_4  and  C_5
REMARK    5  A    between atoms: C_5  and  N_6
REMARK    6  A    between atoms: C_7  and  C_9
REMARK    7  A    between atoms: N_13  and  C_14
REMARK    8  A    between atoms: C_14  and  C_15
REMARK    9  A    between atoms: C_15  and  C_16
REMARK                            x       y       z     vdW  Elec       q    Type
REMARK                         _______ _______ _______ _____ _____    ______ ____
ROOT
ATOM      1  C   UNL     1      46.599   4.853  13.903  0.00  0.00    +0.000 A 
ATOM      2  C   UNL     1      46.792   6.003  13.144  0.00  0.00    +0.000 A 
ATOM      3  C   UNL     1      46.282   6.048  11.839  0.00  0.00    +0.000 A 
ATOM      4  C   UNL     1      45.545   4.973  11.336  0.00  0.00    +0.000 A 
ATOM      5  N   UNL     1      45.097   5.028  10.001  0.00  0.00    +0.000 N 
ATOM      6  N   UNL     1      45.351   3.860  12.069  0.00  0.00    +0.000 NA
ATOM      7  C   UNL     1      45.892   3.813  13.315  0.00  0.00    +0.000 A 
ATOM      8  H   UNL     1      44.900   5.989   9.744  0.00  0.00    +0.000 HD
ENDROOT
BRANCH   1  10
ATOM      9  N   UNL     1      47.973   5.637  15.779  0.00  0.00    +0.000 N 
ATOM     10  C   UNL     1      47.167   4.647  15.252  0.00  0.00    +0.000 C 
ATOM     11  O   UNL     1      46.899   3.613  15.864  0.00  0.00    +0.000 OA
ATOM     12  H   UNL     1      47.961   6.572  15.389  0.00  0.00    +0.000 HD
BRANCH   9  13
ATOM     13  C   UNL     1      48.478   5.509  17.135  0.00  0.00    +0.000 C 
BRANCH  13  14
ATOM     14  C   UNL     1      49.471   6.622  17.511  0.00  0.00    +0.000 C 
BRANCH  14  16
ATOM     15  C   UNL     1      50.390   6.676  19.766  0.00  0.00    +0.000 C 
ATOM     16  N   UNL     1      50.584   6.198  18.393  0.00  0.00    +0.000 NA
ATOM     17  C   UNL     1      50.652   4.729  18.404  0.00  0.00    +0.000 C 
ENDBRANCH  14  16
ENDBRANCH  13  14
ENDBRANCH   9  13
ENDBRANCH   1  10
BRANCH   5  18
ATOM     18  C   UNL     1      43.951   4.147   9.745  0.00  0.00    +0.000 C 
BRANCH  18  19
ATOM     19  C   UNL     1      44.444   2.721   9.454  0.00  0.00    +0.000 C 
BRANCH  19  20
ATOM     20  C   UNL     1      45.497   2.698   8.390  0.00  0.00    +0.000 A 
ATOM     21  C   UNL     1      45.682   3.731   7.497  0.00  0.00    +0.000 A 
ATOM     22  N   UNL     1      46.586   3.707   6.498  0.00  0.00    +0.000 NA
ATOM     23  C   UNL     1      47.317   2.596   6.383  0.00  0.00    +0.000 A 
ATOM     24  N   UNL     1      48.236   2.537   5.358  0.00  0.00    +0.000 N 
ATOM     25  N   UNL     1      47.248   1.548   7.208  0.00  0.00    +0.000 NA
ATOM     26  C   UNL     1      46.329   1.617   8.193  0.00  0.00    +0.000 A 
ATOM     27  H   UNL     1      48.500   3.472   5.080  0.00  0.00    +0.000 HD
ATOM     28  H   UNL     1      48.975   1.893   5.600  0.00  0.00    +0.000 HD
ENDBRANCH  19  20
ENDBRANCH  18  19
ENDBRANCH   5  18
TORSDOF 7
ENDMDL
MODEL 7
REMARK VINA RESULT:    -7.043      3.392      4.537
REMARK INTER + INTRA:          -9.683
REMARK INTER:                  -8.765
REMARK INTRA:                  -0.918
REMARK UNBOUND:                 0.243
REMARK  Name = 
REMARK  9 active torsions:
REMARK  status: ('A' for Active; 'I' for Inactive)
REMARK    1  A    between atoms: C_1  and  N_2
REMARK    2  A    between atoms: N_2  and  C_3
REMARK    3  A    between atoms: N_2  and  C_4
REMARK    4  A    between atoms: C_4  and  C_5
REMARK    5  A    between atoms: C_5  and  N_6
REMARK    6  A    between atoms: C_7  and  C_9
REMARK    7  A    between atoms: N_13  and  C_14
REMARK    8  A    between atoms: C_14  and  C_15
REMARK    9  A    between atoms: C_15  and  C_16
REMARK                            x       y       z     vdW  Elec       q    Type
REMARK                         _______ _______ _______ _____ _____    ______ ____
ROOT
ATOM      1  C   UNL     1      47.643   6.782  12.552  0.00  0.00    +0.000 A 
ATOM      2  C   UNL     1      47.613   5.742  13.476  0.00  0.00    +0.000 A 
ATOM      3  C   UNL     1      46.477   4.926  13.542  0.00  0.00    +0.000 A 
ATOM      4  C   UNL     1      45.416   5.125  12.655  0.00  0.00    +0.000 A 
ATOM      5  N   UNL     1      44.265   4.323  12.787  0.00  0.00    +0.000 N 
ATOM      6  N   UNL     1      45.443   6.126  11.754  0.00  0.00    +0.000 NA
ATOM      7  C   UNL     1      46.532   6.939  11.734  0.00  0.00    +0.000 A 
ATOM      8  H   UNL     1      44.524   3.403  13.126  0.00  0.00    +0.000 HD
ENDROOT
BRANCH   1  10
ATOM      9  N   UNL     1      49.958   7.449  13.017  0.00  0.00    +0.000 N 
ATOM     10  C   UNL     1      48.740   7.767  12.449  0.00  0.00    +0.000 C 
ATOM     11  O   UNL     1      48.541   8.827  11.856  0.00  0.00    +0.000 OA
ATOM     12  H   UNL     1      50.181   6.489  13.254  0.00  0.00    +0.000 HD
BRANCH   9  13
ATOM     13  C   UNL     1      51.084   8.353  12.861  0.00  0.00    +0.000 C 
BRANCH  13  14
ATOM     14  C   UNL     1      51.291   9.267  14.081  0.00  0.00    +0.000 C 
BRANCH  14  16
ATOM     15  C   UNL     1      51.267  11.014  12.384  0.00  0.00    +0.000 C 
ATOM     16  N   UNL     1      51.130  10.716  13.814  0.00  0.00    +0.000 NA
ATOM     17  C   UNL     1      49.797  11.141  14.264  0.00  0.00    +0.000 C 
ENDBRANCH  14  16
ENDBRANCH  13  14
ENDBRANCH   9  13
ENDBRANCH   1  10
BRANCH   5  18
ATOM     18  C   UNL     1      43.474   4.249  11.554  0.00  0.00    +0.000 C 
BRANCH  18  19
ATOM     19  C   UNL     1      43.727   2.907  10.850  0.00  0.00    +0.000 C 
BRANCH  19  20
ATOM     20  C   UNL     1      44.595   3.062   9.641  0.00  0.00    +0.000 A 
ATOM     21  C   UNL     1      45.288   2.012   9.077  0.00  0.00    +0.000 A 
ATOM     22  N   UNL     1      46.117   2.140   8.024  0.00  0.00    +0.000 NA
ATOM     23  C   UNL     1      46.269   3.371   7.531  0.00  0.00    +0.000 A 
ATOM     24  N   UNL     1      47.126   3.533   6.464  0.00  0.00    +0.000 N 
ATOM     25  N   UNL     1      45.625   4.455   7.973  0.00  0.00    +0.000 NA
ATOM     26  C   UNL     1      44.805   4.278   9.030  0.00  0.00    +0.000 A 
ATOM     27  H   UNL     1      47.219   2.660   5.964  0.00  0.00    +0.000 HD
ATOM     28  H   UNL     1      46.861   4.351   5.936  0.00  0.00    +0.000 HD
ENDBRANCH  19  20
ENDBRANCH  18  19
ENDBRANCH   5  18
TORSDOF 7
ENDMDL
MODEL 8
REMARK VINA RESULT:    -6.442      3.695      4.982
REMARK INTER + INTRA:          -8.835
REMARK INTER:                  -7.870
REMARK INTRA:                  -0.965
REMARK UNBOUND:                 0.243
REMARK  Name = 
REMARK  9 active torsions:
REMARK  status: ('A' for Active; 'I' for Inactive)
REMARK    1  A    between atoms: C_1  and  N_2
REMARK    2  A    between atoms: N_2  and  C_3
REMARK    3  A    between atoms: N_2  and  C_4
REMARK    4  A    between atoms: C_4  and  C_5
REMARK    5  A    between atoms: C_5  and  N_6
REMARK    6  A    between atoms: C_7  and  C_9
REMARK    7  A    between atoms: N_13  and  C_14
REMARK    8  A    between atoms: C_14  and  C_15
REMARK    9  A    between atoms: C_15  and  C_16
REMARK                            x       y       z     vdW  Elec       q    Type
REMARK                         _______ _______ _______ _____ _____    ______ ____
ROOT
ATOM      1  C   UNL     1      48.178   7.357  12.757  0.00  0.00    +0.000 A 
ATOM      2  C   UNL     1      48.134   6.257  13.606  0.00  0.00    +0.000 A 
ATOM      3  C   UNL     1      46.977   5.467  13.635  0.00  0.00    +0.000 A 
ATOM      4  C   UNL     1      45.909   5.755  12.781  0.00  0.00    +0.000 A 
ATOM      5  N   UNL     1      44.739   4.976  12.877  0.00  0.00    +0.000 N 
ATOM      6  N   UNL     1      45.950   6.817  11.953  0.00  0.00    +0.000 NA
ATOM      7  C   UNL     1      47.060   7.600  11.971  0.00  0.00    +0.000 A 
ATOM      8  H   UNL     1      44.978   4.029  13.147  0.00  0.00    +0.000 HD
ENDROOT
BRANCH   1  10
ATOM      9  N   UNL     1      49.367   9.185  11.631  0.00  0.00    +0.000 N 
ATOM     10  C   UNL     1      49.300   8.318  12.704  0.00  0.00    +0.000 C 
ATOM     11  O   UNL     1      50.128   8.325  13.615  0.00  0.00    +0.000 OA
ATOM     12  H   UNL     1      48.554   9.348  11.050  0.00  0.00    +0.000 HD
BRANCH   9  13
ATOM     13  C   UNL     1      50.405  10.200  11.589  0.00  0.00    +0.000 C 
BRANCH  13  14
ATOM     14  C   UNL     1      51.541   9.854  10.611  0.00  0.00    +0.000 C 
BRANCH  14  16
ATOM     15  C   UNL     1      52.939   9.991  12.602  0.00  0.00    +0.000 C 
ATOM     16  N   UNL     1      52.811   9.436  11.250  0.00  0.00    +0.000 NA
ATOM     17  C   UNL     1      52.846   7.969  11.331  0.00  0.00    +0.000 C 
ENDBRANCH  14  16
ENDBRANCH  13  14
ENDBRANCH   9  13
ENDBRANCH   1  10
BRANCH   5  18
ATOM     18  C   UNL     1      43.927   5.010  11.655  0.00  0.00    +0.000 C 
BRANCH  18  19
ATOM     19  C   UNL     1      43.934   3.627  10.986  0.00  0.00    +0.000 C 
BRANCH  19  20
ATOM     20  C   UNL     1      44.809   3.595   9.772  0.00  0.00    +0.000 A 
ATOM     21  C   UNL     1      45.265   4.735   9.147  0.00  0.00    +0.000 A 
ATOM     22  N   UNL     1      46.008   4.729   8.024  0.00  0.00    +0.000 NA
ATOM     23  C   UNL     1      46.287   3.533   7.500  0.00  0.00    +0.000 A 
ATOM     24  N   UNL     1      47.030   3.499   6.340  0.00  0.00    +0.000 N 
ATOM     25  N   UNL     1      45.928   2.363   8.036  0.00  0.00    +0.000 NA
ATOM     26  C   UNL     1      45.186   2.419   9.161  0.00  0.00    +0.000 A 
ATOM     27  H   UNL     1      47.580   4.342   6.261  0.00  0.00    +0.000 HD
ATOM     28  H   UNL     1      47.513   2.615   6.271  0.00  0.00    +0.000 HD
ENDBRANCH  19  20
ENDBRANCH  18  19
ENDBRANCH   5  18
TORSDOF 7
ENDMDL
MODEL 9
REMARK VINA RESULT:    -6.355      2.488      8.292
REMARK INTER + INTRA:          -8.712
REMARK INTER:                  -7.955
REMARK INTRA:                  -0.758
REMARK UNBOUND:                 0.243
REMARK  Name = 
REMARK  9 active torsions:
REMARK  status: ('A' for Active; 'I' for Inactive)
REMARK    1  A    between atoms: C_1  and  N_2
REMARK    2  A    between atoms: N_2  and  C_3
REMARK    3  A    between atoms: N_2  and  C_4
REMARK    4  A    between atoms: C_4  and  C_5
REMARK    5  A    between atoms: C_5  and  N_6
REMARK    6  A    between atoms: C_7  and  C_9
REMARK    7  A    between atoms: N_13  and  C_14
REMARK    8  A    between atoms: C_14  and  C_15
REMARK    9  A    between atoms: C_15  and  C_16
REMARK                            x       y       z     vdW  Elec       q    Type
REMARK                         _______ _______ _______ _____ _____    ______ ____
ROOT
ATOM      1  C   UNL     1      46.730   6.788  12.824  0.00  0.00    +0.000 A 
ATOM      2  C   UNL     1      46.895   8.157  13.003  0.00  0.00    +0.000 A 
ATOM      3  C   UNL     1      47.821   8.611  13.950  0.00  0.00    +0.000 A 
ATOM      4  C   UNL     1      48.604   7.698  14.662  0.00  0.00    +0.000 A 
ATOM      5  N   UNL     1      49.484   8.186  15.647  0.00  0.00    +0.000 N 
ATOM      6  N   UNL     1      48.451   6.371  14.487  0.00  0.00    +0.000 NA
ATOM      7  C   UNL     1      47.515   5.945  13.599  0.00  0.00    +0.000 A 
ATOM      8  H   UNL     1      49.828   9.101  15.379  0.00  0.00    +0.000 HD
ENDROOT
BRANCH   1  10
ATOM      9  N   UNL     1      45.339   4.879  12.158  0.00  0.00    +0.000 N 
ATOM     10  C   UNL     1      45.721   6.185  11.926  0.00  0.00    +0.000 C 
ATOM     11  O   UNL     1      45.248   6.864  11.014  0.00  0.00    +0.000 OA
ATOM     12  H   UNL     1      45.528   4.438  13.050  0.00  0.00    +0.000 HD
BRANCH   9  13
ATOM     13  C   UNL     1      44.289   4.282  11.352  0.00  0.00    +0.000 C 
BRANCH  13  14
ATOM     14  C   UNL     1      44.709   2.946  10.714  0.00  0.00    +0.000 C 
BRANCH  14  16
ATOM     15  C   UNL     1      44.952   4.122   8.594  0.00  0.00    +0.000 C 
ATOM     16  N   UNL     1      44.539   2.873   9.244  0.00  0.00    +0.000 NA
ATOM     17  C   UNL     1      45.359   1.770   8.722  0.00  0.00    +0.000 C 
ENDBRANCH  14  16
ENDBRANCH  13  14
ENDBRANCH   9  13
ENDBRANCH   1  10
BRANCH   5  18
ATOM     18  C   UNL     1      50.578   7.256  15.949  0.00  0.00    +0.000 C 
BRANCH  18  19
ATOM     19  C   UNL     1      50.479   6.788  17.409  0.00  0.00    +0.000 C 
BRANCH  19  20
ATOM     20  C   UNL     1      49.520   5.651  17.570  0.00  0.00    +0.000 A 
ATOM     21  C   UNL     1      49.852   4.344  17.283  0.00  0.00    +0.000 A 
ATOM     22  N   UNL     1      48.988   3.315  17.369  0.00  0.00    +0.000 NA
ATOM     23  C   UNL     1      47.740   3.612  17.740  0.00  0.00    +0.000 A 
ATOM     24  N   UNL     1      46.831   2.579  17.818  0.00  0.00    +0.000 N 
ATOM     25  N   UNL     1      47.315   4.833  18.075  0.00  0.00    +0.000 NA
ATOM     26  C   UNL     1      48.215   5.833  17.974  0.00  0.00    +0.000 A 
ATOM     27  H   UNL     1      47.318   1.705  17.960  0.00  0.00    +0.000 HD
ATOM     28  H   UNL     1      46.099   2.820  18.469  0.00  0.00    +0.000 HD
ENDBRANCH  19  20
ENDBRANCH  18  19
ENDBRANCH   5  18
TORSDOF 7
ENDMDL
