MODEL 1
REMARK VINA RESULT:    -8.603      0.000      0.000
REMARK INTER + INTRA:         -11.856
REMARK INTER:                 -11.118
REMARK INTRA:                  -0.738
REMARK UNBOUND:                -0.738
REMARK  Name = 
REMARK  5 active torsions:
REMARK  status: ('A' for Active; 'I' for Inactive)
REMARK    1  A    between atoms: C_2  and  C_18
REMARK    2  A    between atoms: N_3  and  C_4
REMARK    3  A    between atoms: C_4  and  C_5
REMARK    4  A    between atoms: C_8  and  C_9
REMARK    5  A    between atoms: C_9  and  C_10
REMARK                            x       y       z     vdW  Elec       q    Type
REMARK                         _______ _______ _______ _____ _____    ______ ____
ROOT
ATOM      1  O   UNL     1      48.727   7.114  12.847  0.00  0.00    +0.000 OA
ATOM      2  C   UNL     1      47.983   6.799  13.771  0.00  0.00    +0.000 C 
ATOM      3  N   UNL     1      46.617   6.836  13.658  0.00  0.00    +0.000 N 
ATOM      4  H   UNL     1      46.051   6.748  14.495  0.00  0.00    +0.000 HD
ENDROOT
BRANCH   2   5
ATOM      5  C   UNL     1      48.514   6.307  15.050  0.00  0.00    +0.000 A 
ATOM      6  C   UNL     1      49.534   7.000  15.684  0.00  0.00    +0.000 A 
ATOM      7  S   UNL     1      50.028   6.288  17.155  0.00  0.00    +0.000 S 
ATOM      8  C   UNL     1      48.862   5.056  17.013  0.00  0.00    +0.000 A 
ATOM      9  N   UNL     1      48.722   4.110  17.980  0.00  0.00    +0.000 NA
ATOM     10  C   UNL     1      47.772   3.264  17.764  0.00  0.00    +0.000 A 
ATOM     11  N   UNL     1      46.962   3.264  16.659  0.00  0.00    +0.000 N 
ATOM     12  C   UNL     1      47.123   4.146  15.618  0.00  0.00    +0.000 A 
ATOM     13  O   UNL     1      46.486   4.024  14.576  0.00  0.00    +0.000 OA
ATOM     14  C   UNL     1      48.136   5.162  15.842  0.00  0.00    +0.000 A 
ATOM     15  H   UNL     1      46.261   2.550  16.533  0.00  0.00    +0.000 HD
ENDBRANCH   2   5
BRANCH   3  16
ATOM     16  C   UNL     1      45.953   7.362  12.493  0.00  0.00    +0.000 C 
BRANCH  16  17
ATOM     17  C   UNL     1      45.591   6.270  11.532  0.00  0.00    +0.000 A 
ATOM     18  C   UNL     1      44.740   5.222  11.891  0.00  0.00    +0.000 A 
ATOM     19  C   UNL     1      44.416   4.242  10.956  0.00  0.00    +0.000 A 
ATOM     20  C   UNL     1      44.951   4.333   9.673  0.00  0.00    +0.000 A 
ATOM     21  N   UNL     1      45.771   5.348   9.300  0.00  0.00    +0.000 NA
ATOM     22  C   UNL     1      46.060   6.290  10.226  0.00  0.00    +0.000 A 
BRANCH  20  23
ATOM     23  C   UNL     1      44.570   3.333   8.603  0.00  0.00    +0.000 C 
BRANCH  23  24
ATOM     24  C   UNL     1      45.770   2.685   7.950  0.00  0.00    +0.000 A 
ATOM     25  C   UNL     1      46.547   3.398   7.030  0.00  0.00    +0.000 A 
ATOM     26  C   UNL     1      47.602   2.754   6.406  0.00  0.00    +0.000 A 
ATOM     27  N   UNL     1      47.945   1.471   6.644  0.00  0.00    +0.000 NA
ATOM     28  C   UNL     1      47.201   0.808   7.556  0.00  0.00    +0.000 A 
ATOM     29  C   UNL     1      46.121   1.362   8.228  0.00  0.00    +0.000 A 
ENDBRANCH  23  24
ENDBRANCH  20  23
ENDBRANCH  16  17
ENDBRANCH   3  16
TORSDOF 5
ENDMDL
MODEL 2
REMARK VINA RESULT:    -8.522      1.733      2.368
REMARK INTER + INTRA:         -11.751
REMARK INTER:                 -10.922
REMARK INTRA:                  -0.829
REMARK UNBOUND:                -0.738
REMARK  Name = 
REMARK  5 active torsions:
REMARK  status: ('A' for Active; 'I' for Inactive)
REMARK    1  A    between atoms: C_2  and  C_18
REMARK    2  A    between atoms: N_3  and  C_4
REMARK    3  A    between atoms: C_4  and  C_5
REMARK    4  A    between atoms: C_8  and  C_9
REMARK    5  A    between atoms: C_9  and  C_10
REMARK                            x       y       z     vdW  Elec       q    Type
REMARK                         _______ _______ _______ _____ _____    ______ ____
ROOT
ATOM      1  O   UNL     1      46.799   3.828  14.117  0.00  0.00    +0.000 OA
ATOM      2  C   UNL     1      46.745   5.052  14.038  0.00  0.00    +0.000 C 
ATOM      3  N   UNL     1      45.606   5.713  13.659  0.00  0.00    +0.000 N 
ATOM      4  H   UNL     1      45.661   6.700  13.429  0.00  0.00    +0.000 HD
ENDROOT
BRANCH   2   5
ATOM      5  C   UNL     1      47.895   5.895  14.397  0.00  0.00    +0.000 A 
ATOM      6  C   UNL     1      48.485   6.701  13.436  0.00  0.00    +0.000 A 
ATOM      7  S   UNL     1      49.805   7.610  14.027  0.00  0.00    +0.000 S 
ATOM      8  C   UNL     1      49.600   6.986  15.597  0.00  0.00    +0.000 A 
ATOM      9  N   UNL     1      50.400   7.390  16.620  0.00  0.00    +0.000 NA
ATOM     10  C   UNL     1      50.106   6.871  17.764  0.00  0.00    +0.000 A 
ATOM     11  N   UNL     1      49.098   5.967  17.976  0.00  0.00    +0.000 N 
ATOM     12  C   UNL     1      48.322   5.466  16.959  0.00  0.00    +0.000 A 
ATOM     13  O   UNL     1      47.534   4.545  17.154  0.00  0.00    +0.000 OA
ATOM     14  C   UNL     1      48.569   6.069  15.661  0.00  0.00    +0.000 A 
ATOM     15  H   UNL     1      48.945   5.569  18.890  0.00  0.00    +0.000 HD
ENDBRANCH   2   5
BRANCH   3  16
ATOM     16  C   UNL     1      44.425   5.021  13.210  0.00  0.00    +0.000 C 
BRANCH  16  17
ATOM     17  C   UNL     1      44.491   4.727  11.741  0.00  0.00    +0.000 A 
ATOM     18  C   UNL     1      45.331   5.440  10.881  0.00  0.00    +0.000 A 
ATOM     19  C   UNL     1      45.372   5.115   9.527  0.00  0.00    +0.000 A 
ATOM     20  C   UNL     1      44.570   4.076   9.060  0.00  0.00    +0.000 A 
ATOM     21  N   UNL     1      43.754   3.365   9.879  0.00  0.00    +0.000 NA
ATOM     22  C   UNL     1      43.742   3.696  11.190  0.00  0.00    +0.000 A 
BRANCH  20  23
ATOM     23  C   UNL     1      44.635   3.641   7.612  0.00  0.00    +0.000 C 
BRANCH  23  24
ATOM     24  C   UNL     1      45.873   2.833   7.295  0.00  0.00    +0.000 A 
ATOM     25  C   UNL     1      46.768   3.265   6.310  0.00  0.00    +0.000 A 
ATOM     26  C   UNL     1      47.860   2.470   6.004  0.00  0.00    +0.000 A 
ATOM     27  N   UNL     1      48.129   1.298   6.617  0.00  0.00    +0.000 NA
ATOM     28  C   UNL     1      47.270   0.912   7.584  0.00  0.00    +0.000 A 
ATOM     29  C   UNL     1      46.145   1.633   7.957  0.00  0.00    +0.000 A 
ENDBRANCH  23  24
ENDBRANCH  20  23
ENDBRANCH  16  17
ENDBRANCH   3  16
TORSDOF 5
ENDMDL
MODEL 3
REMARK VINA RESULT:    -8.458      1.877      3.256
REMARK INTER + INTRA:         -11.669
REMARK INTER:                 -11.052
REMARK INTRA:                  -0.617
REMARK UNBOUND:                -0.738
REMARK  Name = 
REMARK  5 active torsions:
REMARK  status: ('A' for Active; 'I' for Inactive)
REMARK    1  A    between atoms: C_2  and  C_18
REMARK    2  A    between atoms: N_3  and  C_4
REMARK    3  A    between atoms: C_4  and  C_5
REMARK    4  A    between atoms: C_8  and  C_9
REMARK    5  A    between atoms: C_9  and  C_10
REMARK                            x       y       z     vdW  Elec       q    Type
REMARK                         _______ _______ _______ _____ _____    ______ ____
ROOT
ATOM      1  O   UNL     1      46.917   3.690  14.253  0.00  0.00    +0.000 OA
ATOM      2  C   UNL     1      46.806   4.908  14.145  0.00  0.00    +0.000 C 
ATOM      3  N   UNL     1      45.640   5.506  13.740  0.00  0.00    +0.000 N 
ATOM      4  H   UNL     1      45.651   6.488  13.488  0.00  0.00    +0.000 HD
ENDROOT
BRANCH   2   5
ATOM      5  C   UNL     1      47.910   5.813  14.495  0.00  0.00    +0.000 A 
ATOM      6  C   UNL     1      48.442   5.788  15.774  0.00  0.00    +0.000 A 
ATOM      7  S   UNL     1      49.714   6.904  16.004  0.00  0.00    +0.000 S 
ATOM      8  C   UNL     1      49.622   7.424  14.386  0.00  0.00    +0.000 A 
ATOM      9  N   UNL     1      50.479   8.364  13.904  0.00  0.00    +0.000 NA
ATOM     10  C   UNL     1      50.326   8.632  12.651  0.00  0.00    +0.000 A 
ATOM     11  N   UNL     1      49.379   8.062  11.840  0.00  0.00    +0.000 N 
ATOM     12  C   UNL     1      48.440   7.173  12.304  0.00  0.00    +0.000 A 
ATOM     13  O   UNL     1      47.512   6.799  11.593  0.00  0.00    +0.000 OA
ATOM     14  C   UNL     1      48.611   6.787  13.693  0.00  0.00    +0.000 A 
ATOM     15  H   UNL     1      49.288   8.344  10.876  0.00  0.00    +0.000 HD
ENDBRANCH   2   5
BRANCH   3  16
ATOM     16  C   UNL     1      44.499   4.748  13.296  0.00  0.00    +0.000 C 
BRANCH  16  17
ATOM     17  C   UNL     1      44.538   4.518  11.815  0.00  0.00    +0.000 A 
ATOM     18  C   UNL     1      45.279   5.339  10.960  0.00  0.00    +0.000 A 
ATOM     19  C   UNL     1      45.301   5.072   9.593  0.00  0.00    +0.000 A 
ATOM     20  C   UNL     1      44.580   3.983   9.107  0.00  0.00    +0.000 A 
ATOM     21  N   UNL     1      43.862   3.169   9.922  0.00  0.00    +0.000 NA
ATOM     22  C   UNL     1      43.867   3.445  11.245  0.00  0.00    +0.000 A 
BRANCH  20  23
ATOM     23  C   UNL     1      44.632   3.613   7.642  0.00  0.00    +0.000 C 
BRANCH  23  24
ATOM     24  C   UNL     1      45.877   2.836   7.275  0.00  0.00    +0.000 A 
ATOM     25  C   UNL     1      46.687   3.256   6.214  0.00  0.00    +0.000 A 
ATOM     26  C   UNL     1      47.786   2.487   5.868  0.00  0.00    +0.000 A 
ATOM     27  N   UNL     1      48.140   1.354   6.508  0.00  0.00    +0.000 NA
ATOM     28  C   UNL     1      47.362   0.980   7.547  0.00  0.00    +0.000 A 
ATOM     29  C   UNL     1      46.239   1.677   7.966  0.00  0.00    +0.000 A 
ENDBRANCH  23  24
ENDBRANCH  20  23
ENDBRANCH  16  17
ENDBRANCH   3  16
TORSDOF 5
ENDMDL
MODEL 4
REMARK VINA RESULT:    -8.160      1.709      2.496
REMARK INTER + INTRA:         -11.283
REMARK INTER:                 -10.678
REMARK INTRA:                  -0.605
REMARK UNBOUND:                -0.738
REMARK  Name = 
REMARK  5 active torsions:
REMARK  status: ('A' for Active; 'I' for Inactive)
REMARK    1  A    between atoms: C_2  and  C_18
REMARK    2  A    between atoms: N_3  and  C_4
REMARK    3  A    between atoms: C_4  and  C_5
REMARK    4  A    between atoms: C_8  and  C_9
REMARK    5  A    between atoms: C_9  and  C_10
REMARK                            x       y       z     vdW  Elec       q    Type
REMARK                         _______ _______ _______ _____ _____    ______ ____
ROOT
ATOM      1  O   UNL     1      48.652   5.993  14.044  0.00  0.00    +0.000 OA
ATOM      2  C   UNL     1      47.669   5.573  14.650  0.00  0.00    +0.000 C 
ATOM      3  N   UNL     1      46.396   5.697  14.157  0.00  0.00    +0.000 N 
ATOM      4  H   UNL     1      45.610   5.507  14.770  0.00  0.00    +0.000 HD
ENDROOT
BRANCH   2   5
ATOM      5  C   UNL     1      47.804   4.861  15.929  0.00  0.00    +0.000 A 
ATOM      6  C   UNL     1      47.494   3.512  16.001  0.00  0.00    +0.000 A 
ATOM      7  S   UNL     1      47.706   2.848  17.560  0.00  0.00    +0.000 S 
ATOM      8  C   UNL     1      48.261   4.334  18.176  0.00  0.00    +0.000 A 
ATOM      9  N   UNL     1      48.656   4.451  19.472  0.00  0.00    +0.000 NA
ATOM     10  C   UNL     1      49.096   5.621  19.793  0.00  0.00    +0.000 A 
ATOM     11  N   UNL     1      49.156   6.693  18.941  0.00  0.00    +0.000 N 
ATOM     12  C   UNL     1      48.689   6.644  17.650  0.00  0.00    +0.000 A 
ATOM     13  O   UNL     1      48.614   7.659  16.962  0.00  0.00    +0.000 OA
ATOM     14  C   UNL     1      48.246   5.331  17.219  0.00  0.00    +0.000 A 
ATOM     15  H   UNL     1      49.476   7.593  19.266  0.00  0.00    +0.000 HD
ENDBRANCH   2   5
BRANCH   3  16
ATOM     16  C   UNL     1      46.102   6.432  12.954  0.00  0.00    +0.000 C 
BRANCH  16  17
ATOM     17  C   UNL     1      45.665   5.518  11.849  0.00  0.00    +0.000 A 
ATOM     18  C   UNL     1      45.673   5.921  10.511  0.00  0.00    +0.000 A 
ATOM     19  C   UNL     1      45.278   5.028   9.517  0.00  0.00    +0.000 A 
ATOM     20  C   UNL     1      44.884   3.743   9.885  0.00  0.00    +0.000 A 
ATOM     21  N   UNL     1      44.878   3.329  11.177  0.00  0.00    +0.000 NA
ATOM     22  C   UNL     1      45.276   4.214  12.120  0.00  0.00    +0.000 A 
BRANCH  20  23
ATOM     23  C   UNL     1      44.516   2.717   8.835  0.00  0.00    +0.000 C 
BRANCH  23  24
ATOM     24  C   UNL     1      45.675   2.357   7.933  0.00  0.00    +0.000 A 
ATOM     25  C   UNL     1      46.372   1.158   8.121  0.00  0.00    +0.000 A 
ATOM     26  C   UNL     1      47.465   0.888   7.314  0.00  0.00    +0.000 A 
ATOM     27  N   UNL     1      47.895   1.709   6.334  0.00  0.00    +0.000 NA
ATOM     28  C   UNL     1      47.192   2.847   6.150  0.00  0.00    +0.000 A 
ATOM     29  C   UNL     1      46.090   3.211   6.909  0.00  0.00    +0.000 A 
ENDBRANCH  23  24
ENDBRANCH  20  23
ENDBRANCH  16  17
ENDBRANCH   3  16
TORSDOF 5
ENDMDL
MODEL 5
REMARK VINA RESULT:    -8.053      2.343      3.997
REMARK INTER + INTRA:         -11.145
REMARK INTER:                 -10.638
REMARK INTRA:                  -0.507
REMARK UNBOUND:                -0.738
REMARK  Name = 
REMARK  5 active torsions:
REMARK  status: ('A' for Active; 'I' for Inactive)
REMARK    1  A    between atoms: C_2  and  C_18
REMARK    2  A    between atoms: N_3  and  C_4
REMARK    3  A    between atoms: C_4  and  C_5
REMARK    4  A    between atoms: C_8  and  C_9
REMARK    5  A    between atoms: C_9  and  C_10
REMARK                            x       y       z     vdW  Elec       q    Type
REMARK                         _______ _______ _______ _____ _____    ______ ____
ROOT
ATOM      1  O   UNL     1      47.904   5.048  13.428  0.00  0.00    +0.000 OA
ATOM      2  C   UNL     1      47.316   6.117  13.570  0.00  0.00    +0.000 C 
ATOM      3  N   UNL     1      45.949   6.202  13.614  0.00  0.00    +0.000 N 
ATOM      4  H   UNL     1      45.509   7.113  13.545  0.00  0.00    +0.000 HD
ENDROOT
BRANCH   2   5
ATOM      5  C   UNL     1      48.050   7.377  13.754  0.00  0.00    +0.000 A 
ATOM      6  C   UNL     1      49.248   7.381  14.452  0.00  0.00    +0.000 A 
ATOM      7  S   UNL     1      49.961   8.928  14.571  0.00  0.00    +0.000 S 
ATOM      8  C   UNL     1      48.713   9.633  13.653  0.00  0.00    +0.000 A 
ATOM      9  N   UNL     1      48.732  10.957  13.347  0.00  0.00    +0.000 NA
ATOM     10  C   UNL     1      47.748  11.349  12.610  0.00  0.00    +0.000 A 
ATOM     11  N   UNL     1      46.733  10.541  12.168  0.00  0.00    +0.000 N 
ATOM     12  C   UNL     1      46.627   9.218  12.524  0.00  0.00    +0.000 A 
ATOM     13  O   UNL     1      45.629   8.561  12.242  0.00  0.00    +0.000 OA
ATOM     14  C   UNL     1      47.746   8.712  13.298  0.00  0.00    +0.000 A 
ATOM     15  H   UNL     1      45.971  10.919  11.625  0.00  0.00    +0.000 HD
ENDBRANCH   2   5
BRANCH   3  16
ATOM     16  C   UNL     1      45.097   5.064  13.377  0.00  0.00    +0.000 C 
BRANCH  16  17
ATOM     17  C   UNL     1      44.982   4.765  11.912  0.00  0.00    +0.000 A 
ATOM     18  C   UNL     1      45.658   5.518  10.949  0.00  0.00    +0.000 A 
ATOM     19  C   UNL     1      45.535   5.187   9.601  0.00  0.00    +0.000 A 
ATOM     20  C   UNL     1      44.737   4.102   9.244  0.00  0.00    +0.000 A 
ATOM     21  N   UNL     1      44.080   3.352  10.165  0.00  0.00    +0.000 NA
ATOM     22  C   UNL     1      44.225   3.690  11.466  0.00  0.00    +0.000 A 
BRANCH  20  23
ATOM     23  C   UNL     1      44.632   3.662   7.800  0.00  0.00    +0.000 C 
BRANCH  23  24
ATOM     24  C   UNL     1      45.826   2.855   7.343  0.00  0.00    +0.000 A 
ATOM     25  C   UNL     1      46.144   1.643   7.967  0.00  0.00    +0.000 A 
ATOM     26  C   UNL     1      47.279   0.961   7.562  0.00  0.00    +0.000 A 
ATOM     27  N   UNL     1      48.099   1.386   6.578  0.00  0.00    +0.000 NA
ATOM     28  C   UNL     1      47.760   2.543   5.969  0.00  0.00    +0.000 A 
ATOM     29  C   UNL     1      46.650   3.302   6.307  0.00  0.00    +0.000 A 
ENDBRANCH  23  24
ENDBRANCH  20  23
ENDBRANCH  16  17
ENDBRANCH   3  16
TORSDOF 5
ENDMDL
MODEL 6
REMARK VINA RESULT:    -7.445      1.344      2.007
REMARK INTER + INTRA:         -10.360
REMARK INTER:                  -9.752
REMARK INTRA:                  -0.608
REMARK UNBOUND:                -0.738
REMARK  Name = 
REMARK  5 active torsions:
REMARK  status: ('A' for Active; 'I' for Inactive)
REMARK    1  A    between atoms: C_2  and  C_18
REMARK    2  A    between atoms: N_3  and  C_4
REMARK    3  A    between atoms: C_4  and  C_5
REMARK    4  A    between atoms: C_8  and  C_9
REMARK    5  A    between atoms: C_9  and  C_10
REMARK                            x       y       z     vdW  Elec       q    Type
REMARK                         _______ _______ _______ _____ _____    ______ ____
ROOT
ATOM      1  O   UNL     1      49.477   6.803  13.903  0.00  0.00    +0.000 OA
ATOM      2  C   UNL     1      48.747   7.049  14.859  0.00  0.00    +0.000 C 
ATOM      3  N   UNL     1      47.573   7.744  14.726  0.00  0.00    +0.000 N 
ATOM      4  H   UNL     1      47.103   8.082  15.559  0.00  0.00    +0.000 HD
ENDROOT
BRANCH   2   5
ATOM      5  C   UNL     1      49.064   6.564  16.210  0.00  0.00    +0.000 A 
ATOM      6  C   UNL     1      49.776   7.372  17.082  0.00  0.00    +0.000 A 
ATOM      7  S   UNL     1      50.055   6.651  18.605  0.00  0.00    +0.000 S 
ATOM      8  C   UNL     1      49.193   5.252  18.160  0.00  0.00    +0.000 A 
ATOM      9  N   UNL     1      49.018   4.229  19.038  0.00  0.00    +0.000 NA
ATOM     10  C   UNL     1      48.308   3.252  18.584  0.00  0.00    +0.000 A 
ATOM     11  N   UNL     1      47.775   3.194  17.323  0.00  0.00    +0.000 N 
ATOM     12  C   UNL     1      47.998   4.163  16.376  0.00  0.00    +0.000 A 
ATOM     13  O   UNL     1      47.639   4.009  15.212  0.00  0.00    +0.000 OA
ATOM     14  C   UNL     1      48.735   5.317  16.858  0.00  0.00    +0.000 A 
ATOM     15  H   UNL     1      47.260   2.382  17.017  0.00  0.00    +0.000 HD
ENDBRANCH   2   5
BRANCH   3  16
ATOM     16  C   UNL     1      47.167   8.342  13.480  0.00  0.00    +0.000 C 
BRANCH  16  17
ATOM     17  C   UNL     1      46.376   7.380  12.645  0.00  0.00    +0.000 A 
ATOM     18  C   UNL     1      46.625   6.005  12.666  0.00  0.00    +0.000 A 
ATOM     19  C   UNL     1      45.849   5.150  11.888  0.00  0.00    +0.000 A 
ATOM     20  C   UNL     1      44.833   5.690  11.103  0.00  0.00    +0.000 A 
ATOM     21  N   UNL     1      44.568   7.021  11.075  0.00  0.00    +0.000 NA
ATOM     22  C   UNL     1      45.331   7.826  11.848  0.00  0.00    +0.000 A 
BRANCH  20  23
ATOM     23  C   UNL     1      43.918   4.793  10.298  0.00  0.00    +0.000 C 
BRANCH  23  24
ATOM     24  C   UNL     1      44.670   3.860   9.376  0.00  0.00    +0.000 A 
ATOM     25  C   UNL     1      44.611   2.474   9.569  0.00  0.00    +0.000 A 
ATOM     26  C   UNL     1      45.360   1.653   8.743  0.00  0.00    +0.000 A 
ATOM     27  N   UNL     1      46.140   2.107   7.740  0.00  0.00    +0.000 NA
ATOM     28  C   UNL     1      46.162   3.444   7.552  0.00  0.00    +0.000 A 
ATOM     29  C   UNL     1      45.454   4.350   8.329  0.00  0.00    +0.000 A 
ENDBRANCH  23  24
ENDBRANCH  20  23
ENDBRANCH  16  17
ENDBRANCH   3  16
TORSDOF 5
ENDMDL
MODEL 7
REMARK VINA RESULT:    -7.286      3.413      4.463
REMARK INTER + INTRA:         -10.154
REMARK INTER:                  -9.640
REMARK INTRA:                  -0.514
REMARK UNBOUND:                -0.738
REMARK  Name = 
REMARK  5 active torsions:
REMARK  status: ('A' for Active; 'I' for Inactive)
REMARK    1  A    between atoms: C_2  and  C_18
REMARK    2  A    between atoms: N_3  and  C_4
REMARK    3  A    between atoms: C_4  and  C_5
REMARK    4  A    between atoms: C_8  and  C_9
REMARK    5  A    between atoms: C_9  and  C_10
REMARK                            x       y       z     vdW  Elec       q    Type
REMARK                         _______ _______ _______ _____ _____    ______ ____
ROOT
ATOM      1  O   UNL     1      46.867   6.763  13.841  0.00  0.00    +0.000 OA
ATOM      2  C   UNL     1      46.430   7.515  12.974  0.00  0.00    +0.000 C 
ATOM      3  N   UNL     1      45.143   7.429  12.509  0.00  0.00    +0.000 N 
ATOM      4  H   UNL     1      44.887   7.941  11.671  0.00  0.00    +0.000 HD
ENDROOT
BRANCH   2   5
ATOM      5  C   UNL     1      47.251   8.597  12.412  0.00  0.00    +0.000 A 
ATOM      6  C   UNL     1      46.683   9.837  12.166  0.00  0.00    +0.000 A 
ATOM      7  S   UNL     1      47.780  10.971  11.513  0.00  0.00    +0.000 S 
ATOM      8  C   UNL     1      49.061   9.851  11.580  0.00  0.00    +0.000 A 
ATOM      9  N   UNL     1      50.316  10.201  11.193  0.00  0.00    +0.000 NA
ATOM     10  C   UNL     1      51.198   9.269  11.338  0.00  0.00    +0.000 A 
ATOM     11  N   UNL     1      50.934   8.012  11.814  0.00  0.00    +0.000 N 
ATOM     12  C   UNL     1      49.667   7.588  12.135  0.00  0.00    +0.000 A 
ATOM     13  O   UNL     1      49.439   6.414  12.410  0.00  0.00    +0.000 OA
ATOM     14  C   UNL     1      48.650   8.620  12.054  0.00  0.00    +0.000 A 
ATOM     15  H   UNL     1      51.663   7.316  11.867  0.00  0.00    +0.000 HD
ENDBRANCH   2   5
BRANCH   3  16
ATOM     16  C   UNL     1      44.246   6.378  12.912  0.00  0.00    +0.000 C 
BRANCH  16  17
ATOM     17  C   UNL     1      44.271   5.236  11.941  0.00  0.00    +0.000 A 
ATOM     18  C   UNL     1      43.665   5.321  10.684  0.00  0.00    +0.000 A 
ATOM     19  C   UNL     1      43.734   4.240   9.808  0.00  0.00    +0.000 A 
ATOM     20  C   UNL     1      44.413   3.091  10.209  0.00  0.00    +0.000 A 
ATOM     21  N   UNL     1      45.016   2.991  11.421  0.00  0.00    +0.000 NA
ATOM     22  C   UNL     1      44.941   4.059  12.247  0.00  0.00    +0.000 A 
BRANCH  20  23
ATOM     23  C   UNL     1      44.575   1.920   9.265  0.00  0.00    +0.000 C 
BRANCH  23  24
ATOM     24  C   UNL     1      45.705   2.112   8.279  0.00  0.00    +0.000 A 
ATOM     25  C   UNL     1      46.524   1.034   7.922  0.00  0.00    +0.000 A 
ATOM     26  C   UNL     1      47.587   1.258   7.063  0.00  0.00    +0.000 A 
ATOM     27  N   UNL     1      47.876   2.462   6.526  0.00  0.00    +0.000 NA
ATOM     28  C   UNL     1      47.058   3.483   6.859  0.00  0.00    +0.000 A 
ATOM     29  C   UNL     1      45.974   3.362   7.716  0.00  0.00    +0.000 A 
ENDBRANCH  23  24
ENDBRANCH  20  23
ENDBRANCH  16  17
ENDBRANCH   3  16
TORSDOF 5
ENDMDL
MODEL 8
REMARK VINA RESULT:    -7.220      2.654      3.507
REMARK INTER + INTRA:         -10.069
REMARK INTER:                  -9.902
REMARK INTRA:                  -0.167
REMARK UNBOUND:                -0.738
REMARK  Name = 
REMARK  5 active torsions:
REMARK  status: ('A' for Active; 'I' for Inactive)
REMARK    1  A    between atoms: C_2  and  C_18
REMARK    2  A    between atoms: N_3  and  C_4
REMARK    3  A    between atoms: C_4  and  C_5
REMARK    4  A    between atoms: C_8  and  C_9
REMARK    5  A    between atoms: C_9  and  C_10
REMARK                            x       y       z     vdW  Elec       q    Type
REMARK                         _______ _______ _______ _____ _____    ______ ____
ROOT
ATOM      1  O   UNL     1      47.744   5.582  13.634  0.00  0.00    +0.000 OA
ATOM      2  C   UNL     1      47.736   6.684  13.091  0.00  0.00    +0.000 C 
ATOM      3  N   UNL     1      46.575   7.309  12.717  0.00  0.00    +0.000 N 
ATOM      4  H   UNL     1      46.625   8.121  12.111  0.00  0.00    +0.000 HD
ENDROOT
BRANCH   2   5
ATOM      5  C   UNL     1      48.980   7.430  12.853  0.00  0.00    +0.000 A 
ATOM      6  C   UNL     1      49.181   8.063  11.637  0.00  0.00    +0.000 A 
ATOM      7  S   UNL     1      50.677   8.880  11.534  0.00  0.00    +0.000 S 
ATOM      8  C   UNL     1      51.083   8.449  13.130  0.00  0.00    +0.000 A 
ATOM      9  N   UNL     1      52.248   8.868  13.693  0.00  0.00    +0.000 NA
ATOM     10  C   UNL     1      52.407   8.505  14.921  0.00  0.00    +0.000 A 
ATOM     11  N   UNL     1      51.518   7.742  15.632  0.00  0.00    +0.000 N 
ATOM     12  C   UNL     1      50.372   7.226  15.078  0.00  0.00    +0.000 A 
ATOM     13  O   UNL     1      49.676   6.421  15.690  0.00  0.00    +0.000 OA
ATOM     14  C   UNL     1      50.113   7.660  13.717  0.00  0.00    +0.000 A 
ATOM     15  H   UNL     1      51.721   7.461  16.579  0.00  0.00    +0.000 HD
ENDBRANCH   2   5
BRANCH   3  16
ATOM     16  C   UNL     1      45.287   6.671  12.820  0.00  0.00    +0.000 C 
BRANCH  16  17
ATOM     17  C   UNL     1      45.060   5.712  11.690  0.00  0.00    +0.000 A 
ATOM     18  C   UNL     1      45.689   5.867  10.452  0.00  0.00    +0.000 A 
ATOM     19  C   UNL     1      45.463   4.937   9.440  0.00  0.00    +0.000 A 
ATOM     20  C   UNL     1      44.609   3.865   9.689  0.00  0.00    +0.000 A 
ATOM     21  N   UNL     1      43.996   3.691  10.888  0.00  0.00    +0.000 NA
ATOM     22  C   UNL     1      44.242   4.603  11.855  0.00  0.00    +0.000 A 
BRANCH  20  23
ATOM     23  C   UNL     1      44.389   2.792   8.645  0.00  0.00    +0.000 C 
BRANCH  23  24
ATOM     24  C   UNL     1      45.641   2.469   7.861  0.00  0.00    +0.000 A 
ATOM     25  C   UNL     1      46.117   3.357   6.890  0.00  0.00    +0.000 A 
ATOM     26  C   UNL     1      47.232   3.000   6.149  0.00  0.00    +0.000 A 
ATOM     27  N   UNL     1      47.908   1.845   6.319  0.00  0.00    +0.000 NA
ATOM     28  C   UNL     1      47.450   1.015   7.281  0.00  0.00    +0.000 A 
ATOM     29  C   UNL     1      46.339   1.277   8.069  0.00  0.00    +0.000 A 
ENDBRANCH  23  24
ENDBRANCH  20  23
ENDBRANCH  16  17
ENDBRANCH   3  16
TORSDOF 5
ENDMDL
MODEL 9
REMARK VINA RESULT:    -6.837      2.611      3.491
REMARK INTER + INTRA:          -9.574
REMARK INTER:                  -8.764
REMARK INTRA:                  -0.810
REMARK UNBOUND:                -0.738
REMARK  Name = 
REMARK  5 active torsions:
REMARK  status: ('A' for Active; 'I' for Inactive)
REMARK    1  A    between atoms: C_2  and  C_18
REMARK    2  A    between atoms: N_3  and  C_4
REMARK    3  A    between atoms: C_4  and  C_5
REMARK    4  A    between atoms: C_8  and  C_9
REMARK    5  A    between atoms: C_9  and  C_10
REMARK                            x       y       z     vdW  Elec       q    Type
REMARK                         _______ _______ _______ _____ _____    ______ ____
ROOT
ATOM      1  O   UNL     1      50.098   8.446  16.010  0.00  0.00    +0.000 OA
ATOM      2  C   UNL     1      49.037   7.922  16.339  0.00  0.00    +0.000 C 
ATOM      3  N   UNL     1      48.353   7.068  15.513  0.00  0.00    +0.000 N 
ATOM      4  H   UNL     1      47.401   6.810  15.750  0.00  0.00    +0.000 HD
ENDROOT
BRANCH   2   5
ATOM      5  C   UNL     1      48.456   8.138  17.672  0.00  0.00    +0.000 A 
ATOM      6  C   UNL     1      48.035   9.406  18.042  0.00  0.00    +0.000 A 
ATOM      7  S   UNL     1      47.389   9.474  19.621  0.00  0.00    +0.000 S 
ATOM      8  C   UNL     1      47.612   7.801  19.843  0.00  0.00    +0.000 A 
ATOM      9  N   UNL     1      47.225   7.190  20.994  0.00  0.00    +0.000 NA
ATOM     10  C   UNL     1      47.412   5.914  21.010  0.00  0.00    +0.000 A 
ATOM     11  N   UNL     1      47.972   5.194  19.987  0.00  0.00    +0.000 N 
ATOM     12  C   UNL     1      48.455   5.780  18.842  0.00  0.00    +0.000 A 
ATOM     13  O   UNL     1      49.090   5.132  18.014  0.00  0.00    +0.000 OA
ATOM     14  C   UNL     1      48.207   7.207  18.747  0.00  0.00    +0.000 A 
ATOM     15  H   UNL     1      48.126   4.201  20.078  0.00  0.00    +0.000 HD
ENDBRANCH   2   5
BRANCH   3  16
ATOM     16  C   UNL     1      48.761   6.817  14.155  0.00  0.00    +0.000 C 
BRANCH  16  17
ATOM     17  C   UNL     1      47.608   6.355  13.315  0.00  0.00    +0.000 A 
ATOM     18  C   UNL     1      47.229   7.023  12.148  0.00  0.00    +0.000 A 
ATOM     19  C   UNL     1      46.164   6.542  11.390  0.00  0.00    +0.000 A 
ATOM     20  C   UNL     1      45.498   5.395  11.817  0.00  0.00    +0.000 A 
ATOM     21  N   UNL     1      45.856   4.725  12.942  0.00  0.00    +0.000 NA
ATOM     22  C   UNL     1      46.900   5.209  13.652  0.00  0.00    +0.000 A 
BRANCH  20  23
ATOM     23  C   UNL     1      44.383   4.795  10.989  0.00  0.00    +0.000 C 
BRANCH  23  24
ATOM     24  C   UNL     1      44.890   3.948   9.844  0.00  0.00    +0.000 A 
ATOM     25  C   UNL     1      44.804   2.552   9.903  0.00  0.00    +0.000 A 
ATOM     26  C   UNL     1      45.333   1.806   8.863  0.00  0.00    +0.000 A 
ATOM     27  N   UNL     1      45.916   2.346   7.773  0.00  0.00    +0.000 NA
ATOM     28  C   UNL     1      45.964   3.695   7.721  0.00  0.00    +0.000 A 
ATOM     29  C   UNL     1      45.470   4.528   8.713  0.00  0.00    +0.000 A 
ENDBRANCH  23  24
ENDBRANCH  20  23
ENDBRANCH  16  17
ENDBRANCH   3  16
TORSDOF 5
ENDMDL
