MODEL 1
REMARK VINA RESULT:    -8.473      0.000      0.000
REMARK INTER + INTRA:         -12.747
REMARK INTER:                 -11.445
REMARK INTRA:                  -1.302
REMARK UNBOUND:                -1.302
REMARK  Name = 
REMARK  7 active torsions:
REMARK  status: ('A' for Active; 'I' for Inactive)
REMARK    1  A    between atoms: C_1  and  O_2
REMARK    2  A    between atoms: O_2  and  C_3
REMARK    3  A    between atoms: C_5  and  C_6
REMARK    4  A    between atoms: C_11  and  O_12
REMARK    5  A    between atoms: O_12  and  C_13
REMARK    6  A    between atoms: C_13  and  C_14
REMARK    7  A    between atoms: C_18  and  C_19
REMARK                            x       y       z     vdW  Elec       q    Type
REMARK                         _______ _______ _______ _____ _____    ______ ____
ROOT
ATOM      1  O   UNL     1      44.019   6.535  12.656  0.00  0.00    +0.000 OA
ENDROOT
BRANCH   1   7
ATOM      2  C   UNL     1      46.319   5.734  13.244  0.00  0.00    +0.000 A 
ATOM      3  C   UNL     1      47.686   6.036  13.183  0.00  0.00    +0.000 A 
ATOM      4  C   UNL     1      48.152   7.221  12.588  0.00  0.00    +0.000 A 
ATOM      5  C   UNL     1      47.228   8.113  12.043  0.00  0.00    +0.000 A 
ATOM      6  C   UNL     1      45.861   7.820  12.102  0.00  0.00    +0.000 A 
ATOM      7  C   UNL     1      45.391   6.639  12.695  0.00  0.00    +0.000 A 
BRANCH   4   8
ATOM      8  C   UNL     1      49.628   7.443  12.574  0.00  0.00    +0.000 C 
ATOM      9  N   UNL     1      50.305   7.463  13.759  0.00  0.00    +0.000 N 
ATOM     10  O   UNL     1      50.237   7.607  11.521  0.00  0.00    +0.000 OA
ATOM     11  H   UNL     1      49.893   7.363  14.672  0.00  0.00    +0.000 HD
ATOM     12  H   UNL     1      51.304   7.629  13.705  0.00  0.00    +0.000 HD
ENDBRANCH   4   8
BRANCH   2  14
ATOM     13  C   UNL     1      46.417   3.343  13.274  0.00  0.00    +0.000 C 
ATOM     14  O   UNL     1      45.859   4.554  13.767  0.00  0.00    +0.000 OA
ENDBRANCH   2  14
ENDBRANCH   1   7
BRANCH   1  15
ATOM     15  C   UNL     1      43.414   6.210  11.409  0.00  0.00    +0.000 C 
BRANCH  15  16
ATOM     16  C   UNL     1      43.710   4.785  11.029  0.00  0.00    +0.000 A 
ATOM     17  C   UNL     1      43.084   3.730  11.674  0.00  0.00    +0.000 A 
ATOM     18  N   UNL     1      43.221   2.439  11.305  0.00  0.00    +0.000 NA
ATOM     19  C   UNL     1      44.028   2.190  10.243  0.00  0.00    +0.000 A 
ATOM     20  C   UNL     1      44.737   3.154   9.521  0.00  0.00    +0.000 A 
ATOM     21  C   UNL     1      44.551   4.478   9.949  0.00  0.00    +0.000 A 
BRANCH  20  22
ATOM     22  C   UNL     1      45.629   2.809   8.390  0.00  0.00    +0.000 A 
ATOM     23  C   UNL     1      45.969   3.756   7.400  0.00  0.00    +0.000 A 
ATOM     24  C   UNL     1      46.847   3.441   6.358  0.00  0.00    +0.000 A 
ATOM     25  C   UNL     1      47.388   2.166   6.281  0.00  0.00    +0.000 A 
ATOM     26  F   UNL     1      48.234   1.865   5.288  0.00  0.00    +0.000 F 
ATOM     27  C   UNL     1      47.063   1.201   7.221  0.00  0.00    +0.000 A 
ATOM     28  C   UNL     1      46.193   1.523   8.270  0.00  0.00    +0.000 A 
ENDBRANCH  20  22
ENDBRANCH  15  16
ENDBRANCH   1  15
TORSDOF 6
ENDMDL
MODEL 2
REMARK VINA RESULT:    -7.902      1.131      2.135
REMARK INTER + INTRA:         -11.975
REMARK INTER:                 -11.003
REMARK INTRA:                  -0.971
REMARK UNBOUND:                -1.302
REMARK  Name = 
REMARK  7 active torsions:
REMARK  status: ('A' for Active; 'I' for Inactive)
REMARK    1  A    between atoms: C_1  and  O_2
REMARK    2  A    between atoms: O_2  and  C_3
REMARK    3  A    between atoms: C_5  and  C_6
REMARK    4  A    between atoms: C_11  and  O_12
REMARK    5  A    between atoms: O_12  and  C_13
REMARK    6  A    between atoms: C_13  and  C_14
REMARK    7  A    between atoms: C_18  and  C_19
REMARK                            x       y       z     vdW  Elec       q    Type
REMARK                         _______ _______ _______ _____ _____    ______ ____
ROOT
ATOM      1  O   UNL     1      44.731   6.695  12.789  0.00  0.00    +0.000 OA
ENDROOT
BRANCH   1   7
ATOM      2  C   UNL     1      46.245   8.658  12.432  0.00  0.00    +0.000 A 
ATOM      3  C   UNL     1      47.576   9.057  12.245  0.00  0.00    +0.000 A 
ATOM      4  C   UNL     1      48.627   8.126  12.220  0.00  0.00    +0.000 A 
ATOM      5  C   UNL     1      48.336   6.771  12.390  0.00  0.00    +0.000 A 
ATOM      6  C   UNL     1      47.010   6.364  12.575  0.00  0.00    +0.000 A 
ATOM      7  C   UNL     1      45.957   7.290  12.599  0.00  0.00    +0.000 A 
BRANCH   4   8
ATOM      8  C   UNL     1      50.007   8.658  12.017  0.00  0.00    +0.000 C 
ATOM      9  N   UNL     1      51.065   7.967  12.532  0.00  0.00    +0.000 N 
ATOM     10  O   UNL     1      50.202   9.701  11.400  0.00  0.00    +0.000 OA
ATOM     11  H   UNL     1      51.006   7.119  13.072  0.00  0.00    +0.000 HD
ATOM     12  H   UNL     1      51.983   8.370  12.382  0.00  0.00    +0.000 HD
ENDBRANCH   4   8
BRANCH   2  14
ATOM     13  C   UNL     1      44.759  10.164  11.316  0.00  0.00    +0.000 C 
ATOM     14  O   UNL     1      45.221   9.563  12.518  0.00  0.00    +0.000 OA
ENDBRANCH   2  14
ENDBRANCH   1   7
BRANCH   1  15
ATOM     15  C   UNL     1      43.920   6.466  11.641  0.00  0.00    +0.000 C 
BRANCH  15  16
ATOM     16  C   UNL     1      44.024   5.034  11.193  0.00  0.00    +0.000 A 
ATOM     17  C   UNL     1      43.257   4.042  11.787  0.00  0.00    +0.000 A 
ATOM     18  N   UNL     1      43.221   2.764  11.358  0.00  0.00    +0.000 NA
ATOM     19  C   UNL     1      43.994   2.459  10.284  0.00  0.00    +0.000 A 
ATOM     20  C   UNL     1      44.830   3.352   9.609  0.00  0.00    +0.000 A 
ATOM     21  C   UNL     1      44.822   4.667  10.100  0.00  0.00    +0.000 A 
BRANCH  20  22
ATOM     22  C   UNL     1      45.674   2.944   8.462  0.00  0.00    +0.000 A 
ATOM     23  C   UNL     1      46.065   3.864   7.466  0.00  0.00    +0.000 A 
ATOM     24  C   UNL     1      46.899   3.486   6.409  0.00  0.00    +0.000 A 
ATOM     25  C   UNL     1      47.343   2.176   6.321  0.00  0.00    +0.000 A 
ATOM     26  F   UNL     1      48.148   1.815   5.314  0.00  0.00    +0.000 F 
ATOM     27  C   UNL     1      46.964   1.236   7.267  0.00  0.00    +0.000 A 
ATOM     28  C   UNL     1      46.139   1.619   8.331  0.00  0.00    +0.000 A 
ENDBRANCH  20  22
ENDBRANCH  15  16
ENDBRANCH   1  15
TORSDOF 6
ENDMDL
MODEL 3
REMARK VINA RESULT:    -7.261      3.944      7.208
REMARK INTER + INTRA:         -11.109
REMARK INTER:                 -10.852
REMARK INTRA:                  -0.257
REMARK UNBOUND:                -1.302
REMARK  Name = 
REMARK  7 active torsions:
REMARK  status: ('A' for Active; 'I' for Inactive)
REMARK    1  A    between atoms: C_1  and  O_2
REMARK    2  A    between atoms: O_2  and  C_3
REMARK    3  A    between atoms: C_5  and  C_6
REMARK    4  A    between atoms: C_11  and  O_12
REMARK    5  A    between atoms: O_12  and  C_13
REMARK    6  A    between atoms: C_13  and  C_14
REMARK    7  A    between atoms: C_18  and  C_19
REMARK                            x       y       z     vdW  Elec       q    Type
REMARK                         _______ _______ _______ _____ _____    ______ ____
ROOT
ATOM      1  O   UNL     1      44.019   5.175   9.914  0.00  0.00    +0.000 OA
ENDROOT
BRANCH   1   7
ATOM      2  C   UNL     1      44.453   2.722   9.657  0.00  0.00    +0.000 A 
ATOM      3  C   UNL     1      45.230   1.760   8.996  0.00  0.00    +0.000 A 
ATOM      4  C   UNL     1      46.212   2.125   8.060  0.00  0.00    +0.000 A 
ATOM      5  C   UNL     1      46.413   3.478   7.782  0.00  0.00    +0.000 A 
ATOM      6  C   UNL     1      45.644   4.443   8.440  0.00  0.00    +0.000 A 
ATOM      7  C   UNL     1      44.663   4.085   9.376  0.00  0.00    +0.000 A 
BRANCH   4   8
ATOM      8  C   UNL     1      46.980   1.021   7.411  0.00  0.00    +0.000 C 
ATOM      9  N   UNL     1      46.669  -0.271   7.720  0.00  0.00    +0.000 N 
ATOM     10  O   UNL     1      47.880   1.257   6.611  0.00  0.00    +0.000 OA
ATOM     11  H   UNL     1      45.968  -0.565   8.380  0.00  0.00    +0.000 HD
ATOM     12  H   UNL     1      47.223  -0.989   7.267  0.00  0.00    +0.000 HD
ENDBRANCH   4   8
BRANCH   2  14
ATOM     13  C   UNL     1      43.779   2.247  11.903  0.00  0.00    +0.000 C 
ATOM     14  O   UNL     1      43.452   2.374  10.526  0.00  0.00    +0.000 OA
ENDBRANCH   2  14
ENDBRANCH   1   7
BRANCH   1  15
ATOM     15  C   UNL     1      43.988   5.295  11.332  0.00  0.00    +0.000 C 
BRANCH  15  16
ATOM     16  C   UNL     1      45.344   5.674  11.863  0.00  0.00    +0.000 A 
ATOM     17  C   UNL     1      46.137   6.599  11.202  0.00  0.00    +0.000 A 
ATOM     18  N   UNL     1      47.308   7.063  11.683  0.00  0.00    +0.000 NA
ATOM     19  C   UNL     1      47.710   6.575  12.884  0.00  0.00    +0.000 A 
ATOM     20  C   UNL     1      47.023   5.624  13.643  0.00  0.00    +0.000 A 
ATOM     21  C   UNL     1      45.810   5.182  13.091  0.00  0.00    +0.000 A 
BRANCH  20  22
ATOM     22  C   UNL     1      47.536   5.109  14.933  0.00  0.00    +0.000 A 
ATOM     23  C   UNL     1      48.344   5.899  15.777  0.00  0.00    +0.000 A 
ATOM     24  C   UNL     1      48.790   5.426  17.016  0.00  0.00    +0.000 A 
ATOM     25  C   UNL     1      48.447   4.146  17.423  0.00  0.00    +0.000 A 
ATOM     26  F   UNL     1      48.866   3.695  18.612  0.00  0.00    +0.000 F 
ATOM     27  C   UNL     1      47.672   3.330  16.614  0.00  0.00    +0.000 A 
ATOM     28  C   UNL     1      47.217   3.810  15.381  0.00  0.00    +0.000 A 
ENDBRANCH  20  22
ENDBRANCH  15  16
ENDBRANCH   1  15
TORSDOF 6
ENDMDL
MODEL 4
REMARK VINA RESULT:    -7.197      2.625      3.461
REMARK INTER + INTRA:         -11.022
REMARK INTER:                 -10.271
REMARK INTRA:                  -0.752
REMARK UNBOUND:                -1.302
REMARK  Name = 
REMARK  7 active torsions:
REMARK  status: ('A' for Active; 'I' for Inactive)
REMARK    1  A    between atoms: C_1  and  O_2
REMARK    2  A    between atoms: O_2  and  C_3
REMARK    3  A    between atoms: C_5  and  C_6
REMARK    4  A    between atoms: C_11  and  O_12
REMARK    5  A    between atoms: O_12  and  C_13
REMARK    6  A    between atoms: C_13  and  C_14
REMARK    7  A    between atoms: C_18  and  C_19
REMARK                            x       y       z     vdW  Elec       q    Type
REMARK                         _______ _______ _______ _____ _____    ______ ____
ROOT
ATOM      1  O   UNL     1      46.481   5.478  13.113  0.00  0.00    +0.000 OA
ENDROOT
BRANCH   1   7
ATOM      2  C   UNL     1      48.072   6.318  14.856  0.00  0.00    +0.000 A 
ATOM      3  C   UNL     1      48.685   6.024  16.082  0.00  0.00    +0.000 A 
ATOM      4  C   UNL     1      48.428   4.823  16.764  0.00  0.00    +0.000 A 
ATOM      5  C   UNL     1      47.537   3.905  16.206  0.00  0.00    +0.000 A 
ATOM      6  C   UNL     1      46.923   4.190  14.982  0.00  0.00    +0.000 A 
ATOM      7  C   UNL     1      47.177   5.386  14.297  0.00  0.00    +0.000 A 
BRANCH   4   8
ATOM      8  C   UNL     1      49.131   4.612  18.064  0.00  0.00    +0.000 C 
ATOM      9  N   UNL     1      49.517   3.350  18.409  0.00  0.00    +0.000 N 
ATOM     10  O   UNL     1      49.365   5.550  18.821  0.00  0.00    +0.000 OA
ATOM     11  H   UNL     1      49.350   2.516  17.870  0.00  0.00    +0.000 HD
ATOM     12  H   UNL     1      49.981   3.248  19.305  0.00  0.00    +0.000 HD
ENDBRANCH   4   8
BRANCH   2  14
ATOM     13  C   UNL     1      48.555   8.656  15.006  0.00  0.00    +0.000 C 
ATOM     14  O   UNL     1      48.269   7.511  14.214  0.00  0.00    +0.000 OA
ENDBRANCH   2  14
ENDBRANCH   1   7
BRANCH   1  15
ATOM     15  C   UNL     1      45.077   5.242  13.148  0.00  0.00    +0.000 C 
BRANCH  15  16
ATOM     16  C   UNL     1      44.698   4.147  12.189  0.00  0.00    +0.000 A 
ATOM     17  C   UNL     1      43.587   3.349  12.419  0.00  0.00    +0.000 A 
ATOM     18  N   UNL     1      43.131   2.429  11.545  0.00  0.00    +0.000 NA
ATOM     19  C   UNL     1      43.821   2.297  10.383  0.00  0.00    +0.000 A 
ATOM     20  C   UNL     1      44.967   3.017  10.035  0.00  0.00    +0.000 A 
ATOM     21  C   UNL     1      45.391   3.961  10.984  0.00  0.00    +0.000 A 
BRANCH  20  22
ATOM     22  C   UNL     1      45.692   2.799   8.762  0.00  0.00    +0.000 A 
ATOM     23  C   UNL     1      45.993   3.865   7.889  0.00  0.00    +0.000 A 
ATOM     24  C   UNL     1      46.717   3.663   6.710  0.00  0.00    +0.000 A 
ATOM     25  C   UNL     1      47.138   2.385   6.376  0.00  0.00    +0.000 A 
ATOM     26  F   UNL     1      47.838   2.191   5.252  0.00  0.00    +0.000 F 
ATOM     27  C   UNL     1      46.845   1.307   7.196  0.00  0.00    +0.000 A 
ATOM     28  C   UNL     1      46.131   1.514   8.382  0.00  0.00    +0.000 A 
ENDBRANCH  20  22
ENDBRANCH  15  16
ENDBRANCH   1  15
TORSDOF 6
ENDMDL
MODEL 5
REMARK VINA RESULT:    -7.119      2.034      2.542
REMARK INTER + INTRA:         -10.917
REMARK INTER:                 -10.135
REMARK INTRA:                  -0.782
REMARK UNBOUND:                -1.302
REMARK  Name = 
REMARK  7 active torsions:
REMARK  status: ('A' for Active; 'I' for Inactive)
REMARK    1  A    between atoms: C_1  and  O_2
REMARK    2  A    between atoms: O_2  and  C_3
REMARK    3  A    between atoms: C_5  and  C_6
REMARK    4  A    between atoms: C_11  and  O_12
REMARK    5  A    between atoms: O_12  and  C_13
REMARK    6  A    between atoms: C_13  and  C_14
REMARK    7  A    between atoms: C_18  and  C_19
REMARK                            x       y       z     vdW  Elec       q    Type
REMARK                         _______ _______ _______ _____ _____    ______ ____
ROOT
ATOM      1  O   UNL     1      45.972   4.433  14.247  0.00  0.00    +0.000 OA
ENDROOT
BRANCH   1   7
ATOM      2  C   UNL     1      47.730   5.064  15.916  0.00  0.00    +0.000 A 
ATOM      3  C   UNL     1      48.827   5.901  16.160  0.00  0.00    +0.000 A 
ATOM      4  C   UNL     1      49.275   6.826  15.203  0.00  0.00    +0.000 A 
ATOM      5  C   UNL     1      48.611   6.908  13.978  0.00  0.00    +0.000 A 
ATOM      6  C   UNL     1      47.513   6.077  13.727  0.00  0.00    +0.000 A 
ATOM      7  C   UNL     1      47.062   5.153  14.680  0.00  0.00    +0.000 A 
BRANCH   4   8
ATOM      8  C   UNL     1      50.454   7.667  15.565  0.00  0.00    +0.000 C 
ATOM      9  N   UNL     1      51.685   7.321  15.088  0.00  0.00    +0.000 N 
ATOM     10  O   UNL     1      50.334   8.658  16.280  0.00  0.00    +0.000 OA
ATOM     11  H   UNL     1      51.889   6.516  14.518  0.00  0.00    +0.000 HD
ATOM     12  H   UNL     1      52.460   7.911  15.368  0.00  0.00    +0.000 HD
ENDBRANCH   4   8
BRANCH   2  14
ATOM     13  C   UNL     1      48.144   2.970  16.997  0.00  0.00    +0.000 C 
ATOM     14  O   UNL     1      47.324   4.117  16.819  0.00  0.00    +0.000 OA
ENDBRANCH   2  14
ENDBRANCH   1   7
BRANCH   1  15
ATOM     15  C   UNL     1      45.147   5.018  13.244  0.00  0.00    +0.000 C 
BRANCH  15  16
ATOM     16  C   UNL     1      44.734   3.989  12.228  0.00  0.00    +0.000 A 
ATOM     17  C   UNL     1      43.593   3.223  12.410  0.00  0.00    +0.000 A 
ATOM     18  N   UNL     1      43.110   2.367  11.486  0.00  0.00    +0.000 NA
ATOM     19  C   UNL     1      43.804   2.267  10.325  0.00  0.00    +0.000 A 
ATOM     20  C   UNL     1      44.979   2.959  10.021  0.00  0.00    +0.000 A 
ATOM     21  C   UNL     1      45.430   3.837  11.019  0.00  0.00    +0.000 A 
BRANCH  20  22
ATOM     22  C   UNL     1      45.706   2.778   8.744  0.00  0.00    +0.000 A 
ATOM     23  C   UNL     1      46.187   1.515   8.338  0.00  0.00    +0.000 A 
ATOM     24  C   UNL     1      46.833   1.339   7.110  0.00  0.00    +0.000 A 
ATOM     25  C   UNL     1      47.023   2.428   6.274  0.00  0.00    +0.000 A 
ATOM     26  F   UNL     1      47.634   2.259   5.095  0.00  0.00    +0.000 F 
ATOM     27  C   UNL     1      46.583   3.689   6.644  0.00  0.00    +0.000 A 
ATOM     28  C   UNL     1      45.927   3.861   7.868  0.00  0.00    +0.000 A 
ENDBRANCH  20  22
ENDBRANCH  15  16
ENDBRANCH   1  15
TORSDOF 6
ENDMDL
MODEL 6
REMARK VINA RESULT:    -7.055      1.455      1.955
REMARK INTER + INTRA:         -10.831
REMARK INTER:                 -10.039
REMARK INTRA:                  -0.792
REMARK UNBOUND:                -1.302
REMARK  Name = 
REMARK  7 active torsions:
REMARK  status: ('A' for Active; 'I' for Inactive)
REMARK    1  A    between atoms: C_1  and  O_2
REMARK    2  A    between atoms: O_2  and  C_3
REMARK    3  A    between atoms: C_5  and  C_6
REMARK    4  A    between atoms: C_11  and  O_12
REMARK    5  A    between atoms: O_12  and  C_13
REMARK    6  A    between atoms: C_13  and  C_14
REMARK    7  A    between atoms: C_18  and  C_19
REMARK                            x       y       z     vdW  Elec       q    Type
REMARK                         _______ _______ _______ _____ _____    ______ ____
ROOT
ATOM      1  O   UNL     1      46.463   5.333  13.468  0.00  0.00    +0.000 OA
ENDROOT
BRANCH   1   7
ATOM      2  C   UNL     1      48.499   6.592  14.208  0.00  0.00    +0.000 A 
ATOM      3  C   UNL     1      49.444   7.558  13.836  0.00  0.00    +0.000 A 
ATOM      4  C   UNL     1      49.400   8.187  12.580  0.00  0.00    +0.000 A 
ATOM      5  C   UNL     1      48.390   7.835  11.682  0.00  0.00    +0.000 A 
ATOM      6  C   UNL     1      47.441   6.873  12.047  0.00  0.00    +0.000 A 
ATOM      7  C   UNL     1      47.481   6.244  13.300  0.00  0.00    +0.000 A 
BRANCH   4   8
ATOM      8  C   UNL     1      50.457   9.199  12.286  0.00  0.00    +0.000 C 
ATOM      9  N   UNL     1      51.669   9.086  12.900  0.00  0.00    +0.000 N 
ATOM     10  O   UNL     1      50.252  10.124  11.505  0.00  0.00    +0.000 OA
ATOM     11  H   UNL     1      51.924   8.381  13.572  0.00  0.00    +0.000 HD
ATOM     12  H   UNL     1      52.355   9.801  12.681  0.00  0.00    +0.000 HD
ENDBRANCH   4   8
BRANCH   2  14
ATOM     13  C   UNL     1      49.537   6.365  16.351  0.00  0.00    +0.000 C 
ATOM     14  O   UNL     1      48.569   5.930  15.405  0.00  0.00    +0.000 OA
ENDBRANCH   2  14
ENDBRANCH   1   7
BRANCH   1  15
ATOM     15  C   UNL     1      45.210   5.618  12.855  0.00  0.00    +0.000 C 
BRANCH  15  16
ATOM     16  C   UNL     1      44.781   4.481  11.968  0.00  0.00    +0.000 A 
ATOM     17  C   UNL     1      43.634   3.752  12.247  0.00  0.00    +0.000 A 
ATOM     18  N   UNL     1      43.137   2.798  11.433  0.00  0.00    +0.000 NA
ATOM     19  C   UNL     1      43.821   2.557  10.286  0.00  0.00    +0.000 A 
ATOM     20  C   UNL     1      45.000   3.198   9.896  0.00  0.00    +0.000 A 
ATOM     21  C   UNL     1      45.466   4.183  10.782  0.00  0.00    +0.000 A 
BRANCH  20  22
ATOM     22  C   UNL     1      45.715   2.862   8.644  0.00  0.00    +0.000 A 
ATOM     23  C   UNL     1      46.008   3.843   7.672  0.00  0.00    +0.000 A 
ATOM     24  C   UNL     1      46.724   3.532   6.512  0.00  0.00    +0.000 A 
ATOM     25  C   UNL     1      47.144   2.228   6.295  0.00  0.00    +0.000 A 
ATOM     26  F   UNL     1      47.836   1.930   5.189  0.00  0.00    +0.000 F 
ATOM     27  C   UNL     1      46.858   1.231   7.215  0.00  0.00    +0.000 A 
ATOM     28  C   UNL     1      46.152   1.548   8.381  0.00  0.00    +0.000 A 
ENDBRANCH  20  22
ENDBRANCH  15  16
ENDBRANCH   1  15
TORSDOF 6
ENDMDL
MODEL 7
REMARK VINA RESULT:    -6.851      3.536      6.912
REMARK INTER + INTRA:         -10.555
REMARK INTER:                  -9.827
REMARK INTRA:                  -0.728
REMARK UNBOUND:                -1.302
REMARK  Name = 
REMARK  7 active torsions:
REMARK  status: ('A' for Active; 'I' for Inactive)
REMARK    1  A    between atoms: C_1  and  O_2
REMARK    2  A    between atoms: O_2  and  C_3
REMARK    3  A    between atoms: C_5  and  C_6
REMARK    4  A    between atoms: C_11  and  O_12
REMARK    5  A    between atoms: O_12  and  C_13
REMARK    6  A    between atoms: C_13  and  C_14
REMARK    7  A    between atoms: C_18  and  C_19
REMARK                            x       y       z     vdW  Elec       q    Type
REMARK                         _______ _______ _______ _____ _____    ______ ____
ROOT
ATOM      1  O   UNL     1      43.841   5.322  10.224  0.00  0.00    +0.000 OA
ENDROOT
BRANCH   1   7
ATOM      2  C   UNL     1      44.298   2.879   9.910  0.00  0.00    +0.000 A 
ATOM      3  C   UNL     1      45.087   1.942   9.229  0.00  0.00    +0.000 A 
ATOM      4  C   UNL     1      46.071   2.337   8.307  0.00  0.00    +0.000 A 
ATOM      5  C   UNL     1      46.262   3.699   8.064  0.00  0.00    +0.000 A 
ATOM      6  C   UNL     1      45.481   4.641   8.742  0.00  0.00    +0.000 A 
ATOM      7  C   UNL     1      44.498   4.251   9.663  0.00  0.00    +0.000 A 
BRANCH   4   8
ATOM      8  C   UNL     1      46.852   1.257   7.636  0.00  0.00    +0.000 C 
ATOM      9  N   UNL     1      47.900   1.601   6.833  0.00  0.00    +0.000 N 
ATOM     10  O   UNL     1      46.567   0.074   7.794  0.00  0.00    +0.000 OA
ATOM     11  H   UNL     1      48.195   2.540   6.622  0.00  0.00    +0.000 HD
ATOM     12  H   UNL     1      48.396   0.837   6.386  0.00  0.00    +0.000 HD
ENDBRANCH   4   8
BRANCH   2  14
ATOM     13  C   UNL     1      43.611   2.366  12.143  0.00  0.00    +0.000 C 
ATOM     14  O   UNL     1      43.296   2.501  10.763  0.00  0.00    +0.000 OA
ENDBRANCH   2  14
ENDBRANCH   1   7
BRANCH   1  15
ATOM     15  C   UNL     1      44.160   5.665  11.569  0.00  0.00    +0.000 C 
BRANCH  15  16
ATOM     16  C   UNL     1      44.942   6.949  11.619  0.00  0.00    +0.000 A 
ATOM     17  C   UNL     1      44.322   8.172  11.410  0.00  0.00    +0.000 A 
ATOM     18  N   UNL     1      44.943   9.361  11.552  0.00  0.00    +0.000 NA
ATOM     19  C   UNL     1      46.250   9.328  11.916  0.00  0.00    +0.000 A 
ATOM     20  C   UNL     1      47.000   8.169  12.134  0.00  0.00    +0.000 A 
ATOM     21  C   UNL     1      46.299   6.963  11.975  0.00  0.00    +0.000 A 
BRANCH  20  22
ATOM     22  C   UNL     1      48.435   8.204  12.499  0.00  0.00    +0.000 A 
ATOM     23  C   UNL     1      49.413   8.698  11.610  0.00  0.00    +0.000 A 
ATOM     24  C   UNL     1      50.762   8.773  11.975  0.00  0.00    +0.000 A 
ATOM     25  C   UNL     1      51.156   8.337  13.230  0.00  0.00    +0.000 A 
ATOM     26  F   UNL     1      52.446   8.415  13.583  0.00  0.00    +0.000 F 
ATOM     27  C   UNL     1      50.230   7.825  14.125  0.00  0.00    +0.000 A 
ATOM     28  C   UNL     1      48.880   7.763  13.763  0.00  0.00    +0.000 A 
ENDBRANCH  20  22
ENDBRANCH  15  16
ENDBRANCH   1  15
TORSDOF 6
ENDMDL
MODEL 8
REMARK VINA RESULT:    -6.538      3.923      5.496
REMARK INTER + INTRA:         -10.132
REMARK INTER:                  -9.260
REMARK INTRA:                  -0.872
REMARK UNBOUND:                -1.302
REMARK  Name = 
REMARK  7 active torsions:
REMARK  status: ('A' for Active; 'I' for Inactive)
REMARK    1  A    between atoms: C_1  and  O_2
REMARK    2  A    between atoms: O_2  and  C_3
REMARK    3  A    between atoms: C_5  and  C_6
REMARK    4  A    between atoms: C_11  and  O_12
REMARK    5  A    between atoms: O_12  and  C_13
REMARK    6  A    between atoms: C_13  and  C_14
REMARK    7  A    between atoms: C_18  and  C_19
REMARK                            x       y       z     vdW  Elec       q    Type
REMARK                         _______ _______ _______ _____ _____    ______ ____
ROOT
ATOM      1  O   UNL     1      48.975   6.269  14.638  0.00  0.00    +0.000 OA
ENDROOT
BRANCH   1   7
ATOM      2  C   UNL     1      48.225   4.957  16.636  0.00  0.00    +0.000 A 
ATOM      3  C   UNL     1      47.936   5.024  18.006  0.00  0.00    +0.000 A 
ATOM      4  C   UNL     1      48.060   6.224  18.726  0.00  0.00    +0.000 A 
ATOM      5  C   UNL     1      48.486   7.373  18.059  0.00  0.00    +0.000 A 
ATOM      6  C   UNL     1      48.773   7.315  16.691  0.00  0.00    +0.000 A 
ATOM      7  C   UNL     1      48.650   6.120  15.967  0.00  0.00    +0.000 A 
BRANCH   4   8
ATOM      8  C   UNL     1      47.730   6.183  20.182  0.00  0.00    +0.000 C 
ATOM      9  N   UNL     1      47.808   4.994  20.845  0.00  0.00    +0.000 N 
ATOM     10  O   UNL     1      47.391   7.197  20.786  0.00  0.00    +0.000 OA
ATOM     11  H   UNL     1      48.051   4.107  20.434  0.00  0.00    +0.000 HD
ATOM     12  H   UNL     1      47.564   5.008  21.829  0.00  0.00    +0.000 HD
ENDBRANCH   4   8
BRANCH   2  14
ATOM     13  C   UNL     1      48.354   2.568  16.657  0.00  0.00    +0.000 C 
ATOM     14  O   UNL     1      48.165   3.780  15.938  0.00  0.00    +0.000 OA
ENDBRANCH   2  14
ENDBRANCH   1   7
BRANCH   1  15
ATOM     15  C   UNL     1      48.708   7.527  14.026  0.00  0.00    +0.000 C 
BRANCH  15  16
ATOM     16  C   UNL     1      47.394   7.494  13.295  0.00  0.00    +0.000 A 
ATOM     17  C   UNL     1      46.548   8.593  13.297  0.00  0.00    +0.000 A 
ATOM     18  N   UNL     1      45.413   8.666  12.571  0.00  0.00    +0.000 NA
ATOM     19  C   UNL     1      45.105   7.586  11.809  0.00  0.00    +0.000 A 
ATOM     20  C   UNL     1      45.853   6.408  11.734  0.00  0.00    +0.000 A 
ATOM     21  C   UNL     1      47.024   6.393  12.509  0.00  0.00    +0.000 A 
BRANCH  20  22
ATOM     22  C   UNL     1      45.441   5.252  10.906  0.00  0.00    +0.000 A 
ATOM     23  C   UNL     1      44.812   4.122  11.471  0.00  0.00    +0.000 A 
ATOM     24  C   UNL     1      44.383   3.051  10.680  0.00  0.00    +0.000 A 
ATOM     25  C   UNL     1      44.592   3.086   9.310  0.00  0.00    +0.000 A 
ATOM     26  F   UNL     1      44.175   2.065   8.551  0.00  0.00    +0.000 F 
ATOM     27  C   UNL     1      45.225   4.168   8.718  0.00  0.00    +0.000 A 
ATOM     28  C   UNL     1      45.642   5.243   9.510  0.00  0.00    +0.000 A 
ENDBRANCH  20  22
ENDBRANCH  15  16
ENDBRANCH   1  15
TORSDOF 6
ENDMDL
MODEL 9
REMARK VINA RESULT:    -6.180      5.145      8.476
REMARK INTER + INTRA:          -9.649
REMARK INTER:                  -8.578
REMARK INTRA:                  -1.071
REMARK UNBOUND:                -1.302
REMARK  Name = 
REMARK  7 active torsions:
REMARK  status: ('A' for Active; 'I' for Inactive)
REMARK    1  A    between atoms: C_1  and  O_2
REMARK    2  A    between atoms: O_2  and  C_3
REMARK    3  A    between atoms: C_5  and  C_6
REMARK    4  A    between atoms: C_11  and  O_12
REMARK    5  A    between atoms: O_12  and  C_13
REMARK    6  A    between atoms: C_13  and  C_14
REMARK    7  A    between atoms: C_18  and  C_19
REMARK                            x       y       z     vdW  Elec       q    Type
REMARK                         _______ _______ _______ _____ _____    ______ ____
ROOT
ATOM      1  O   UNL     1      48.884   6.730  14.149  0.00  0.00    +0.000 OA
ENDROOT
BRANCH   1   7
ATOM      2  C   UNL     1      46.968   5.126  13.970  0.00  0.00    +0.000 A 
ATOM      3  C   UNL     1      45.667   4.948  13.481  0.00  0.00    +0.000 A 
ATOM      4  C   UNL     1      44.997   5.968  12.784  0.00  0.00    +0.000 A 
ATOM      5  C   UNL     1      45.645   7.188  12.581  0.00  0.00    +0.000 A 
ATOM      6  C   UNL     1      46.945   7.372  13.064  0.00  0.00    +0.000 A 
ATOM      7  C   UNL     1      47.618   6.356  13.759  0.00  0.00    +0.000 A 
BRANCH   4   8
ATOM      8  C   UNL     1      43.612   5.675  12.309  0.00  0.00    +0.000 C 
ATOM      9  N   UNL     1      43.296   5.920  11.005  0.00  0.00    +0.000 N 
ATOM     10  O   UNL     1      42.762   5.220  13.068  0.00  0.00    +0.000 OA
ATOM     11  H   UNL     1      43.914   6.314  10.314  0.00  0.00    +0.000 HD
ATOM     12  H   UNL     1      42.342   5.718  10.726  0.00  0.00    +0.000 HD
ENDBRANCH   4   8
BRANCH   2  14
ATOM     13  C   UNL     1      47.146   3.912  16.025  0.00  0.00    +0.000 C 
ATOM     14  O   UNL     1      47.606   4.160  14.702  0.00  0.00    +0.000 OA
ENDBRANCH   2  14
ENDBRANCH   1   7
BRANCH   1  15
ATOM     15  C   UNL     1      49.000   7.655  15.225  0.00  0.00    +0.000 C 
BRANCH  15  16
ATOM     16  C   UNL     1      49.256   6.935  16.521  0.00  0.00    +0.000 A 
ATOM     17  C   UNL     1      48.644   7.341  17.697  0.00  0.00    +0.000 A 
ATOM     18  N   UNL     1      48.743   6.671  18.863  0.00  0.00    +0.000 NA
ATOM     19  C   UNL     1      49.496   5.542  18.857  0.00  0.00    +0.000 A 
ATOM     20  C   UNL     1      50.186   5.035  17.752  0.00  0.00    +0.000 A 
ATOM     21  C   UNL     1      50.041   5.773  16.567  0.00  0.00    +0.000 A 
BRANCH  20  22
ATOM     22  C   UNL     1      51.018   3.812  17.823  0.00  0.00    +0.000 A 
ATOM     23  C   UNL     1      50.536   2.562  17.383  0.00  0.00    +0.000 A 
ATOM     24  C   UNL     1      51.340   1.417  17.408  0.00  0.00    +0.000 A 
ATOM     25  C   UNL     1      52.637   1.503  17.891  0.00  0.00    +0.000 A 
ATOM     26  F   UNL     1      53.410   0.410  17.908  0.00  0.00    +0.000 F 
ATOM     27  C   UNL     1      53.142   2.708  18.351  0.00  0.00    +0.000 A 
ATOM     28  C   UNL     1      52.340   3.854  18.314  0.00  0.00    +0.000 A 
ENDBRANCH  20  22
ENDBRANCH  15  16
ENDBRANCH   1  15
TORSDOF 6
ENDMDL
