MODEL 1
REMARK VINA RESULT:    -9.053      0.000      0.000
REMARK INTER + INTRA:         -14.345
REMARK INTER:                 -13.288
REMARK INTRA:                  -1.058
REMARK UNBOUND:                -1.058
REMARK  Name = 
REMARK  9 active torsions:
REMARK  status: ('A' for Active; 'I' for Inactive)
REMARK    1  A    between atoms: C_1  and  C_2
REMARK    2  A    between atoms: C_2  and  N_3
REMARK    3  A    between atoms: C_2  and  C_21
REMARK    4  A    between atoms: N_3  and  C_4
REMARK    5  A    between atoms: C_4  and  C_5
REMARK    6  A    between atoms: C_8  and  C_9
REMARK    7  A    between atoms: C_9  and  N_10
REMARK    8  A    between atoms: N_10  and  C_11
REMARK    9  A    between atoms: C_11  and  C_12
REMARK                            x       y       z     vdW  Elec       q    Type
REMARK                         _______ _______ _______ _____ _____    ______ ____
ROOT
ATOM      1  C   UNL     1      46.768   5.464  13.410  0.00  0.00    +0.000 A 
ATOM      2  C   UNL     1      45.734   4.549  13.656  0.00  0.00    +0.000 A 
ATOM      3  C   UNL     1      44.705   4.381  12.731  0.00  0.00    +0.000 A 
ATOM      4  C   UNL     1      44.681   5.135  11.550  0.00  0.00    +0.000 A 
ATOM      5  C   UNL     1      45.717   6.046  11.304  0.00  0.00    +0.000 A 
ATOM      6  C   UNL     1      46.752   6.208  12.226  0.00  0.00    +0.000 A 
ENDROOT
BRANCH   1   7
ATOM      7  C   UNL     1      47.788   5.757  14.481  0.00  0.00    +0.000 C 
BRANCH   7   8
ATOM      8  N   UNL     1      48.112   4.589  15.306  0.00  0.00    +0.000 NA
ATOM      9  H   UNL     1      49.094   4.355  15.161  0.00  0.00    +0.000 HD
BRANCH   8  11
ATOM     10  C   UNL     1      46.797   3.887  17.282  0.00  0.00    +0.000 C 
ATOM     11  C   UNL     1      47.891   4.836  16.744  0.00  0.00    +0.000 C 
BRANCH  11  12
ATOM     12  C   UNL     1      49.224   4.612  17.466  0.00  0.00    +0.000 A 
ATOM     13  C   UNL     1      49.769   5.538  18.345  0.00  0.00    +0.000 A 
ATOM     14  S   UNL     1      51.330   5.140  18.896  0.00  0.00    +0.000 S 
ATOM     15  C   UNL     1      51.303   3.651  18.074  0.00  0.00    +0.000 A 
ATOM     16  N   UNL     1      52.361   2.796  18.158  0.00  0.00    +0.000 NA
ATOM     17  C   UNL     1      52.187   1.677  17.540  0.00  0.00    +0.000 A 
ATOM     18  N   UNL     1      51.059   1.340  16.844  0.00  0.00    +0.000 N 
ATOM     19  C   UNL     1      49.961   2.169  16.735  0.00  0.00    +0.000 A 
ATOM     20  O   UNL     1      48.936   1.806  16.154  0.00  0.00    +0.000 OA
ATOM     21  C   UNL     1      50.113   3.459  17.390  0.00  0.00    +0.000 A 
ATOM     22  H   UNL     1      50.974   0.426  16.416  0.00  0.00    +0.000 HD
ENDBRANCH  11  12
ENDBRANCH   8  11
ENDBRANCH   7   8
ENDBRANCH   1   7
BRANCH   4  23
ATOM     23  C   UNL     1      43.561   4.962  10.553  0.00  0.00    +0.000 C 
BRANCH  23  24
ATOM     24  N   UNL     1      44.058   4.424   9.285  0.00  0.00    +0.000 NA
ATOM     25  H   UNL     1      44.881   4.958   9.008  0.00  0.00    +0.000 HD
BRANCH  24  26
ATOM     26  C   UNL     1      44.410   3.016   9.421  0.00  0.00    +0.000 C 
BRANCH  26  27
ATOM     27  C   UNL     1      45.499   2.628   8.445  0.00  0.00    +0.000 A 
ATOM     28  C   UNL     1      46.099   3.598   7.637  0.00  0.00    +0.000 A 
ATOM     29  C   UNL     1      47.114   3.236   6.751  0.00  0.00    +0.000 A 
ATOM     30  N   UNL     1      47.549   1.928   6.644  0.00  0.00    +0.000 N 
ATOM     31  O   UNL     1      48.473   1.618   5.833  0.00  0.00    +0.000 OA
ATOM     32  C   UNL     1      46.954   0.970   7.444  0.00  0.00    +0.000 A 
ATOM     33  C   UNL     1      45.939   1.302   8.344  0.00  0.00    +0.000 A 
ENDBRANCH  26  27
ENDBRANCH  24  26
ENDBRANCH  23  24
ENDBRANCH   4  23
TORSDOF 8
ENDMDL
MODEL 2
REMARK VINA RESULT:    -8.572      1.953      2.831
REMARK INTER + INTRA:         -13.638
REMARK INTER:                 -12.293
REMARK INTRA:                  -1.346
REMARK UNBOUND:                -1.058
REMARK  Name = 
REMARK  9 active torsions:
REMARK  status: ('A' for Active; 'I' for Inactive)
REMARK    1  A    between atoms: C_1  and  C_2
REMARK    2  A    between atoms: C_2  and  N_3
REMARK    3  A    between atoms: C_2  and  C_21
REMARK    4  A    between atoms: N_3  and  C_4
REMARK    5  A    between atoms: C_4  and  C_5
REMARK    6  A    between atoms: C_8  and  C_9
REMARK    7  A    between atoms: C_9  and  N_10
REMARK    8  A    between atoms: N_10  and  C_11
REMARK    9  A    between atoms: C_11  and  C_12
REMARK                            x       y       z     vdW  Elec       q    Type
REMARK                         _______ _______ _______ _____ _____    ______ ____
ROOT
ATOM      1  C   UNL     1      47.021   6.178  12.788  0.00  0.00    +0.000 A 
ATOM      2  C   UNL     1      46.796   6.619  11.476  0.00  0.00    +0.000 A 
ATOM      3  C   UNL     1      45.656   6.219  10.781  0.00  0.00    +0.000 A 
ATOM      4  C   UNL     1      44.725   5.359  11.380  0.00  0.00    +0.000 A 
ATOM      5  C   UNL     1      44.948   4.922  12.692  0.00  0.00    +0.000 A 
ATOM      6  C   UNL     1      46.086   5.329  13.391  0.00  0.00    +0.000 A 
ENDROOT
BRANCH   1   7
ATOM      7  C   UNL     1      48.328   6.482  13.475  0.00  0.00    +0.000 C 
BRANCH   7   8
ATOM      8  N   UNL     1      48.309   6.188  14.911  0.00  0.00    +0.000 NA
ATOM      9  H   UNL     1      48.531   5.201  15.041  0.00  0.00    +0.000 HD
BRANCH   8  11
ATOM     10  C   UNL     1      49.378   8.415  15.060  0.00  0.00    +0.000 C 
ATOM     11  C   UNL     1      49.287   6.996  15.665  0.00  0.00    +0.000 C 
BRANCH  11  12
ATOM     12  C   UNL     1      48.826   7.044  17.125  0.00  0.00    +0.000 A 
ATOM     13  C   UNL     1      48.302   8.187  17.712  0.00  0.00    +0.000 A 
ATOM     14  S   UNL     1      48.014   8.042  19.384  0.00  0.00    +0.000 S 
ATOM     15  C   UNL     1      48.470   6.403  19.379  0.00  0.00    +0.000 A 
ATOM     16  N   UNL     1      48.425   5.669  20.525  0.00  0.00    +0.000 NA
ATOM     17  C   UNL     1      48.736   4.426  20.371  0.00  0.00    +0.000 A 
ATOM     18  N   UNL     1      49.092   3.855  19.181  0.00  0.00    +0.000 N 
ATOM     19  C   UNL     1      49.147   4.556  17.992  0.00  0.00    +0.000 A 
ATOM     20  O   UNL     1      49.410   3.994  16.927  0.00  0.00    +0.000 OA
ATOM     21  C   UNL     1      48.833   5.972  18.112  0.00  0.00    +0.000 A 
ATOM     22  H   UNL     1      49.284   2.863  19.125  0.00  0.00    +0.000 HD
ENDBRANCH  11  12
ENDBRANCH   8  11
ENDBRANCH   7   8
ENDBRANCH   1   7
BRANCH   4  23
ATOM     23  C   UNL     1      43.496   4.917  10.625  0.00  0.00    +0.000 C 
BRANCH  23  24
ATOM     24  N   UNL     1      43.853   4.286   9.352  0.00  0.00    +0.000 NA
ATOM     25  H   UNL     1      44.562   4.860   8.896  0.00  0.00    +0.000 HD
BRANCH  24  26
ATOM     26  C   UNL     1      44.374   2.942   9.567  0.00  0.00    +0.000 C 
BRANCH  26  27
ATOM     27  C   UNL     1      45.460   2.610   8.567  0.00  0.00    +0.000 A 
ATOM     28  C   UNL     1      45.906   1.293   8.422  0.00  0.00    +0.000 A 
ATOM     29  C   UNL     1      46.897   0.991   7.487  0.00  0.00    +0.000 A 
ATOM     30  N   UNL     1      47.460   1.970   6.689  0.00  0.00    +0.000 N 
ATOM     31  O   UNL     1      48.359   1.677   5.844  0.00  0.00    +0.000 OA
ATOM     32  C   UNL     1      47.018   3.272   6.834  0.00  0.00    +0.000 A 
ATOM     33  C   UNL     1      46.025   3.604   7.758  0.00  0.00    +0.000 A 
ENDBRANCH  26  27
ENDBRANCH  24  26
ENDBRANCH  23  24
ENDBRANCH   4  23
TORSDOF 8
ENDMDL
MODEL 3
REMARK VINA RESULT:    -8.080      1.837      2.516
REMARK INTER + INTRA:         -12.917
REMARK INTER:                 -11.872
REMARK INTRA:                  -1.045
REMARK UNBOUND:                -1.058
REMARK  Name = 
REMARK  9 active torsions:
REMARK  status: ('A' for Active; 'I' for Inactive)
REMARK    1  A    between atoms: C_1  and  C_2
REMARK    2  A    between atoms: C_2  and  N_3
REMARK    3  A    between atoms: C_2  and  C_21
REMARK    4  A    between atoms: N_3  and  C_4
REMARK    5  A    between atoms: C_4  and  C_5
REMARK    6  A    between atoms: C_8  and  C_9
REMARK    7  A    between atoms: C_9  and  N_10
REMARK    8  A    between atoms: N_10  and  C_11
REMARK    9  A    between atoms: C_11  and  C_12
REMARK                            x       y       z     vdW  Elec       q    Type
REMARK                         _______ _______ _______ _____ _____    ______ ____
ROOT
ATOM      1  C   UNL     1      46.943   6.167  12.971  0.00  0.00    +0.000 A 
ATOM      2  C   UNL     1      46.626   6.841  11.782  0.00  0.00    +0.000 A 
ATOM      3  C   UNL     1      45.524   6.454  11.022  0.00  0.00    +0.000 A 
ATOM      4  C   UNL     1      44.725   5.376  11.427  0.00  0.00    +0.000 A 
ATOM      5  C   UNL     1      45.039   4.706  12.617  0.00  0.00    +0.000 A 
ATOM      6  C   UNL     1      46.139   5.098  13.382  0.00  0.00    +0.000 A 
ENDROOT
BRANCH   1   7
ATOM      7  C   UNL     1      48.223   6.483  13.702  0.00  0.00    +0.000 C 
BRANCH   7   8
ATOM      8  N   UNL     1      48.005   6.927  15.082  0.00  0.00    +0.000 NA
ATOM      9  H   UNL     1      48.092   6.118  15.697  0.00  0.00    +0.000 HD
BRANCH   8  11
ATOM     10  C   UNL     1      48.361   8.849  16.599  0.00  0.00    +0.000 C 
ATOM     11  C   UNL     1      48.980   7.950  15.505  0.00  0.00    +0.000 C 
BRANCH  11  12
ATOM     12  C   UNL     1      50.225   7.224  16.023  0.00  0.00    +0.000 A 
ATOM     13  C   UNL     1      51.516   7.658  15.756  0.00  0.00    +0.000 A 
ATOM     14  S   UNL     1      52.734   6.599  16.300  0.00  0.00    +0.000 S 
ATOM     15  C   UNL     1      51.592   5.564  17.021  0.00  0.00    +0.000 A 
ATOM     16  N   UNL     1      51.996   4.449  17.692  0.00  0.00    +0.000 NA
ATOM     17  C   UNL     1      51.036   3.787  18.244  0.00  0.00    +0.000 A 
ATOM     18  N   UNL     1      49.715   4.133  18.181  0.00  0.00    +0.000 N 
ATOM     19  C   UNL     1      49.258   5.255  17.519  0.00  0.00    +0.000 A 
ATOM     20  O   UNL     1      48.066   5.572  17.538  0.00  0.00    +0.000 OA
ATOM     21  C   UNL     1      50.296   6.026  16.852  0.00  0.00    +0.000 A 
ATOM     22  H   UNL     1      49.018   3.589  18.673  0.00  0.00    +0.000 HD
ENDBRANCH  11  12
ENDBRANCH   8  11
ENDBRANCH   7   8
ENDBRANCH   1   7
BRANCH   4  23
ATOM     23  C   UNL     1      43.538   4.949  10.600  0.00  0.00    +0.000 C 
BRANCH  23  24
ATOM     24  N   UNL     1      43.961   4.389   9.314  0.00  0.00    +0.000 NA
ATOM     25  H   UNL     1      44.745   4.940   8.965  0.00  0.00    +0.000 HD
BRANCH  24  26
ATOM     26  C   UNL     1      44.368   2.997   9.463  0.00  0.00    +0.000 C 
BRANCH  26  27
ATOM     27  C   UNL     1      45.469   2.643   8.489  0.00  0.00    +0.000 A 
ATOM     28  C   UNL     1      45.895   1.317   8.358  0.00  0.00    +0.000 A 
ATOM     29  C   UNL     1      46.901   0.995   7.446  0.00  0.00    +0.000 A 
ATOM     30  N   UNL     1      47.499   1.960   6.658  0.00  0.00    +0.000 N 
ATOM     31  O   UNL     1      48.412   1.648   5.834  0.00  0.00    +0.000 OA
ATOM     32  C   UNL     1      47.077   3.270   6.789  0.00  0.00    +0.000 A 
ATOM     33  C   UNL     1      46.070   3.623   7.689  0.00  0.00    +0.000 A 
ENDBRANCH  26  27
ENDBRANCH  24  26
ENDBRANCH  23  24
ENDBRANCH   4  23
TORSDOF 8
ENDMDL
MODEL 4
REMARK VINA RESULT:    -7.854      1.687      2.320
REMARK INTER + INTRA:         -12.584
REMARK INTER:                 -11.707
REMARK INTRA:                  -0.878
REMARK UNBOUND:                -1.058
REMARK  Name = 
REMARK  9 active torsions:
REMARK  status: ('A' for Active; 'I' for Inactive)
REMARK    1  A    between atoms: C_1  and  C_2
REMARK    2  A    between atoms: C_2  and  N_3
REMARK    3  A    between atoms: C_2  and  C_21
REMARK    4  A    between atoms: N_3  and  C_4
REMARK    5  A    between atoms: C_4  and  C_5
REMARK    6  A    between atoms: C_8  and  C_9
REMARK    7  A    between atoms: C_9  and  N_10
REMARK    8  A    between atoms: N_10  and  C_11
REMARK    9  A    between atoms: C_11  and  C_12
REMARK                            x       y       z     vdW  Elec       q    Type
REMARK                         _______ _______ _______ _____ _____    ______ ____
ROOT
ATOM      1  C   UNL     1      47.909   6.614  14.032  0.00  0.00    +0.000 A 
ATOM      2  C   UNL     1      47.855   7.515  12.959  0.00  0.00    +0.000 A 
ATOM      3  C   UNL     1      47.077   7.234  11.838  0.00  0.00    +0.000 A 
ATOM      4  C   UNL     1      46.348   6.038  11.761  0.00  0.00    +0.000 A 
ATOM      5  C   UNL     1      46.400   5.140  12.835  0.00  0.00    +0.000 A 
ATOM      6  C   UNL     1      47.173   5.426  13.962  0.00  0.00    +0.000 A 
ENDROOT
BRANCH   1   7
ATOM      7  C   UNL     1      48.874   6.846  15.167  0.00  0.00    +0.000 C 
BRANCH   7   8
ATOM      8  N   UNL     1      48.221   7.315  16.394  0.00  0.00    +0.000 NA
ATOM      9  H   UNL     1      47.234   7.065  16.348  0.00  0.00    +0.000 HD
BRANCH   8  11
ATOM     10  C   UNL     1      48.052   7.214  18.861  0.00  0.00    +0.000 C 
ATOM     11  C   UNL     1      48.806   6.715  17.608  0.00  0.00    +0.000 C 
BRANCH  11  12
ATOM     12  C   UNL     1      48.707   5.193  17.471  0.00  0.00    +0.000 A 
ATOM     13  C   UNL     1      47.496   4.525  17.341  0.00  0.00    +0.000 A 
ATOM     14  S   UNL     1      47.630   2.828  17.368  0.00  0.00    +0.000 S 
ATOM     15  C   UNL     1      49.328   2.906  17.439  0.00  0.00    +0.000 A 
ATOM     16  N   UNL     1      50.073   1.765  17.461  0.00  0.00    +0.000 NA
ATOM     17  C   UNL     1      51.347   1.963  17.452  0.00  0.00    +0.000 A 
ATOM     18  N   UNL     1      51.942   3.194  17.427  0.00  0.00    +0.000 N 
ATOM     19  C   UNL     1      51.232   4.378  17.398  0.00  0.00    +0.000 A 
ATOM     20  O   UNL     1      51.801   5.468  17.311  0.00  0.00    +0.000 OA
ATOM     21  C   UNL     1      49.787   4.214  17.437  0.00  0.00    +0.000 A 
ATOM     22  H   UNL     1      52.950   3.276  17.380  0.00  0.00    +0.000 HD
ENDBRANCH  11  12
ENDBRANCH   8  11
ENDBRANCH   7   8
ENDBRANCH   1   7
BRANCH   4  23
ATOM     23  C   UNL     1      45.514   5.727  10.543  0.00  0.00    +0.000 C 
BRANCH  23  24
ATOM     24  N   UNL     1      44.829   4.440  10.683  0.00  0.00    +0.000 NA
ATOM     25  H   UNL     1      44.076   4.548  11.362  0.00  0.00    +0.000 HD
BRANCH  24  26
ATOM     26  C   UNL     1      44.278   4.004   9.406  0.00  0.00    +0.000 C 
BRANCH  26  27
ATOM     27  C   UNL     1      45.314   3.269   8.585  0.00  0.00    +0.000 A 
ATOM     28  C   UNL     1      46.100   3.960   7.658  0.00  0.00    +0.000 A 
ATOM     29  C   UNL     1      47.065   3.279   6.916  0.00  0.00    +0.000 A 
ATOM     30  N   UNL     1      47.270   1.920   7.070  0.00  0.00    +0.000 N 
ATOM     31  O   UNL     1      48.153   1.318   6.387  0.00  0.00    +0.000 OA
ATOM     32  C   UNL     1      46.493   1.238   7.988  0.00  0.00    +0.000 A 
ATOM     33  C   UNL     1      45.522   1.893   8.748  0.00  0.00    +0.000 A 
ENDBRANCH  26  27
ENDBRANCH  24  26
ENDBRANCH  23  24
ENDBRANCH   4  23
TORSDOF 8
ENDMDL
MODEL 5
REMARK VINA RESULT:    -7.848      3.170      4.377
REMARK INTER + INTRA:         -12.576
REMARK INTER:                 -11.583
REMARK INTRA:                  -0.992
REMARK UNBOUND:                -1.058
REMARK  Name = 
REMARK  9 active torsions:
REMARK  status: ('A' for Active; 'I' for Inactive)
REMARK    1  A    between atoms: C_1  and  C_2
REMARK    2  A    between atoms: C_2  and  N_3
REMARK    3  A    between atoms: C_2  and  C_21
REMARK    4  A    between atoms: N_3  and  C_4
REMARK    5  A    between atoms: C_4  and  C_5
REMARK    6  A    between atoms: C_8  and  C_9
REMARK    7  A    between atoms: C_9  and  N_10
REMARK    8  A    between atoms: N_10  and  C_11
REMARK    9  A    between atoms: C_11  and  C_12
REMARK                            x       y       z     vdW  Elec       q    Type
REMARK                         _______ _______ _______ _____ _____    ______ ____
ROOT
ATOM      1  C   UNL     1      47.521   6.091  13.206  0.00  0.00    +0.000 A 
ATOM      2  C   UNL     1      46.669   5.083  13.681  0.00  0.00    +0.000 A 
ATOM      3  C   UNL     1      45.555   4.693  12.941  0.00  0.00    +0.000 A 
ATOM      4  C   UNL     1      45.262   5.312  11.718  0.00  0.00    +0.000 A 
ATOM      5  C   UNL     1      46.116   6.316  11.243  0.00  0.00    +0.000 A 
ATOM      6  C   UNL     1      47.236   6.702  11.981  0.00  0.00    +0.000 A 
ENDROOT
BRANCH   1   7
ATOM      7  C   UNL     1      48.629   6.619  14.082  0.00  0.00    +0.000 C 
BRANCH   7   8
ATOM      8  N   UNL     1      48.164   7.059  15.401  0.00  0.00    +0.000 NA
ATOM      9  H   UNL     1      47.237   6.666  15.562  0.00  0.00    +0.000 HD
BRANCH   8  11
ATOM     10  C   UNL     1      50.516   7.025  16.168  0.00  0.00    +0.000 C 
ATOM     11  C   UNL     1      49.059   6.623  16.489  0.00  0.00    +0.000 C 
BRANCH  11  12
ATOM     12  C   UNL     1      48.575   7.281  17.784  0.00  0.00    +0.000 A 
ATOM     13  C   UNL     1      48.488   6.598  18.990  0.00  0.00    +0.000 A 
ATOM     14  S   UNL     1      47.771   7.493  20.248  0.00  0.00    +0.000 S 
ATOM     15  C   UNL     1      47.648   8.879  19.269  0.00  0.00    +0.000 A 
ATOM     16  N   UNL     1      47.127  10.035  19.769  0.00  0.00    +0.000 NA
ATOM     17  C   UNL     1      47.148  11.026  18.943  0.00  0.00    +0.000 A 
ATOM     18  N   UNL     1      47.636  10.965  17.667  0.00  0.00    +0.000 N 
ATOM     19  C   UNL     1      48.178   9.820  17.118  0.00  0.00    +0.000 A 
ATOM     20  O   UNL     1      48.667   9.819  15.987  0.00  0.00    +0.000 OA
ATOM     21  C   UNL     1      48.153   8.660  17.997  0.00  0.00    +0.000 A 
ATOM     22  H   UNL     1      47.659  11.794  17.087  0.00  0.00    +0.000 HD
ENDBRANCH  11  12
ENDBRANCH   8  11
ENDBRANCH   7   8
ENDBRANCH   1   7
BRANCH   4  23
ATOM     23  C   UNL     1      44.049   4.898  10.922  0.00  0.00    +0.000 C 
BRANCH  23  24
ATOM     24  N   UNL     1      44.409   4.564   9.542  0.00  0.00    +0.000 NA
ATOM     25  H   UNL     1      45.348   4.917   9.359  0.00  0.00    +0.000 HD
BRANCH  24  26
ATOM     26  C   UNL     1      44.379   3.121   9.332  0.00  0.00    +0.000 C 
BRANCH  26  27
ATOM     27  C   UNL     1      45.468   2.685   8.378  0.00  0.00    +0.000 A 
ATOM     28  C   UNL     1      46.026   3.599   7.479  0.00  0.00    +0.000 A 
ATOM     29  C   UNL     1      47.041   3.194   6.612  0.00  0.00    +0.000 A 
ATOM     30  N   UNL     1      47.518   1.896   6.613  0.00  0.00    +0.000 N 
ATOM     31  O   UNL     1      48.442   1.546   5.818  0.00  0.00    +0.000 OA
ATOM     32  C   UNL     1      46.965   0.993   7.502  0.00  0.00    +0.000 A 
ATOM     33  C   UNL     1      45.951   1.370   8.385  0.00  0.00    +0.000 A 
ENDBRANCH  26  27
ENDBRANCH  24  26
ENDBRANCH  23  24
ENDBRANCH   4  23
TORSDOF 8
ENDMDL
MODEL 6
REMARK VINA RESULT:    -7.588      4.068      5.004
REMARK INTER + INTRA:         -12.194
REMARK INTER:                 -10.974
REMARK INTRA:                  -1.220
REMARK UNBOUND:                -1.058
REMARK  Name = 
REMARK  9 active torsions:
REMARK  status: ('A' for Active; 'I' for Inactive)
REMARK    1  A    between atoms: C_1  and  C_2
REMARK    2  A    between atoms: C_2  and  N_3
REMARK    3  A    between atoms: C_2  and  C_21
REMARK    4  A    between atoms: N_3  and  C_4
REMARK    5  A    between atoms: C_4  and  C_5
REMARK    6  A    between atoms: C_8  and  C_9
REMARK    7  A    between atoms: C_9  and  N_10
REMARK    8  A    between atoms: N_10  and  C_11
REMARK    9  A    between atoms: C_11  and  C_12
REMARK                            x       y       z     vdW  Elec       q    Type
REMARK                         _______ _______ _______ _____ _____    ______ ____
ROOT
ATOM      1  C   UNL     1      46.998   6.148  13.024  0.00  0.00    +0.000 A 
ATOM      2  C   UNL     1      46.810   6.631  11.721  0.00  0.00    +0.000 A 
ATOM      3  C   UNL     1      45.707   6.228  10.970  0.00  0.00    +0.000 A 
ATOM      4  C   UNL     1      44.779   5.322  11.501  0.00  0.00    +0.000 A 
ATOM      5  C   UNL     1      44.966   4.843  12.805  0.00  0.00    +0.000 A 
ATOM      6  C   UNL     1      46.067   5.253  13.560  0.00  0.00    +0.000 A 
ENDROOT
BRANCH   1   7
ATOM      7  C   UNL     1      48.271   6.460  13.769  0.00  0.00    +0.000 C 
BRANCH   7   8
ATOM      8  N   UNL     1      49.375   6.853  12.888  0.00  0.00    +0.000 NA
ATOM      9  H   UNL     1      49.120   6.621  11.929  0.00  0.00    +0.000 HD
BRANCH   8  11
ATOM     10  C   UNL     1      48.847   8.946  14.098  0.00  0.00    +0.000 C 
ATOM     11  C   UNL     1      49.669   8.297  12.962  0.00  0.00    +0.000 C 
BRANCH  11  12
ATOM     12  C   UNL     1      51.173   8.456  13.206  0.00  0.00    +0.000 A 
ATOM     13  C   UNL     1      51.704   8.790  14.444  0.00  0.00    +0.000 A 
ATOM     14  S   UNL     1      53.384   9.068  14.429  0.00  0.00    +0.000 S 
ATOM     15  C   UNL     1      53.499   8.640  12.787  0.00  0.00    +0.000 A 
ATOM     16  N   UNL     1      54.705   8.645  12.153  0.00  0.00    +0.000 NA
ATOM     17  C   UNL     1      54.661   8.240  10.929  0.00  0.00    +0.000 A 
ATOM     18  N   UNL     1      53.526   7.838  10.282  0.00  0.00    +0.000 N 
ATOM     19  C   UNL     1      52.283   7.810  10.883  0.00  0.00    +0.000 A 
ATOM     20  O   UNL     1      51.291   7.381  10.289  0.00  0.00    +0.000 OA
ATOM     21  C   UNL     1      52.267   8.285  12.258  0.00  0.00    +0.000 A 
ATOM     22  H   UNL     1      53.571   7.494   9.331  0.00  0.00    +0.000 HD
ENDBRANCH  11  12
ENDBRANCH   8  11
ENDBRANCH   7   8
ENDBRANCH   1   7
BRANCH   4  23
ATOM     23  C   UNL     1      43.591   4.875  10.686  0.00  0.00    +0.000 C 
BRANCH  23  24
ATOM     24  N   UNL     1      44.007   4.360   9.379  0.00  0.00    +0.000 NA
ATOM     25  H   UNL     1      44.800   4.912   9.053  0.00  0.00    +0.000 HD
BRANCH  24  26
ATOM     26  C   UNL     1      44.393   2.957   9.474  0.00  0.00    +0.000 C 
BRANCH  26  27
ATOM     27  C   UNL     1      45.485   2.622   8.483  0.00  0.00    +0.000 A 
ATOM     28  C   UNL     1      45.976   1.316   8.389  0.00  0.00    +0.000 A 
ATOM     29  C   UNL     1      46.972   1.010   7.462  0.00  0.00    +0.000 A 
ATOM     30  N   UNL     1      47.498   1.974   6.621  0.00  0.00    +0.000 N 
ATOM     31  O   UNL     1      48.403   1.678   5.783  0.00  0.00    +0.000 OA
ATOM     32  C   UNL     1      47.012   3.265   6.715  0.00  0.00    +0.000 A 
ATOM     33  C   UNL     1      46.012   3.600   7.631  0.00  0.00    +0.000 A 
ENDBRANCH  26  27
ENDBRANCH  24  26
ENDBRANCH  23  24
ENDBRANCH   4  23
TORSDOF 8
ENDMDL
MODEL 7
REMARK VINA RESULT:    -7.124      3.042      3.613
REMARK INTER + INTRA:         -11.513
REMARK INTER:                 -10.382
REMARK INTRA:                  -1.130
REMARK UNBOUND:                -1.058
REMARK  Name = 
REMARK  9 active torsions:
REMARK  status: ('A' for Active; 'I' for Inactive)
REMARK    1  A    between atoms: C_1  and  C_2
REMARK    2  A    between atoms: C_2  and  N_3
REMARK    3  A    between atoms: C_2  and  C_21
REMARK    4  A    between atoms: N_3  and  C_4
REMARK    5  A    between atoms: C_4  and  C_5
REMARK    6  A    between atoms: C_8  and  C_9
REMARK    7  A    between atoms: C_9  and  N_10
REMARK    8  A    between atoms: N_10  and  C_11
REMARK    9  A    between atoms: C_11  and  C_12
REMARK                            x       y       z     vdW  Elec       q    Type
REMARK                         _______ _______ _______ _____ _____    ______ ____
ROOT
ATOM      1  C   UNL     1      47.598   6.783  12.892  0.00  0.00    +0.000 A 
ATOM      2  C   UNL     1      47.043   6.905  11.610  0.00  0.00    +0.000 A 
ATOM      3  C   UNL     1      46.109   5.978  11.152  0.00  0.00    +0.000 A 
ATOM      4  C   UNL     1      45.723   4.900  11.961  0.00  0.00    +0.000 A 
ATOM      5  C   UNL     1      46.276   4.781  13.244  0.00  0.00    +0.000 A 
ATOM      6  C   UNL     1      47.205   5.715  13.705  0.00  0.00    +0.000 A 
ENDROOT
BRANCH   1   7
ATOM      7  C   UNL     1      48.722   7.693  13.319  0.00  0.00    +0.000 C 
BRANCH   7   8
ATOM      8  N   UNL     1      49.777   6.998  14.064  0.00  0.00    +0.000 NA
ATOM      9  H   UNL     1      50.622   6.992  13.494  0.00  0.00    +0.000 HD
BRANCH   8  11
ATOM     10  C   UNL     1      48.828   7.628  16.261  0.00  0.00    +0.000 C 
ATOM     11  C   UNL     1      50.078   7.649  15.353  0.00  0.00    +0.000 C 
BRANCH  11  12
ATOM     12  C   UNL     1      51.244   6.892  15.996  0.00  0.00    +0.000 A 
ATOM     13  C   UNL     1      51.065   5.934  16.986  0.00  0.00    +0.000 A 
ATOM     14  S   UNL     1      52.516   5.350  17.660  0.00  0.00    +0.000 S 
ATOM     15  C   UNL     1      53.455   6.267  16.577  0.00  0.00    +0.000 A 
ATOM     16  N   UNL     1      54.816   6.197  16.612  0.00  0.00    +0.000 NA
ATOM     17  C   UNL     1      55.405   6.892  15.698  0.00  0.00    +0.000 A 
ATOM     18  N   UNL     1      54.760   7.651  14.761  0.00  0.00    +0.000 N 
ATOM     19  C   UNL     1      53.385   7.749  14.682  0.00  0.00    +0.000 A 
ATOM     20  O   UNL     1      52.836   8.391  13.784  0.00  0.00    +0.000 OA
ATOM     21  C   UNL     1      52.668   7.007  15.709  0.00  0.00    +0.000 A 
ATOM     22  H   UNL     1      55.285   8.140  14.047  0.00  0.00    +0.000 HD
ENDBRANCH  11  12
ENDBRANCH   8  11
ENDBRANCH   7   8
ENDBRANCH   1   7
BRANCH   4  23
ATOM     23  C   UNL     1      44.721   3.889  11.463  0.00  0.00    +0.000 C 
BRANCH  23  24
ATOM     24  N   UNL     1      44.428   4.087  10.042  0.00  0.00    +0.000 NA
ATOM     25  H   UNL     1      45.205   4.595   9.620  0.00  0.00    +0.000 HD
BRANCH  24  26
ATOM     26  C   UNL     1      44.255   2.808   9.364  0.00  0.00    +0.000 C 
BRANCH  26  27
ATOM     27  C   UNL     1      45.419   2.515   8.443  0.00  0.00    +0.000 A 
ATOM     28  C   UNL     1      45.918   1.214   8.329  0.00  0.00    +0.000 A 
ATOM     29  C   UNL     1      46.981   0.948   7.466  0.00  0.00    +0.000 A 
ATOM     30  N   UNL     1      47.566   1.947   6.710  0.00  0.00    +0.000 N 
ATOM     31  O   UNL     1      48.532   1.686   5.930  0.00  0.00    +0.000 OA
ATOM     32  C   UNL     1      47.071   3.233   6.823  0.00  0.00    +0.000 A 
ATOM     33  C   UNL     1      46.005   3.529   7.676  0.00  0.00    +0.000 A 
ENDBRANCH  26  27
ENDBRANCH  24  26
ENDBRANCH  23  24
ENDBRANCH   4  23
TORSDOF 8
ENDMDL
MODEL 8
REMARK VINA RESULT:    -7.074      2.900      3.626
REMARK INTER + INTRA:         -11.440
REMARK INTER:                 -10.262
REMARK INTRA:                  -1.178
REMARK UNBOUND:                -1.058
REMARK  Name = 
REMARK  9 active torsions:
REMARK  status: ('A' for Active; 'I' for Inactive)
REMARK    1  A    between atoms: C_1  and  C_2
REMARK    2  A    between atoms: C_2  and  N_3
REMARK    3  A    between atoms: C_2  and  C_21
REMARK    4  A    between atoms: N_3  and  C_4
REMARK    5  A    between atoms: C_4  and  C_5
REMARK    6  A    between atoms: C_8  and  C_9
REMARK    7  A    between atoms: C_9  and  N_10
REMARK    8  A    between atoms: N_10  and  C_11
REMARK    9  A    between atoms: C_11  and  C_12
REMARK                            x       y       z     vdW  Elec       q    Type
REMARK                         _______ _______ _______ _____ _____    ______ ____
ROOT
ATOM      1  C   UNL     1      48.233   6.816  13.039  0.00  0.00    +0.000 A 
ATOM      2  C   UNL     1      47.693   7.148  11.788  0.00  0.00    +0.000 A 
ATOM      3  C   UNL     1      46.587   6.463  11.291  0.00  0.00    +0.000 A 
ATOM      4  C   UNL     1      46.006   5.421  12.029  0.00  0.00    +0.000 A 
ATOM      5  C   UNL     1      46.544   5.093  13.281  0.00  0.00    +0.000 A 
ATOM      6  C   UNL     1      47.648   5.785  13.782  0.00  0.00    +0.000 A 
ENDROOT
BRANCH   1   7
ATOM      7  C   UNL     1      49.522   7.449  13.498  0.00  0.00    +0.000 C 
BRANCH   7   8
ATOM      8  N   UNL     1      50.029   6.884  14.753  0.00  0.00    +0.000 NA
ATOM      9  H   UNL     1      50.267   5.906  14.592  0.00  0.00    +0.000 HD
BRANCH   8  11
ATOM     10  C   UNL     1      51.105   9.103  14.963  0.00  0.00    +0.000 C 
ATOM     11  C   UNL     1      51.228   7.588  15.244  0.00  0.00    +0.000 C 
BRANCH  11  12
ATOM     12  C   UNL     1      51.350   7.311  16.746  0.00  0.00    +0.000 A 
ATOM     13  C   UNL     1      52.547   6.947  17.350  0.00  0.00    +0.000 A 
ATOM     14  S   UNL     1      52.398   6.534  18.995  0.00  0.00    +0.000 S 
ATOM     15  C   UNL     1      50.745   6.934  19.006  0.00  0.00    +0.000 A 
ATOM     16  N   UNL     1      50.015   6.825  20.151  0.00  0.00    +0.000 NA
ATOM     17  C   UNL     1      48.792   7.219  20.039  0.00  0.00    +0.000 A 
ATOM     18  N   UNL     1      48.233   7.705  18.889  0.00  0.00    +0.000 N 
ATOM     19  C   UNL     1      48.933   7.840  17.707  0.00  0.00    +0.000 A 
ATOM     20  O   UNL     1      48.416   8.342  16.707  0.00  0.00    +0.000 OA
ATOM     21  C   UNL     1      50.313   7.383  17.767  0.00  0.00    +0.000 A 
ATOM     22  H   UNL     1      47.277   8.035  18.883  0.00  0.00    +0.000 HD
ENDBRANCH  11  12
ENDBRANCH   8  11
ENDBRANCH   7   8
ENDBRANCH   1   7
BRANCH   4  23
ATOM     23  C   UNL     1      44.815   4.671  11.487  0.00  0.00    +0.000 C 
BRANCH  23  24
ATOM     24  N   UNL     1      44.489   5.103  10.126  0.00  0.00    +0.000 NA
ATOM     25  H   UNL     1      45.332   5.485   9.699  0.00  0.00    +0.000 HD
BRANCH  24  26
ATOM     26  C   UNL     1      44.000   3.984   9.330  0.00  0.00    +0.000 C 
BRANCH  26  27
ATOM     27  C   UNL     1      45.135   3.285   8.614  0.00  0.00    +0.000 A 
ATOM     28  C   UNL     1      46.009   4.013   7.801  0.00  0.00    +0.000 A 
ATOM     29  C   UNL     1      47.063   3.365   7.156  0.00  0.00    +0.000 A 
ATOM     30  N   UNL     1      47.271   2.005   7.297  0.00  0.00    +0.000 N 
ATOM     31  O   UNL     1      48.235   1.434   6.704  0.00  0.00    +0.000 OA
ATOM     32  C   UNL     1      46.405   1.288   8.102  0.00  0.00    +0.000 A 
ATOM     33  C   UNL     1      45.344   1.909   8.763  0.00  0.00    +0.000 A 
ENDBRANCH  26  27
ENDBRANCH  24  26
ENDBRANCH  23  24
ENDBRANCH   4  23
TORSDOF 8
ENDMDL
MODEL 9
REMARK VINA RESULT:    -6.931      3.241      9.051
REMARK INTER + INTRA:         -11.231
REMARK INTER:                  -9.539
REMARK INTRA:                  -1.691
REMARK UNBOUND:                -1.058
REMARK  Name = 
REMARK  9 active torsions:
REMARK  status: ('A' for Active; 'I' for Inactive)
REMARK    1  A    between atoms: C_1  and  C_2
REMARK    2  A    between atoms: C_2  and  N_3
REMARK    3  A    between atoms: C_2  and  C_21
REMARK    4  A    between atoms: N_3  and  C_4
REMARK    5  A    between atoms: C_4  and  C_5
REMARK    6  A    between atoms: C_8  and  C_9
REMARK    7  A    between atoms: C_9  and  N_10
REMARK    8  A    between atoms: N_10  and  C_11
REMARK    9  A    between atoms: C_11  and  C_12
REMARK                            x       y       z     vdW  Elec       q    Type
REMARK                         _______ _______ _______ _____ _____    ______ ____
ROOT
ATOM      1  C   UNL     1      48.266   7.853  13.186  0.00  0.00    +0.000 A 
ATOM      2  C   UNL     1      49.598   7.474  13.403  0.00  0.00    +0.000 A 
ATOM      3  C   UNL     1      50.266   7.870  14.560  0.00  0.00    +0.000 A 
ATOM      4  C   UNL     1      49.620   8.666  15.516  0.00  0.00    +0.000 A 
ATOM      5  C   UNL     1      48.287   9.042  15.299  0.00  0.00    +0.000 A 
ATOM      6  C   UNL     1      47.616   8.638  14.144  0.00  0.00    +0.000 A 
ENDROOT
BRANCH   1   7
ATOM      7  C   UNL     1      47.602   7.558  11.865  0.00  0.00    +0.000 C 
BRANCH   7   8
ATOM      8  N   UNL     1      46.905   6.268  11.843  0.00  0.00    +0.000 NA
ATOM      9  H   UNL     1      47.363   5.645  12.507  0.00  0.00    +0.000 HD
BRANCH   8  11
ATOM     10  C   UNL     1      44.857   7.615  11.506  0.00  0.00    +0.000 C 
ATOM     11  C   UNL     1      45.482   6.390  12.210  0.00  0.00    +0.000 C 
BRANCH  11  12
ATOM     12  C   UNL     1      44.780   5.094  11.794  0.00  0.00    +0.000 A 
ATOM     13  C   UNL     1      43.897   4.416  12.624  0.00  0.00    +0.000 A 
ATOM     14  S   UNL     1      43.371   2.919  12.006  0.00  0.00    +0.000 S 
ATOM     15  C   UNL     1      44.210   3.161  10.547  0.00  0.00    +0.000 A 
ATOM     16  N   UNL     1      44.150   2.232   9.552  0.00  0.00    +0.000 NA
ATOM     17  C   UNL     1      44.778   2.566   8.476  0.00  0.00    +0.000 A 
ATOM     18  N   UNL     1      45.464   3.737   8.307  0.00  0.00    +0.000 N 
ATOM     19  C   UNL     1      45.548   4.711   9.283  0.00  0.00    +0.000 A 
ATOM     20  O   UNL     1      46.120   5.783   9.073  0.00  0.00    +0.000 OA
ATOM     21  C   UNL     1      44.880   4.374  10.531  0.00  0.00    +0.000 A 
ATOM     22  H   UNL     1      45.901   3.953   7.420  0.00  0.00    +0.000 HD
ENDBRANCH  11  12
ENDBRANCH   8  11
ENDBRANCH   7   8
ENDBRANCH   1   7
BRANCH   4  23
ATOM     23  C   UNL     1      50.346   9.106  16.763  0.00  0.00    +0.000 C 
BRANCH  23  24
ATOM     24  N   UNL     1      49.690   8.592  17.968  0.00  0.00    +0.000 NA
ATOM     25  H   UNL     1      48.687   8.535  17.790  0.00  0.00    +0.000 HD
BRANCH  24  26
ATOM     26  C   UNL     1      50.202   7.272  18.315  0.00  0.00    +0.000 C 
BRANCH  26  27
ATOM     27  C   UNL     1      49.181   6.195  18.023  0.00  0.00    +0.000 A 
ATOM     28  C   UNL     1      49.469   5.181  17.105  0.00  0.00    +0.000 A 
ATOM     29  C   UNL     1      48.529   4.182  16.852  0.00  0.00    +0.000 A 
ATOM     30  N   UNL     1      47.302   4.165  17.488  0.00  0.00    +0.000 N 
ATOM     31  O   UNL     1      46.459   3.249  17.245  0.00  0.00    +0.000 OA
ATOM     32  C   UNL     1      47.018   5.170  18.395  0.00  0.00    +0.000 A 
ATOM     33  C   UNL     1      47.940   6.181  18.673  0.00  0.00    +0.000 A 
ENDBRANCH  26  27
ENDBRANCH  24  26
ENDBRANCH  23  24
ENDBRANCH   4  23
TORSDOF 8
ENDMDL
