MODEL 1
REMARK VINA RESULT:    -7.821      0.000      0.000
REMARK INTER + INTRA:         -11.896
REMARK INTER:                 -11.021
REMARK INTRA:                  -0.875
REMARK UNBOUND:                -0.875
REMARK  Name = 
REMARK  8 active torsions:
REMARK  status: ('A' for Active; 'I' for Inactive)
REMARK    1  A    between atoms: N_1  and  C_2
REMARK    2  A    between atoms: C_2  and  C_3
REMARK    3  A    between atoms: C_3  and  C_4
REMARK    4  A    between atoms: C_7  and  O_8
REMARK    5  A    between atoms: O_8  and  C_9
REMARK    6  A    between atoms: C_9  and  C_10
REMARK    7  A    between atoms: C_14  and  S_15
REMARK    8  A    between atoms: S_15  and  N_16
REMARK                            x       y       z     vdW  Elec       q    Type
REMARK                         _______ _______ _______ _____ _____    ______ ____
ROOT
ATOM      1  C   UNL     1      43.229   4.535  11.235  0.00  0.00    +0.000 C 
ENDROOT
BRANCH   1   2
ATOM      2  C   UNL     1      44.328   5.279  11.947  0.00  0.00    +0.000 A 
ATOM      3  C   UNL     1      44.489   6.661  11.773  0.00  0.00    +0.000 A 
ATOM      4  C   UNL     1      45.503   7.350  12.442  0.00  0.00    +0.000 A 
ATOM      5  C   UNL     1      46.359   6.669  13.308  0.00  0.00    +0.000 A 
ATOM      6  C   UNL     1      46.188   5.296  13.499  0.00  0.00    +0.000 A 
ATOM      7  C   UNL     1      45.196   4.595  12.808  0.00  0.00    +0.000 A 
BRANCH   6   8
ATOM      8  S   UNL     1      47.222   4.419  14.643  0.00  0.00    +0.000 S 
ATOM      9  O   UNL     1      47.421   3.082  14.140  0.00  0.00    +0.000 OA
ATOM     10  O   UNL     1      48.307   5.286  15.031  0.00  0.00    +0.000 OA
BRANCH   8  11
ATOM     11  N   UNL     1      46.180   4.304  15.955  0.00  0.00    +0.000 NA
ATOM     12  H   UNL     1      46.669   4.167  16.837  0.00  0.00    +0.000 HD
ATOM     13  H   UNL     1      45.366   3.718  15.785  0.00  0.00    +0.000 HD
ENDBRANCH   8  11
ENDBRANCH   6   8
ENDBRANCH   1   2
BRANCH   1  14
ATOM     14  O   UNL     1      43.420   4.664   9.824  0.00  0.00    +0.000 OA
BRANCH  14  18
ATOM     15  C   UNL     1      46.218   2.195   7.957  0.00  0.00    +0.000 A 
ATOM     16  C   UNL     1      46.223   3.584   7.776  0.00  0.00    +0.000 A 
ATOM     17  C   UNL     1      45.291   4.385   8.442  0.00  0.00    +0.000 A 
ATOM     18  C   UNL     1      44.345   3.807   9.290  0.00  0.00    +0.000 A 
ATOM     19  C   UNL     1      44.387   2.433   9.530  0.00  0.00    +0.000 A 
ATOM     20  C   UNL     1      45.311   1.632   8.860  0.00  0.00    +0.000 A 
BRANCH  15  21
ATOM     21  C   UNL     1      47.169   1.308   7.193  0.00  0.00    +0.000 C 
BRANCH  21  22
ATOM     22  C   UNL     1      48.368   2.080   6.642  0.00  0.00    +0.000 C 
BRANCH  22  23
ATOM     23  N   UNL     1      48.368   2.058   5.180  0.00  0.00    +0.000 NA
ATOM     24  H   UNL     1      49.182   1.542   4.851  0.00  0.00    +0.000 HD
ATOM     25  H   UNL     1      48.471   3.009   4.824  0.00  0.00    +0.000 HD
ENDBRANCH  22  23
ENDBRANCH  21  22
ENDBRANCH  15  21
ENDBRANCH  14  18
ENDBRANCH   1  14
TORSDOF 8
ENDMDL
MODEL 2
REMARK VINA RESULT:    -7.701      1.144      1.672
REMARK INTER + INTRA:         -11.726
REMARK INTER:                 -11.048
REMARK INTRA:                  -0.678
REMARK UNBOUND:                -0.875
REMARK  Name = 
REMARK  8 active torsions:
REMARK  status: ('A' for Active; 'I' for Inactive)
REMARK    1  A    between atoms: N_1  and  C_2
REMARK    2  A    between atoms: C_2  and  C_3
REMARK    3  A    between atoms: C_3  and  C_4
REMARK    4  A    between atoms: C_7  and  O_8
REMARK    5  A    between atoms: O_8  and  C_9
REMARK    6  A    between atoms: C_9  and  C_10
REMARK    7  A    between atoms: C_14  and  S_15
REMARK    8  A    between atoms: S_15  and  N_16
REMARK                            x       y       z     vdW  Elec       q    Type
REMARK                         _______ _______ _______ _____ _____    ______ ____
ROOT
ATOM      1  C   UNL     1      43.947   4.476  11.838  0.00  0.00    +0.000 C 
ENDROOT
BRANCH   1   2
ATOM      2  C   UNL     1      45.202   4.983  12.500  0.00  0.00    +0.000 A 
ATOM      3  C   UNL     1      45.837   6.146  12.041  0.00  0.00    +0.000 A 
ATOM      4  C   UNL     1      46.994   6.618  12.663  0.00  0.00    +0.000 A 
ATOM      5  C   UNL     1      47.523   5.944  13.764  0.00  0.00    +0.000 A 
ATOM      6  C   UNL     1      46.880   4.797  14.236  0.00  0.00    +0.000 A 
ATOM      7  C   UNL     1      45.740   4.301  13.599  0.00  0.00    +0.000 A 
BRANCH   6   8
ATOM      8  S   UNL     1      47.495   3.958  15.674  0.00  0.00    +0.000 S 
ATOM      9  O   UNL     1      46.452   3.942  16.670  0.00  0.00    +0.000 OA
ATOM     10  O   UNL     1      48.194   2.773  15.243  0.00  0.00    +0.000 OA
BRANCH   8  11
ATOM     11  N   UNL     1      48.653   5.062  16.188  0.00  0.00    +0.000 NA
ATOM     12  H   UNL     1      48.953   4.901  17.147  0.00  0.00    +0.000 HD
ATOM     13  H   UNL     1      48.452   6.023  15.924  0.00  0.00    +0.000 HD
ENDBRANCH   8  11
ENDBRANCH   6   8
ENDBRANCH   1   2
BRANCH   1  14
ATOM     14  O   UNL     1      43.929   4.920  10.479  0.00  0.00    +0.000 OA
BRANCH  14  18
ATOM     15  C   UNL     1      46.062   2.303   8.027  0.00  0.00    +0.000 A 
ATOM     16  C   UNL     1      45.181   1.838   9.012  0.00  0.00    +0.000 A 
ATOM     17  C   UNL     1      44.458   2.742   9.795  0.00  0.00    +0.000 A 
ATOM     18  C   UNL     1      44.611   4.117   9.604  0.00  0.00    +0.000 A 
ATOM     19  C   UNL     1      45.429   4.580   8.573  0.00  0.00    +0.000 A 
ATOM     20  C   UNL     1      46.157   3.679   7.797  0.00  0.00    +0.000 A 
BRANCH  15  21
ATOM     21  C   UNL     1      46.903   1.345   7.222  0.00  0.00    +0.000 C 
BRANCH  21  22
ATOM     22  C   UNL     1      48.250   1.950   6.822  0.00  0.00    +0.000 C 
BRANCH  22  23
ATOM     23  N   UNL     1      48.401   1.957   5.368  0.00  0.00    +0.000 NA
ATOM     24  H   UNL     1      48.816   1.076   5.068  0.00  0.00    +0.000 HD
ATOM     25  H   UNL     1      49.058   2.688   5.096  0.00  0.00    +0.000 HD
ENDBRANCH  22  23
ENDBRANCH  21  22
ENDBRANCH  15  21
ENDBRANCH  14  18
ENDBRANCH   1  14
TORSDOF 8
ENDMDL
MODEL 3
REMARK VINA RESULT:    -7.543      2.196      2.541
REMARK INTER + INTRA:         -11.505
REMARK INTER:                 -10.694
REMARK INTRA:                  -0.811
REMARK UNBOUND:                -0.875
REMARK  Name = 
REMARK  8 active torsions:
REMARK  status: ('A' for Active; 'I' for Inactive)
REMARK    1  A    between atoms: N_1  and  C_2
REMARK    2  A    between atoms: C_2  and  C_3
REMARK    3  A    between atoms: C_3  and  C_4
REMARK    4  A    between atoms: C_7  and  O_8
REMARK    5  A    between atoms: O_8  and  C_9
REMARK    6  A    between atoms: C_9  and  C_10
REMARK    7  A    between atoms: C_14  and  S_15
REMARK    8  A    between atoms: S_15  and  N_16
REMARK                            x       y       z     vdW  Elec       q    Type
REMARK                         _______ _______ _______ _____ _____    ______ ____
ROOT
ATOM      1  C   UNL     1      43.370   4.444  11.432  0.00  0.00    +0.000 C 
ENDROOT
BRANCH   1   2
ATOM      2  C   UNL     1      44.570   4.935  12.201  0.00  0.00    +0.000 A 
ATOM      3  C   UNL     1      45.397   4.037  12.890  0.00  0.00    +0.000 A 
ATOM      4  C   UNL     1      46.513   4.494  13.593  0.00  0.00    +0.000 A 
ATOM      5  C   UNL     1      46.828   5.853  13.601  0.00  0.00    +0.000 A 
ATOM      6  C   UNL     1      46.018   6.747  12.898  0.00  0.00    +0.000 A 
ATOM      7  C   UNL     1      44.881   6.300  12.218  0.00  0.00    +0.000 A 
BRANCH   6   8
ATOM      8  S   UNL     1      46.433   8.471  12.839  0.00  0.00    +0.000 S 
ATOM      9  O   UNL     1      47.569   8.634  11.967  0.00  0.00    +0.000 OA
ATOM     10  O   UNL     1      45.212   9.226  12.696  0.00  0.00    +0.000 OA
BRANCH   8  11
ATOM     11  N   UNL     1      46.979   8.698  14.411  0.00  0.00    +0.000 NA
ATOM     12  H   UNL     1      47.562   9.526  14.512  0.00  0.00    +0.000 HD
ATOM     13  H   UNL     1      47.308   7.846  14.860  0.00  0.00    +0.000 HD
ENDBRANCH   8  11
ENDBRANCH   6   8
ENDBRANCH   1   2
BRANCH   1  14
ATOM     14  O   UNL     1      43.573   4.707  10.042  0.00  0.00    +0.000 OA
BRANCH  14  18
ATOM     15  C   UNL     1      46.146   2.221   7.895  0.00  0.00    +0.000 A 
ATOM     16  C   UNL     1      46.186   3.615   7.761  0.00  0.00    +0.000 A 
ATOM     17  C   UNL     1      45.331   4.420   8.520  0.00  0.00    +0.000 A 
ATOM     18  C   UNL     1      44.428   3.841   9.413  0.00  0.00    +0.000 A 
ATOM     19  C   UNL     1      44.440   2.459   9.603  0.00  0.00    +0.000 A 
ATOM     20  C   UNL     1      45.287   1.653   8.841  0.00  0.00    +0.000 A 
BRANCH  15  21
ATOM     21  C   UNL     1      47.009   1.332   7.035  0.00  0.00    +0.000 C 
BRANCH  21  22
ATOM     22  C   UNL     1      48.306   2.022   6.606  0.00  0.00    +0.000 C 
BRANCH  22  23
ATOM     23  N   UNL     1      48.344   2.189   5.154  0.00  0.00    +0.000 NA
ATOM     24  H   UNL     1      49.280   1.973   4.815  0.00  0.00    +0.000 HD
ATOM     25  H   UNL     1      48.174   3.167   4.918  0.00  0.00    +0.000 HD
ENDBRANCH  22  23
ENDBRANCH  21  22
ENDBRANCH  15  21
ENDBRANCH  14  18
ENDBRANCH   1  14
TORSDOF 8
ENDMDL
MODEL 4
REMARK VINA RESULT:    -7.189      1.591      2.228
REMARK INTER + INTRA:         -11.006
REMARK INTER:                 -10.304
REMARK INTRA:                  -0.702
REMARK UNBOUND:                -0.875
REMARK  Name = 
REMARK  8 active torsions:
REMARK  status: ('A' for Active; 'I' for Inactive)
REMARK    1  A    between atoms: N_1  and  C_2
REMARK    2  A    between atoms: C_2  and  C_3
REMARK    3  A    between atoms: C_3  and  C_4
REMARK    4  A    between atoms: C_7  and  O_8
REMARK    5  A    between atoms: O_8  and  C_9
REMARK    6  A    between atoms: C_9  and  C_10
REMARK    7  A    between atoms: C_14  and  S_15
REMARK    8  A    between atoms: S_15  and  N_16
REMARK                            x       y       z     vdW  Elec       q    Type
REMARK                         _______ _______ _______ _____ _____    ______ ____
ROOT
ATOM      1  C   UNL     1      44.384   4.652  11.753  0.00  0.00    +0.000 C 
ENDROOT
BRANCH   1   2
ATOM      2  C   UNL     1      45.098   5.938  12.080  0.00  0.00    +0.000 A 
ATOM      3  C   UNL     1      44.548   7.177  11.720  0.00  0.00    +0.000 A 
ATOM      4  C   UNL     1      45.208   8.367  12.033  0.00  0.00    +0.000 A 
ATOM      5  C   UNL     1      46.419   8.335  12.727  0.00  0.00    +0.000 A 
ATOM      6  C   UNL     1      46.958   7.104  13.105  0.00  0.00    +0.000 A 
ATOM      7  C   UNL     1      46.319   5.908  12.767  0.00  0.00    +0.000 A 
BRANCH   6   8
ATOM      8  S   UNL     1      48.462   7.039  14.043  0.00  0.00    +0.000 S 
ATOM      9  O   UNL     1      48.788   8.377  14.471  0.00  0.00    +0.000 OA
ATOM     10  O   UNL     1      48.384   5.918  14.948  0.00  0.00    +0.000 OA
BRANCH   8  11
ATOM     11  N   UNL     1      49.550   6.628  12.831  0.00  0.00    +0.000 NA
ATOM     12  H   UNL     1      49.567   5.628  12.638  0.00  0.00    +0.000 HD
ATOM     13  H   UNL     1      50.449   7.096  12.909  0.00  0.00    +0.000 HD
ENDBRANCH   8  11
ENDBRANCH   6   8
ENDBRANCH   1   2
BRANCH   1  14
ATOM     14  O   UNL     1      43.919   4.712  10.402  0.00  0.00    +0.000 OA
BRANCH  14  18
ATOM     15  C   UNL     1      46.165   2.238   7.903  0.00  0.00    +0.000 A 
ATOM     16  C   UNL     1      45.266   1.717   8.842  0.00  0.00    +0.000 A 
ATOM     17  C   UNL     1      44.505   2.575   9.642  0.00  0.00    +0.000 A 
ATOM     18  C   UNL     1      44.639   3.958   9.514  0.00  0.00    +0.000 A 
ATOM     19  C   UNL     1      45.477   4.479   8.527  0.00  0.00    +0.000 A 
ATOM     20  C   UNL     1      46.242   3.624   7.734  0.00  0.00    +0.000 A 
BRANCH  15  21
ATOM     21  C   UNL     1      47.045   1.330   7.081  0.00  0.00    +0.000 C 
BRANCH  21  22
ATOM     22  C   UNL     1      48.333   2.021   6.631  0.00  0.00    +0.000 C 
BRANCH  22  23
ATOM     23  N   UNL     1      48.350   2.185   5.178  0.00  0.00    +0.000 NA
ATOM     24  H   UNL     1      49.105   1.626   4.785  0.00  0.00    +0.000 HD
ATOM     25  H   UNL     1      48.564   3.155   4.946  0.00  0.00    +0.000 HD
ENDBRANCH  22  23
ENDBRANCH  21  22
ENDBRANCH  15  21
ENDBRANCH  14  18
ENDBRANCH   1  14
TORSDOF 8
ENDMDL
MODEL 5
REMARK VINA RESULT:    -6.162      2.171      3.045
REMARK INTER + INTRA:          -9.559
REMARK INTER:                  -8.945
REMARK INTRA:                  -0.614
REMARK UNBOUND:                -0.875
REMARK  Name = 
REMARK  8 active torsions:
REMARK  status: ('A' for Active; 'I' for Inactive)
REMARK    1  A    between atoms: N_1  and  C_2
REMARK    2  A    between atoms: C_2  and  C_3
REMARK    3  A    between atoms: C_3  and  C_4
REMARK    4  A    between atoms: C_7  and  O_8
REMARK    5  A    between atoms: O_8  and  C_9
REMARK    6  A    between atoms: C_9  and  C_10
REMARK    7  A    between atoms: C_14  and  S_15
REMARK    8  A    between atoms: S_15  and  N_16
REMARK                            x       y       z     vdW  Elec       q    Type
REMARK                         _______ _______ _______ _____ _____    ______ ____
ROOT
ATOM      1  C   UNL     1      45.681   6.178  11.773  0.00  0.00    +0.000 C 
ENDROOT
BRANCH   1   2
ATOM      2  C   UNL     1      46.438   5.827  13.028  0.00  0.00    +0.000 A 
ATOM      3  C   UNL     1      46.115   4.677  13.763  0.00  0.00    +0.000 A 
ATOM      4  C   UNL     1      46.825   4.349  14.920  0.00  0.00    +0.000 A 
ATOM      5  C   UNL     1      47.880   5.157  15.348  0.00  0.00    +0.000 A 
ATOM      6  C   UNL     1      48.216   6.291  14.606  0.00  0.00    +0.000 A 
ATOM      7  C   UNL     1      47.490   6.642  13.465  0.00  0.00    +0.000 A 
BRANCH   6   8
ATOM      8  S   UNL     1      49.593   7.299  15.092  0.00  0.00    +0.000 S 
ATOM      9  O   UNL     1      49.087   8.578  15.527  0.00  0.00    +0.000 OA
ATOM     10  O   UNL     1      50.488   6.493  15.884  0.00  0.00    +0.000 OA
BRANCH   8  11
ATOM     11  N   UNL     1      50.326   7.539  13.600  0.00  0.00    +0.000 NA
ATOM     12  H   UNL     1      51.317   7.757  13.677  0.00  0.00    +0.000 HD
ATOM     13  H   UNL     1      49.778   8.109  12.959  0.00  0.00    +0.000 HD
ENDBRANCH   8  11
ENDBRANCH   6   8
ENDBRANCH   1   2
BRANCH   1  14
ATOM     14  O   UNL     1      44.827   5.085  11.427  0.00  0.00    +0.000 OA
BRANCH  14  18
ATOM     15  C   UNL     1      45.849   2.995   7.964  0.00  0.00    +0.000 A 
ATOM     16  C   UNL     1      45.227   2.364   9.049  0.00  0.00    +0.000 A 
ATOM     17  C   UNL     1      44.869   3.101  10.182  0.00  0.00    +0.000 A 
ATOM     18  C   UNL     1      45.133   4.471  10.242  0.00  0.00    +0.000 A 
ATOM     19  C   UNL     1      45.682   5.114   9.132  0.00  0.00    +0.000 A 
ATOM     20  C   UNL     1      46.047   4.379   8.005  0.00  0.00    +0.000 A 
BRANCH  15  21
ATOM     21  C   UNL     1      46.307   2.205   6.763  0.00  0.00    +0.000 C 
BRANCH  21  22
ATOM     22  C   UNL     1      47.717   1.640   6.943  0.00  0.00    +0.000 C 
BRANCH  22  23
ATOM     23  N   UNL     1      48.702   2.492   6.277  0.00  0.00    +0.000 NA
ATOM     24  H   UNL     1      48.362   3.452   6.262  0.00  0.00    +0.000 HD
ATOM     25  H   UNL     1      48.795   2.208   5.301  0.00  0.00    +0.000 HD
ENDBRANCH  22  23
ENDBRANCH  21  22
ENDBRANCH  15  21
ENDBRANCH  14  18
ENDBRANCH   1  14
TORSDOF 8
ENDMDL
MODEL 6
REMARK VINA RESULT:    -6.033      2.810      4.170
REMARK INTER + INTRA:          -9.376
REMARK INTER:                  -8.793
REMARK INTRA:                  -0.583
REMARK UNBOUND:                -0.875
REMARK  Name = 
REMARK  8 active torsions:
REMARK  status: ('A' for Active; 'I' for Inactive)
REMARK    1  A    between atoms: N_1  and  C_2
REMARK    2  A    between atoms: C_2  and  C_3
REMARK    3  A    between atoms: C_3  and  C_4
REMARK    4  A    between atoms: C_7  and  O_8
REMARK    5  A    between atoms: O_8  and  C_9
REMARK    6  A    between atoms: C_9  and  C_10
REMARK    7  A    between atoms: C_14  and  S_15
REMARK    8  A    between atoms: S_15  and  N_16
REMARK                            x       y       z     vdW  Elec       q    Type
REMARK                         _______ _______ _______ _____ _____    ______ ____
ROOT
ATOM      1  C   UNL     1      47.715   6.602  13.108  0.00  0.00    +0.000 C 
ENDROOT
BRANCH   1   2
ATOM      2  C   UNL     1      48.344   6.383  14.459  0.00  0.00    +0.000 A 
ATOM      3  C   UNL     1      49.502   7.079  14.834  0.00  0.00    +0.000 A 
ATOM      4  C   UNL     1      50.077   6.881  16.091  0.00  0.00    +0.000 A 
ATOM      5  C   UNL     1      49.491   5.997  16.998  0.00  0.00    +0.000 A 
ATOM      6  C   UNL     1      48.326   5.318  16.635  0.00  0.00    +0.000 A 
ATOM      7  C   UNL     1      47.763   5.488  15.367  0.00  0.00    +0.000 A 
BRANCH   6   8
ATOM      8  S   UNL     1      47.526   4.238  17.793  0.00  0.00    +0.000 S 
ATOM      9  O   UNL     1      46.656   3.351  17.059  0.00  0.00    +0.000 OA
ATOM     10  O   UNL     1      48.512   3.773  18.737  0.00  0.00    +0.000 OA
BRANCH   8  11
ATOM     11  N   UNL     1      46.545   5.339  18.597  0.00  0.00    +0.000 NA
ATOM     12  H   UNL     1      45.691   5.554  18.087  0.00  0.00    +0.000 HD
ATOM     13  H   UNL     1      47.052   6.126  18.997  0.00  0.00    +0.000 HD
ENDBRANCH   8  11
ENDBRANCH   6   8
ENDBRANCH   1   2
BRANCH   1  14
ATOM     14  O   UNL     1      46.310   6.352  13.206  0.00  0.00    +0.000 OA
BRANCH  14  18
ATOM     15  C   UNL     1      44.938   3.584  10.402  0.00  0.00    +0.000 A 
ATOM     16  C   UNL     1      45.091   3.250  11.754  0.00  0.00    +0.000 A 
ATOM     17  C   UNL     1      45.522   4.212  12.672  0.00  0.00    +0.000 A 
ATOM     18  C   UNL     1      45.809   5.510  12.249  0.00  0.00    +0.000 A 
ATOM     19  C   UNL     1      45.585   5.864  10.918  0.00  0.00    +0.000 A 
ATOM     20  C   UNL     1      45.162   4.904   9.999  0.00  0.00    +0.000 A 
BRANCH  15  21
ATOM     21  C   UNL     1      44.542   2.544   9.384  0.00  0.00    +0.000 C 
BRANCH  21  22
ATOM     22  C   UNL     1      45.640   2.299   8.347  0.00  0.00    +0.000 C 
BRANCH  22  23
ATOM     23  N   UNL     1      46.052   0.896   8.354  0.00  0.00    +0.000 NA
ATOM     24  H   UNL     1      45.346   0.340   8.834  0.00  0.00    +0.000 HD
ATOM     25  H   UNL     1      46.911   0.795   8.896  0.00  0.00    +0.000 HD
ENDBRANCH  22  23
ENDBRANCH  21  22
ENDBRANCH  15  21
ENDBRANCH  14  18
ENDBRANCH   1  14
TORSDOF 8
ENDMDL
MODEL 7
REMARK VINA RESULT:    -5.926      2.314      3.118
REMARK INTER + INTRA:          -9.226
REMARK INTER:                  -8.701
REMARK INTRA:                  -0.525
REMARK UNBOUND:                -0.875
REMARK  Name = 
REMARK  8 active torsions:
REMARK  status: ('A' for Active; 'I' for Inactive)
REMARK    1  A    between atoms: N_1  and  C_2
REMARK    2  A    between atoms: C_2  and  C_3
REMARK    3  A    between atoms: C_3  and  C_4
REMARK    4  A    between atoms: C_7  and  O_8
REMARK    5  A    between atoms: O_8  and  C_9
REMARK    6  A    between atoms: C_9  and  C_10
REMARK    7  A    between atoms: C_14  and  S_15
REMARK    8  A    between atoms: S_15  and  N_16
REMARK                            x       y       z     vdW  Elec       q    Type
REMARK                         _______ _______ _______ _____ _____    ______ ____
ROOT
ATOM      1  C   UNL     1      45.829   4.024  13.386  0.00  0.00    +0.000 C 
ENDROOT
BRANCH   1   2
ATOM      2  C   UNL     1      46.823   4.768  14.239  0.00  0.00    +0.000 A 
ATOM      3  C   UNL     1      47.460   5.921  13.759  0.00  0.00    +0.000 A 
ATOM      4  C   UNL     1      48.374   6.613  14.556  0.00  0.00    +0.000 A 
ATOM      5  C   UNL     1      48.649   6.172  15.851  0.00  0.00    +0.000 A 
ATOM      6  C   UNL     1      48.000   5.036  16.339  0.00  0.00    +0.000 A 
ATOM      7  C   UNL     1      47.109   4.320  15.536  0.00  0.00    +0.000 A 
BRANCH   6   8
ATOM      8  S   UNL     1      48.284   4.492  18.004  0.00  0.00    +0.000 S 
ATOM      9  O   UNL     1      49.558   3.817  18.049  0.00  0.00    +0.000 OA
ATOM     10  O   UNL     1      47.927   5.565  18.899  0.00  0.00    +0.000 OA
BRANCH   8  11
ATOM     11  N   UNL     1      47.094   3.314  18.137  0.00  0.00    +0.000 NA
ATOM     12  H   UNL     1      47.459   2.417  18.449  0.00  0.00    +0.000 HD
ATOM     13  H   UNL     1      46.441   3.299  17.358  0.00  0.00    +0.000 HD
ENDBRANCH   8  11
ENDBRANCH   6   8
ENDBRANCH   1   2
BRANCH   1  14
ATOM     14  O   UNL     1      45.173   4.954  12.522  0.00  0.00    +0.000 OA
BRANCH  14  18
ATOM     15  C   UNL     1      45.489   3.775   8.532  0.00  0.00    +0.000 A 
ATOM     16  C   UNL     1      44.959   2.926   9.512  0.00  0.00    +0.000 A 
ATOM     17  C   UNL     1      44.838   3.365  10.834  0.00  0.00    +0.000 A 
ATOM     18  C   UNL     1      45.248   4.651  11.189  0.00  0.00    +0.000 A 
ATOM     19  C   UNL     1      45.704   5.523  10.200  0.00  0.00    +0.000 A 
ATOM     20  C   UNL     1      45.833   5.084   8.882  0.00  0.00    +0.000 A 
BRANCH  15  21
ATOM     21  C   UNL     1      45.694   3.296   7.117  0.00  0.00    +0.000 C 
BRANCH  21  22
ATOM     22  C   UNL     1      47.164   3.013   6.806  0.00  0.00    +0.000 C 
BRANCH  22  23
ATOM     23  N   UNL     1      47.378   2.920   5.363  0.00  0.00    +0.000 NA
ATOM     24  H   UNL     1      46.476   2.862   4.892  0.00  0.00    +0.000 HD
ATOM     25  H   UNL     1      47.868   2.053   5.145  0.00  0.00    +0.000 HD
ENDBRANCH  22  23
ENDBRANCH  21  22
ENDBRANCH  15  21
ENDBRANCH  14  18
ENDBRANCH   1  14
TORSDOF 8
ENDMDL
MODEL 8
REMARK VINA RESULT:    -5.864      4.569      7.929
REMARK INTER + INTRA:          -9.139
REMARK INTER:                  -8.572
REMARK INTRA:                  -0.567
REMARK UNBOUND:                -0.875
REMARK  Name = 
REMARK  8 active torsions:
REMARK  status: ('A' for Active; 'I' for Inactive)
REMARK    1  A    between atoms: N_1  and  C_2
REMARK    2  A    between atoms: C_2  and  C_3
REMARK    3  A    between atoms: C_3  and  C_4
REMARK    4  A    between atoms: C_7  and  O_8
REMARK    5  A    between atoms: O_8  and  C_9
REMARK    6  A    between atoms: C_9  and  C_10
REMARK    7  A    between atoms: C_14  and  S_15
REMARK    8  A    between atoms: S_15  and  N_16
REMARK                            x       y       z     vdW  Elec       q    Type
REMARK                         _______ _______ _______ _____ _____    ______ ____
ROOT
ATOM      1  C   UNL     1      47.046   3.429  14.372  0.00  0.00    +0.000 C 
ENDROOT
BRANCH   1   2
ATOM      2  C   UNL     1      46.471   4.481  13.460  0.00  0.00    +0.000 A 
ATOM      3  C   UNL     1      47.161   5.678  13.219  0.00  0.00    +0.000 A 
ATOM      4  C   UNL     1      46.629   6.647  12.366  0.00  0.00    +0.000 A 
ATOM      5  C   UNL     1      45.409   6.424  11.727  0.00  0.00    +0.000 A 
ATOM      6  C   UNL     1      44.730   5.224  11.949  0.00  0.00    +0.000 A 
ATOM      7  C   UNL     1      45.241   4.264  12.827  0.00  0.00    +0.000 A 
BRANCH   6   8
ATOM      8  S   UNL     1      43.209   4.889  11.099  0.00  0.00    +0.000 S 
ATOM      9  O   UNL     1      42.172   5.698  11.691  0.00  0.00    +0.000 OA
ATOM     10  O   UNL     1      43.477   4.861   9.683  0.00  0.00    +0.000 OA
BRANCH   8  11
ATOM     11  N   UNL     1      42.940   3.305  11.588  0.00  0.00    +0.000 NA
ATOM     12  H   UNL     1      42.242   3.231  12.324  0.00  0.00    +0.000 HD
ATOM     13  H   UNL     1      43.791   2.760  11.705  0.00  0.00    +0.000 HD
ENDBRANCH   8  11
ENDBRANCH   6   8
ENDBRANCH   1   2
BRANCH   1  14
ATOM     14  O   UNL     1      46.932   3.877  15.725  0.00  0.00    +0.000 OA
BRANCH  14  18
ATOM     15  C   UNL     1      50.530   3.801  17.837  0.00  0.00    +0.000 A 
ATOM     16  C   UNL     1      49.848   4.998  17.586  0.00  0.00    +0.000 A 
ATOM     17  C   UNL     1      48.628   4.984  16.903  0.00  0.00    +0.000 A 
ATOM     18  C   UNL     1      48.083   3.777  16.462  0.00  0.00    +0.000 A 
ATOM     19  C   UNL     1      48.722   2.578  16.778  0.00  0.00    +0.000 A 
ATOM     20  C   UNL     1      49.943   2.591  17.452  0.00  0.00    +0.000 A 
BRANCH  15  21
ATOM     21  C   UNL     1      51.880   3.801  18.509  0.00  0.00    +0.000 C 
BRANCH  21  22
ATOM     22  C   UNL     1      52.802   2.711  17.961  0.00  0.00    +0.000 C 
BRANCH  22  23
ATOM     23  N   UNL     1      53.304   1.867  19.044  0.00  0.00    +0.000 NA
ATOM     24  H   UNL     1      52.599   1.172  19.284  0.00  0.00    +0.000 HD
ATOM     25  H   UNL     1      53.443   2.432  19.882  0.00  0.00    +0.000 HD
ENDBRANCH  22  23
ENDBRANCH  21  22
ENDBRANCH  15  21
ENDBRANCH  14  18
ENDBRANCH   1  14
TORSDOF 8
ENDMDL
MODEL 9
REMARK VINA RESULT:    -5.808      3.319      7.139
REMARK INTER + INTRA:          -9.060
REMARK INTER:                  -8.418
REMARK INTRA:                  -0.641
REMARK UNBOUND:                -0.875
REMARK  Name = 
REMARK  8 active torsions:
REMARK  status: ('A' for Active; 'I' for Inactive)
REMARK    1  A    between atoms: N_1  and  C_2
REMARK    2  A    between atoms: C_2  and  C_3
REMARK    3  A    between atoms: C_3  and  C_4
REMARK    4  A    between atoms: C_7  and  O_8
REMARK    5  A    between atoms: O_8  and  C_9
REMARK    6  A    between atoms: C_9  and  C_10
REMARK    7  A    between atoms: C_14  and  S_15
REMARK    8  A    between atoms: S_15  and  N_16
REMARK                            x       y       z     vdW  Elec       q    Type
REMARK                         _______ _______ _______ _____ _____    ______ ____
ROOT
ATOM      1  C   UNL     1      45.365   5.802   9.563  0.00  0.00    +0.000 C 
ENDROOT
BRANCH   1   2
ATOM      2  C   UNL     1      45.388   4.346   9.173  0.00  0.00    +0.000 A 
ATOM      3  C   UNL     1      44.621   3.403   9.871  0.00  0.00    +0.000 A 
ATOM      4  C   UNL     1      44.638   2.057   9.501  0.00  0.00    +0.000 A 
ATOM      5  C   UNL     1      45.408   1.638   8.415  0.00  0.00    +0.000 A 
ATOM      6  C   UNL     1      46.156   2.579   7.705  0.00  0.00    +0.000 A 
ATOM      7  C   UNL     1      46.170   3.923   8.090  0.00  0.00    +0.000 A 
BRANCH   6   8
ATOM      8  S   UNL     1      47.093   2.083   6.283  0.00  0.00    +0.000 S 
ATOM      9  O   UNL     1      47.191   0.645   6.283  0.00  0.00    +0.000 OA
ATOM     10  O   UNL     1      46.631   2.844   5.148  0.00  0.00    +0.000 OA
BRANCH   8  11
ATOM     11  N   UNL     1      48.606   2.682   6.701  0.00  0.00    +0.000 NA
ATOM     12  H   UNL     1      49.344   1.985   6.619  0.00  0.00    +0.000 HD
ATOM     13  H   UNL     1      48.605   3.252   7.543  0.00  0.00    +0.000 HD
ENDBRANCH   8  11
ENDBRANCH   6   8
ENDBRANCH   1   2
BRANCH   1  14
ATOM     14  O   UNL     1      44.893   5.913  10.907  0.00  0.00    +0.000 OA
BRANCH  14  18
ATOM     15  C   UNL     1      47.694   6.233  13.983  0.00  0.00    +0.000 A 
ATOM     16  C   UNL     1      46.680   5.266  14.006  0.00  0.00    +0.000 A 
ATOM     17  C   UNL     1      45.778   5.166  12.944  0.00  0.00    +0.000 A 
ATOM     18  C   UNL     1      45.876   6.031  11.853  0.00  0.00    +0.000 A 
ATOM     19  C   UNL     1      46.931   6.943  11.793  0.00  0.00    +0.000 A 
ATOM     20  C   UNL     1      47.828   7.050  12.856  0.00  0.00    +0.000 A 
BRANCH  15  21
ATOM     21  C   UNL     1      48.633   6.404  15.151  0.00  0.00    +0.000 C 
BRANCH  21  22
ATOM     22  C   UNL     1      49.730   7.431  14.868  0.00  0.00    +0.000 C 
BRANCH  22  23
ATOM     23  N   UNL     1      51.042   6.898  15.235  0.00  0.00    +0.000 NA
ATOM     24  H   UNL     1      51.581   7.625  15.703  0.00  0.00    +0.000 HD
ATOM     25  H   UNL     1      51.561   6.658  14.391  0.00  0.00    +0.000 HD
ENDBRANCH  22  23
ENDBRANCH  21  22
ENDBRANCH  15  21
ENDBRANCH  14  18
ENDBRANCH   1  14
TORSDOF 8
ENDMDL
