MODEL 1
REMARK VINA RESULT:    -8.652      0.000      0.000
REMARK INTER + INTRA:         -12.148
REMARK INTER:                 -11.181
REMARK INTRA:                  -0.967
REMARK UNBOUND:                -0.967
REMARK  Name = 
REMARK  5 active torsions:
REMARK  status: ('A' for Active; 'I' for Inactive)
REMARK    1  A    between atoms: C_2  and  C_4
REMARK    2  A    between atoms: C_7  and  N_8
REMARK    3  A    between atoms: N_8  and  C_9
REMARK    4  A    between atoms: C_9  and  C_10
REMARK    5  A    between atoms: C_14  and  C_15
REMARK                            x       y       z     vdW  Elec       q    Type
REMARK                         _______ _______ _______ _____ _____    ______ ____
ROOT
ATOM      1  N   UNL     1      43.796   4.981   9.741  0.00  0.00    +0.000 N 
ATOM      2  H   UNL     1      42.973   5.153   9.168  0.00  0.00    +0.000 HD
ENDROOT
BRANCH   1   6
ATOM      3  C   UNL     1      46.269   2.058   7.970  0.00  0.00    +0.000 A 
ATOM      4  C   UNL     1      46.462   3.404   7.655  0.00  0.00    +0.000 A 
ATOM      5  C   UNL     1      45.658   4.382   8.248  0.00  0.00    +0.000 A 
ATOM      6  C   UNL     1      44.670   4.049   9.184  0.00  0.00    +0.000 A 
ATOM      7  C   UNL     1      44.475   2.690   9.470  0.00  0.00    +0.000 A 
ATOM      8  C   UNL     1      45.260   1.699   8.864  0.00  0.00    +0.000 A 
BRANCH   3  10
ATOM      9  N   UNL     1      46.774  -0.301   7.638  0.00  0.00    +0.000 N 
ATOM     10  C   UNL     1      47.092   0.994   7.337  0.00  0.00    +0.000 C 
ATOM     11  O   UNL     1      47.995   1.261   6.555  0.00  0.00    +0.000 OA
ATOM     12  H   UNL     1      47.276  -1.015   7.123  0.00  0.00    +0.000 HD
ATOM     13  H   UNL     1      45.905  -0.557   8.077  0.00  0.00    +0.000 HD
ENDBRANCH   3  10
ENDBRANCH   1   6
BRANCH   1  14
ATOM     14  C   UNL     1      43.526   4.966  11.172  0.00  0.00    +0.000 C 
BRANCH  14  15
ATOM     15  C   UNL     1      44.799   5.169  11.954  0.00  0.00    +0.000 A 
ATOM     16  C   UNL     1      45.216   4.230  12.902  0.00  0.00    +0.000 A 
ATOM     17  C   UNL     1      46.421   4.405  13.583  0.00  0.00    +0.000 A 
ATOM     18  C   UNL     1      47.243   5.497  13.296  0.00  0.00    +0.000 A 
ATOM     19  C   UNL     1      46.868   6.425  12.319  0.00  0.00    +0.000 A 
ATOM     20  C   UNL     1      45.626   6.265  11.680  0.00  0.00    +0.000 A 
BRANCH  19  21
ATOM     21  C   UNL     1      47.790   7.513  11.806  0.00  0.00    +0.000 C 
ATOM     22  C   UNL     1      49.234   7.181  12.215  0.00  0.00    +0.000 C 
ATOM     23  C   UNL     1      50.188   8.205  11.623  0.00  0.00    +0.000 C 
ATOM     24  O   UNL     1      49.831   9.524  12.035  0.00  0.00    +0.000 OA
ATOM     25  C   UNL     1      48.515   9.891  11.621  0.00  0.00    +0.000 C 
ATOM     26  C   UNL     1      47.474   8.953  12.230  0.00  0.00    +0.000 C 
ENDBRANCH  19  21
ENDBRANCH  14  15
ENDBRANCH   1  14
TORSDOF 5
ENDMDL
MODEL 2
REMARK VINA RESULT:    -8.644      1.070      1.810
REMARK INTER + INTRA:         -12.138
REMARK INTER:                 -11.053
REMARK INTRA:                  -1.085
REMARK UNBOUND:                -0.967
REMARK  Name = 
REMARK  5 active torsions:
REMARK  status: ('A' for Active; 'I' for Inactive)
REMARK    1  A    between atoms: C_2  and  C_4
REMARK    2  A    between atoms: C_7  and  N_8
REMARK    3  A    between atoms: N_8  and  C_9
REMARK    4  A    between atoms: C_9  and  C_10
REMARK    5  A    between atoms: C_14  and  C_15
REMARK                            x       y       z     vdW  Elec       q    Type
REMARK                         _______ _______ _______ _____ _____    ______ ____
ROOT
ATOM      1  N   UNL     1      43.773   4.831   9.969  0.00  0.00    +0.000 N 
ATOM      2  H   UNL     1      42.954   5.157   9.461  0.00  0.00    +0.000 HD
ENDROOT
BRANCH   1   6
ATOM      3  C   UNL     1      46.362   2.298   7.805  0.00  0.00    +0.000 A 
ATOM      4  C   UNL     1      45.444   1.742   8.697  0.00  0.00    +0.000 A 
ATOM      5  C   UNL     1      44.570   2.571   9.407  0.00  0.00    +0.000 A 
ATOM      6  C   UNL     1      44.570   3.960   9.227  0.00  0.00    +0.000 A 
ATOM      7  C   UNL     1      45.516   4.503   8.345  0.00  0.00    +0.000 A 
ATOM      8  C   UNL     1      46.411   3.684   7.644  0.00  0.00    +0.000 A 
BRANCH   3  10
ATOM      9  N   UNL     1      48.427   2.056   6.537  0.00  0.00    +0.000 N 
ATOM     10  C   UNL     1      47.319   1.445   7.054  0.00  0.00    +0.000 C 
ATOM     11  O   UNL     1      47.143   0.240   6.930  0.00  0.00    +0.000 OA
ATOM     12  H   UNL     1      49.118   1.446   6.116  0.00  0.00    +0.000 HD
ATOM     13  H   UNL     1      48.718   2.978   6.820  0.00  0.00    +0.000 HD
ENDBRANCH   3  10
ENDBRANCH   1   6
BRANCH   1  14
ATOM     14  C   UNL     1      43.528   4.574  11.381  0.00  0.00    +0.000 C 
BRANCH  14  15
ATOM     15  C   UNL     1      44.768   4.853  12.193  0.00  0.00    +0.000 A 
ATOM     16  C   UNL     1      45.454   3.817  12.833  0.00  0.00    +0.000 A 
ATOM     17  C   UNL     1      46.627   4.082  13.540  0.00  0.00    +0.000 A 
ATOM     18  C   UNL     1      47.150   5.376  13.583  0.00  0.00    +0.000 A 
ATOM     19  C   UNL     1      46.505   6.421  12.913  0.00  0.00    +0.000 A 
ATOM     20  C   UNL     1      45.295   6.149  12.250  0.00  0.00    +0.000 A 
BRANCH  19  21
ATOM     21  C   UNL     1      47.110   7.799  12.739  0.00  0.00    +0.000 C 
ATOM     22  C   UNL     1      46.044   8.745  12.163  0.00  0.00    +0.000 C 
ATOM     23  C   UNL     1      46.599  10.157  12.077  0.00  0.00    +0.000 C 
ATOM     24  O   UNL     1      47.788  10.185  11.287  0.00  0.00    +0.000 OA
ATOM     25  C   UNL     1      48.823   9.361  11.824  0.00  0.00    +0.000 C 
ATOM     26  C   UNL     1      48.379   7.901  11.883  0.00  0.00    +0.000 C 
ENDBRANCH  19  21
ENDBRANCH  14  15
ENDBRANCH   1  14
TORSDOF 5
ENDMDL
MODEL 3
REMARK VINA RESULT:    -8.569      2.229      3.608
REMARK INTER + INTRA:         -12.040
REMARK INTER:                 -11.166
REMARK INTRA:                  -0.875
REMARK UNBOUND:                -0.967
REMARK  Name = 
REMARK  5 active torsions:
REMARK  status: ('A' for Active; 'I' for Inactive)
REMARK    1  A    between atoms: C_2  and  C_4
REMARK    2  A    between atoms: C_7  and  N_8
REMARK    3  A    between atoms: N_8  and  C_9
REMARK    4  A    between atoms: C_9  and  C_10
REMARK    5  A    between atoms: C_14  and  C_15
REMARK                            x       y       z     vdW  Elec       q    Type
REMARK                         _______ _______ _______ _____ _____    ______ ____
ROOT
ATOM      1  N   UNL     1      43.766   4.885   9.912  0.00  0.00    +0.000 N 
ATOM      2  H   UNL     1      42.845   5.014   9.501  0.00  0.00    +0.000 HD
ENDROOT
BRANCH   1   6
ATOM      3  C   UNL     1      46.364   2.289   7.835  0.00  0.00    +0.000 A 
ATOM      4  C   UNL     1      45.447   1.761   8.746  0.00  0.00    +0.000 A 
ATOM      5  C   UNL     1      44.571   2.611   9.428  0.00  0.00    +0.000 A 
ATOM      6  C   UNL     1      44.566   3.993   9.200  0.00  0.00    +0.000 A 
ATOM      7  C   UNL     1      45.510   4.508   8.299  0.00  0.00    +0.000 A 
ATOM      8  C   UNL     1      46.407   3.668   7.626  0.00  0.00    +0.000 A 
BRANCH   3  10
ATOM      9  N   UNL     1      48.393   2.020   6.516  0.00  0.00    +0.000 N 
ATOM     10  C   UNL     1      47.323   1.414   7.113  0.00  0.00    +0.000 C 
ATOM     11  O   UNL     1      47.182   0.198   7.080  0.00  0.00    +0.000 OA
ATOM     12  H   UNL     1      49.089   1.403   6.116  0.00  0.00    +0.000 HD
ATOM     13  H   UNL     1      48.662   2.968   6.724  0.00  0.00    +0.000 HD
ENDBRANCH   3  10
ENDBRANCH   1   6
BRANCH   1  14
ATOM     14  C   UNL     1      43.766   4.866  11.368  0.00  0.00    +0.000 C 
BRANCH  14  15
ATOM     15  C   UNL     1      45.074   5.391  11.905  0.00  0.00    +0.000 A 
ATOM     16  C   UNL     1      45.708   6.483  11.306  0.00  0.00    +0.000 A 
ATOM     17  C   UNL     1      46.892   6.990  11.843  0.00  0.00    +0.000 A 
ATOM     18  C   UNL     1      47.434   6.440  13.005  0.00  0.00    +0.000 A 
ATOM     19  C   UNL     1      46.793   5.375  13.648  0.00  0.00    +0.000 A 
ATOM     20  C   UNL     1      45.631   4.840  13.065  0.00  0.00    +0.000 A 
BRANCH  19  21
ATOM     21  C   UNL     1      47.199   4.859  15.014  0.00  0.00    +0.000 C 
ATOM     22  C   UNL     1      48.363   5.711  15.545  0.00  0.00    +0.000 C 
ATOM     23  C   UNL     1      48.719   5.277  16.957  0.00  0.00    +0.000 C 
ATOM     24  O   UNL     1      49.044   3.887  16.992  0.00  0.00    +0.000 OA
ATOM     25  C   UNL     1      47.964   3.060  16.560  0.00  0.00    +0.000 C 
ATOM     26  C   UNL     1      47.581   3.378  15.116  0.00  0.00    +0.000 C 
ENDBRANCH  19  21
ENDBRANCH  14  15
ENDBRANCH   1  14
TORSDOF 5
ENDMDL
MODEL 4
REMARK VINA RESULT:    -7.213      2.278      6.582
REMARK INTER + INTRA:         -10.288
REMARK INTER:                  -9.326
REMARK INTRA:                  -0.962
REMARK UNBOUND:                -0.967
REMARK  Name = 
REMARK  5 active torsions:
REMARK  status: ('A' for Active; 'I' for Inactive)
REMARK    1  A    between atoms: C_2  and  C_4
REMARK    2  A    between atoms: C_7  and  N_8
REMARK    3  A    between atoms: N_8  and  C_9
REMARK    4  A    between atoms: C_9  and  C_10
REMARK    5  A    between atoms: C_14  and  C_15
REMARK                            x       y       z     vdW  Elec       q    Type
REMARK                         _______ _______ _______ _____ _____    ______ ____
ROOT
ATOM      1  N   UNL     1      44.251   6.734  12.518  0.00  0.00    +0.000 N 
ATOM      2  H   UNL     1      43.656   7.327  13.091  0.00  0.00    +0.000 HD
ENDROOT
BRANCH   1   6
ATOM      3  C   UNL     1      48.390   7.541  12.674  0.00  0.00    +0.000 A 
ATOM      4  C   UNL     1      47.522   8.498  12.144  0.00  0.00    +0.000 A 
ATOM      5  C   UNL     1      46.147   8.247  12.102  0.00  0.00    +0.000 A 
ATOM      6  C   UNL     1      45.604   7.060  12.609  0.00  0.00    +0.000 A 
ATOM      7  C   UNL     1      46.493   6.101  13.117  0.00  0.00    +0.000 A 
ATOM      8  C   UNL     1      47.875   6.332  13.143  0.00  0.00    +0.000 A 
BRANCH   3  10
ATOM      9  N   UNL     1      50.499   7.521  13.891  0.00  0.00    +0.000 N 
ATOM     10  C   UNL     1      49.858   7.769  12.710  0.00  0.00    +0.000 C 
ATOM     11  O   UNL     1      50.474   8.133  11.717  0.00  0.00    +0.000 OA
ATOM     12  H   UNL     1      51.510   7.584  13.872  0.00  0.00    +0.000 HD
ATOM     13  H   UNL     1      50.070   7.002  14.640  0.00  0.00    +0.000 HD
ENDBRANCH   3  10
ENDBRANCH   1   6
BRANCH   1  14
ATOM     14  C   UNL     1      43.670   6.381  11.231  0.00  0.00    +0.000 C 
BRANCH  14  15
ATOM     15  C   UNL     1      43.880   4.917  10.938  0.00  0.00    +0.000 A 
ATOM     16  C   UNL     1      43.255   3.934  11.711  0.00  0.00    +0.000 A 
ATOM     17  C   UNL     1      43.419   2.584  11.399  0.00  0.00    +0.000 A 
ATOM     18  C   UNL     1      44.174   2.202  10.289  0.00  0.00    +0.000 A 
ATOM     19  C   UNL     1      44.771   3.169   9.474  0.00  0.00    +0.000 A 
ATOM     20  C   UNL     1      44.643   4.522   9.833  0.00  0.00    +0.000 A 
BRANCH  19  21
ATOM     21  C   UNL     1      45.428   2.850   8.147  0.00  0.00    +0.000 C 
ATOM     22  C   UNL     1      46.256   1.563   8.293  0.00  0.00    +0.000 C 
ATOM     23  C   UNL     1      46.840   1.168   6.947  0.00  0.00    +0.000 C 
ATOM     24  O   UNL     1      47.633   2.227   6.410  0.00  0.00    +0.000 OA
ATOM     25  C   UNL     1      46.882   3.424   6.205  0.00  0.00    +0.000 C 
ATOM     26  C   UNL     1      46.311   3.939   7.524  0.00  0.00    +0.000 C 
ENDBRANCH  19  21
ENDBRANCH  14  15
ENDBRANCH   1  14
TORSDOF 5
ENDMDL
MODEL 5
REMARK VINA RESULT:    -6.766      3.246      7.250
REMARK INTER + INTRA:          -9.711
REMARK INTER:                  -8.875
REMARK INTRA:                  -0.836
REMARK UNBOUND:                -0.967
REMARK  Name = 
REMARK  5 active torsions:
REMARK  status: ('A' for Active; 'I' for Inactive)
REMARK    1  A    between atoms: C_2  and  C_4
REMARK    2  A    between atoms: C_7  and  N_8
REMARK    3  A    between atoms: N_8  and  C_9
REMARK    4  A    between atoms: C_9  and  C_10
REMARK    5  A    between atoms: C_14  and  C_15
REMARK                            x       y       z     vdW  Elec       q    Type
REMARK                         _______ _______ _______ _____ _____    ______ ____
ROOT
ATOM      1  N   UNL     1      47.598   6.410  12.581  0.00  0.00    +0.000 N 
ATOM      2  H   UNL     1      47.915   5.825  11.812  0.00  0.00    +0.000 HD
ENDROOT
BRANCH   1   6
ATOM      3  C   UNL     1      47.845   4.717  16.438  0.00  0.00    +0.000 A 
ATOM      4  C   UNL     1      47.137   4.048  15.438  0.00  0.00    +0.000 A 
ATOM      5  C   UNL     1      47.062   4.592  14.152  0.00  0.00    +0.000 A 
ATOM      6  C   UNL     1      47.709   5.791  13.826  0.00  0.00    +0.000 A 
ATOM      7  C   UNL     1      48.395   6.461  14.849  0.00  0.00    +0.000 A 
ATOM      8  C   UNL     1      48.459   5.936  16.147  0.00  0.00    +0.000 A 
BRANCH   3  10
ATOM      9  N   UNL     1      47.194   3.050  18.090  0.00  0.00    +0.000 N 
ATOM     10  C   UNL     1      47.922   4.175  17.820  0.00  0.00    +0.000 C 
ATOM     11  O   UNL     1      48.630   4.693  18.673  0.00  0.00    +0.000 OA
ATOM     12  H   UNL     1      47.335   2.636  19.003  0.00  0.00    +0.000 HD
ATOM     13  H   UNL     1      46.801   2.473  17.363  0.00  0.00    +0.000 HD
ENDBRANCH   3  10
ENDBRANCH   1   6
BRANCH   1  14
ATOM     14  C   UNL     1      46.424   7.213  12.266  0.00  0.00    +0.000 C 
BRANCH  14  15
ATOM     15  C   UNL     1      45.335   6.352  11.677  0.00  0.00    +0.000 A 
ATOM     16  C   UNL     1      43.994   6.564  12.009  0.00  0.00    +0.000 A 
ATOM     17  C   UNL     1      42.993   5.793  11.419  0.00  0.00    +0.000 A 
ATOM     18  C   UNL     1      43.314   4.830  10.461  0.00  0.00    +0.000 A 
ATOM     19  C   UNL     1      44.645   4.631  10.079  0.00  0.00    +0.000 A 
ATOM     20  C   UNL     1      45.648   5.377  10.722  0.00  0.00    +0.000 A 
BRANCH  19  21
ATOM     21  C   UNL     1      45.055   3.759   8.909  0.00  0.00    +0.000 C 
ATOM     22  C   UNL     1      45.470   2.376   9.436  0.00  0.00    +0.000 C 
ATOM     23  C   UNL     1      45.787   1.453   8.271  0.00  0.00    +0.000 C 
ATOM     24  O   UNL     1      46.807   2.014   7.445  0.00  0.00    +0.000 OA
ATOM     25  C   UNL     1      46.433   3.274   6.889  0.00  0.00    +0.000 C 
ATOM     26  C   UNL     1      46.162   4.295   7.993  0.00  0.00    +0.000 C 
ENDBRANCH  19  21
ENDBRANCH  14  15
ENDBRANCH   1  14
TORSDOF 5
ENDMDL
MODEL 6
REMARK VINA RESULT:    -6.640      4.193      8.015
REMARK INTER + INTRA:          -9.549
REMARK INTER:                  -8.990
REMARK INTRA:                  -0.559
REMARK UNBOUND:                -0.967
REMARK  Name = 
REMARK  5 active torsions:
REMARK  status: ('A' for Active; 'I' for Inactive)
REMARK    1  A    between atoms: C_2  and  C_4
REMARK    2  A    between atoms: C_7  and  N_8
REMARK    3  A    between atoms: N_8  and  C_9
REMARK    4  A    between atoms: C_9  and  C_10
REMARK    5  A    between atoms: C_14  and  C_15
REMARK                            x       y       z     vdW  Elec       q    Type
REMARK                         _______ _______ _______ _____ _____    ______ ____
ROOT
ATOM      1  N   UNL     1      46.599   4.204  14.532  0.00  0.00    +0.000 N 
ATOM      2  H   UNL     1      45.804   3.571  14.557  0.00  0.00    +0.000 HD
ENDROOT
BRANCH   1   6
ATOM      3  C   UNL     1      48.633   4.416  18.222  0.00  0.00    +0.000 A 
ATOM      4  C   UNL     1      48.768   5.457  17.302  0.00  0.00    +0.000 A 
ATOM      5  C   UNL     1      48.085   5.405  16.083  0.00  0.00    +0.000 A 
ATOM      6  C   UNL     1      47.237   4.336  15.764  0.00  0.00    +0.000 A 
ATOM      7  C   UNL     1      47.133   3.288  16.690  0.00  0.00    +0.000 A 
ATOM      8  C   UNL     1      47.829   3.320  17.906  0.00  0.00    +0.000 A 
BRANCH   3  10
ATOM      9  N   UNL     1      48.664   4.072  20.632  0.00  0.00    +0.000 N 
ATOM     10  C   UNL     1      49.365   4.432  19.516  0.00  0.00    +0.000 C 
ATOM     11  O   UNL     1      50.551   4.725  19.577  0.00  0.00    +0.000 OA
ATOM     12  H   UNL     1      49.200   3.990  21.488  0.00  0.00    +0.000 HD
ATOM     13  H   UNL     1      47.773   3.604  20.584  0.00  0.00    +0.000 HD
ENDBRANCH   3  10
ENDBRANCH   1   6
BRANCH   1  14
ATOM     14  C   UNL     1      46.399   5.371  13.683  0.00  0.00    +0.000 C 
BRANCH  14  15
ATOM     15  C   UNL     1      45.275   5.130  12.707  0.00  0.00    +0.000 A 
ATOM     16  C   UNL     1      44.015   5.700  12.909  0.00  0.00    +0.000 A 
ATOM     17  C   UNL     1      42.999   5.509  11.973  0.00  0.00    +0.000 A 
ATOM     18  C   UNL     1      43.240   4.783  10.805  0.00  0.00    +0.000 A 
ATOM     19  C   UNL     1      44.506   4.241  10.560  0.00  0.00    +0.000 A 
ATOM     20  C   UNL     1      45.504   4.394  11.538  0.00  0.00    +0.000 A 
BRANCH  19  21
ATOM     21  C   UNL     1      44.905   3.621   9.236  0.00  0.00    +0.000 C 
ATOM     22  C   UNL     1      45.463   2.212   9.490  0.00  0.00    +0.000 C 
ATOM     23  C   UNL     1      45.774   1.532   8.167  0.00  0.00    +0.000 C 
ATOM     24  O   UNL     1      46.689   2.314   7.400  0.00  0.00    +0.000 OA
ATOM     25  C   UNL     1      46.179   3.612   7.094  0.00  0.00    +0.000 C 
ATOM     26  C   UNL     1      45.902   4.402   8.372  0.00  0.00    +0.000 C 
ENDBRANCH  19  21
ENDBRANCH  14  15
ENDBRANCH   1  14
TORSDOF 5
ENDMDL
MODEL 7
REMARK VINA RESULT:    -6.526      5.430      8.194
REMARK INTER + INTRA:          -9.401
REMARK INTER:                  -8.662
REMARK INTRA:                  -0.739
REMARK UNBOUND:                -0.967
REMARK  Name = 
REMARK  5 active torsions:
REMARK  status: ('A' for Active; 'I' for Inactive)
REMARK    1  A    between atoms: C_2  and  C_4
REMARK    2  A    between atoms: C_7  and  N_8
REMARK    3  A    between atoms: N_8  and  C_9
REMARK    4  A    between atoms: C_9  and  C_10
REMARK    5  A    between atoms: C_14  and  C_15
REMARK                            x       y       z     vdW  Elec       q    Type
REMARK                         _______ _______ _______ _____ _____    ______ ____
ROOT
ATOM      1  N   UNL     1      48.467   4.628  16.942  0.00  0.00    +0.000 N 
ATOM      2  H   UNL     1      48.729   5.582  16.705  0.00  0.00    +0.000 HD
ENDROOT
BRANCH   1   6
ATOM      3  C   UNL     1      51.776   2.106  17.640  0.00  0.00    +0.000 A 
ATOM      4  C   UNL     1      51.877   3.467  17.930  0.00  0.00    +0.000 A 
ATOM      5  C   UNL     1      50.781   4.309  17.717  0.00  0.00    +0.000 A 
ATOM      6  C   UNL     1      49.559   3.815  17.242  0.00  0.00    +0.000 A 
ATOM      7  C   UNL     1      49.484   2.449  16.934  0.00  0.00    +0.000 A 
ATOM      8  C   UNL     1      50.583   1.600  17.122  0.00  0.00    +0.000 A 
BRANCH   3  10
ATOM      9  N   UNL     1      52.655  -0.083  18.245  0.00  0.00    +0.000 N 
ATOM     10  C   UNL     1      52.931   1.190  17.833  0.00  0.00    +0.000 C 
ATOM     11  O   UNL     1      54.078   1.549  17.603  0.00  0.00    +0.000 OA
ATOM     12  H   UNL     1      53.440  -0.723  18.275  0.00  0.00    +0.000 HD
ATOM     13  H   UNL     1      51.727  -0.474  18.211  0.00  0.00    +0.000 HD
ENDBRANCH   3  10
ENDBRANCH   1   6
BRANCH   1  14
ATOM     14  C   UNL     1      47.362   4.105  16.151  0.00  0.00    +0.000 C 
BRANCH  14  15
ATOM     15  C   UNL     1      47.164   4.931  14.905  0.00  0.00    +0.000 A 
ATOM     16  C   UNL     1      48.065   5.944  14.565  0.00  0.00    +0.000 A 
ATOM     17  C   UNL     1      47.898   6.668  13.384  0.00  0.00    +0.000 A 
ATOM     18  C   UNL     1      46.853   6.362  12.510  0.00  0.00    +0.000 A 
ATOM     19  C   UNL     1      45.964   5.324  12.807  0.00  0.00    +0.000 A 
ATOM     20  C   UNL     1      46.113   4.640  14.027  0.00  0.00    +0.000 A 
BRANCH  19  21
ATOM     21  C   UNL     1      44.938   4.798  11.824  0.00  0.00    +0.000 C 
ATOM     22  C   UNL     1      44.536   3.372  12.234  0.00  0.00    +0.000 C 
ATOM     23  C   UNL     1      43.432   2.864  11.321  0.00  0.00    +0.000 C 
ATOM     24  O   UNL     1      43.846   2.906   9.956  0.00  0.00    +0.000 OA
ATOM     25  C   UNL     1      44.171   4.227   9.522  0.00  0.00    +0.000 C 
ATOM     26  C   UNL     1      45.328   4.797  10.341  0.00  0.00    +0.000 C 
ENDBRANCH  19  21
ENDBRANCH  14  15
ENDBRANCH   1  14
TORSDOF 5
ENDMDL
MODEL 8
REMARK VINA RESULT:    -6.400      2.458      6.878
REMARK INTER + INTRA:          -9.237
REMARK INTER:                  -8.200
REMARK INTRA:                  -1.037
REMARK UNBOUND:                -0.967
REMARK  Name = 
REMARK  5 active torsions:
REMARK  status: ('A' for Active; 'I' for Inactive)
REMARK    1  A    between atoms: C_2  and  C_4
REMARK    2  A    between atoms: C_7  and  N_8
REMARK    3  A    between atoms: N_8  and  C_9
REMARK    4  A    between atoms: C_9  and  C_10
REMARK    5  A    between atoms: C_14  and  C_15
REMARK                            x       y       z     vdW  Elec       q    Type
REMARK                         _______ _______ _______ _____ _____    ______ ____
ROOT
ATOM      1  N   UNL     1      46.656   5.916  14.268  0.00  0.00    +0.000 N 
ATOM      2  H   UNL     1      45.901   6.337  14.802  0.00  0.00    +0.000 HD
ENDROOT
BRANCH   1   6
ATOM      3  C   UNL     1      48.691   8.811  11.971  0.00  0.00    +0.000 A 
ATOM      4  C   UNL     1      49.269   7.555  12.161  0.00  0.00    +0.000 A 
ATOM      5  C   UNL     1      48.595   6.583  12.907  0.00  0.00    +0.000 A 
ATOM      6  C   UNL     1      47.329   6.826  13.453  0.00  0.00    +0.000 A 
ATOM      7  C   UNL     1      46.775   8.102  13.272  0.00  0.00    +0.000 A 
ATOM      8  C   UNL     1      47.450   9.091  12.545  0.00  0.00    +0.000 A 
BRANCH   3  10
ATOM      9  N   UNL     1      50.748   9.752  11.067  0.00  0.00    +0.000 N 
ATOM     10  C   UNL     1      49.393   9.873  11.203  0.00  0.00    +0.000 C 
ATOM     11  O   UNL     1      48.783  10.799  10.686  0.00  0.00    +0.000 OA
ATOM     12  H   UNL     1      51.197  10.425  10.458  0.00  0.00    +0.000 HD
ATOM     13  H   UNL     1      51.237   8.894  11.269  0.00  0.00    +0.000 HD
ENDBRANCH   3  10
ENDBRANCH   1   6
BRANCH   1  14
ATOM     14  C   UNL     1      46.358   4.577  13.777  0.00  0.00    +0.000 C 
BRANCH  14  15
ATOM     15  C   UNL     1      45.300   4.629  12.705  0.00  0.00    +0.000 A 
ATOM     16  C   UNL     1      44.139   5.388  12.879  0.00  0.00    +0.000 A 
ATOM     17  C   UNL     1      43.190   5.467  11.859  0.00  0.00    +0.000 A 
ATOM     18  C   UNL     1      43.408   4.823  10.639  0.00  0.00    +0.000 A 
ATOM     19  C   UNL     1      44.583   4.095  10.425  0.00  0.00    +0.000 A 
ATOM     20  C   UNL     1      45.504   3.979  11.481  0.00  0.00    +0.000 A 
BRANCH  19  21
ATOM     21  C   UNL     1      44.988   3.544   9.073  0.00  0.00    +0.000 C 
ATOM     22  C   UNL     1      45.591   2.143   9.263  0.00  0.00    +0.000 C 
ATOM     23  C   UNL     1      45.909   1.529   7.909  0.00  0.00    +0.000 C 
ATOM     24  O   UNL     1      46.793   2.370   7.169  0.00  0.00    +0.000 OA
ATOM     25  C   UNL     1      46.242   3.664   6.922  0.00  0.00    +0.000 C 
ATOM     26  C   UNL     1      45.954   4.390   8.234  0.00  0.00    +0.000 C 
ENDBRANCH  19  21
ENDBRANCH  14  15
ENDBRANCH   1  14
TORSDOF 5
ENDMDL
MODEL 9
REMARK VINA RESULT:    -6.082      3.720      5.574
REMARK INTER + INTRA:          -8.827
REMARK INTER:                  -7.970
REMARK INTRA:                  -0.857
REMARK UNBOUND:                -0.967
REMARK  Name = 
REMARK  5 active torsions:
REMARK  status: ('A' for Active; 'I' for Inactive)
REMARK    1  A    between atoms: C_2  and  C_4
REMARK    2  A    between atoms: C_7  and  N_8
REMARK    3  A    between atoms: N_8  and  C_9
REMARK    4  A    between atoms: C_9  and  C_10
REMARK    5  A    between atoms: C_14  and  C_15
REMARK                            x       y       z     vdW  Elec       q    Type
REMARK                         _______ _______ _______ _____ _____    ______ ____
ROOT
ATOM      1  N   UNL     1      46.979   7.458  12.612  0.00  0.00    +0.000 N 
ATOM      2  H   UNL     1      46.744   7.680  13.576  0.00  0.00    +0.000 HD
ENDROOT
BRANCH   1   6
ATOM      3  C   UNL     1      44.800   4.101  11.277  0.00  0.00    +0.000 A 
ATOM      4  C   UNL     1      45.226   5.055  10.352  0.00  0.00    +0.000 A 
ATOM      5  C   UNL     1      45.963   6.164  10.782  0.00  0.00    +0.000 A 
ATOM      6  C   UNL     1      46.315   6.332  12.127  0.00  0.00    +0.000 A 
ATOM      7  C   UNL     1      45.857   5.375  13.045  0.00  0.00    +0.000 A 
ATOM      8  C   UNL     1      45.100   4.272  12.629  0.00  0.00    +0.000 A 
BRANCH   3  10
ATOM      9  N   UNL     1      44.500   2.156   9.843  0.00  0.00    +0.000 N 
ATOM     10  C   UNL     1      43.995   2.925  10.854  0.00  0.00    +0.000 C 
ATOM     11  O   UNL     1      42.942   2.637  11.406  0.00  0.00    +0.000 OA
ATOM     12  H   UNL     1      43.993   1.304   9.635  0.00  0.00    +0.000 HD
ATOM     13  H   UNL     1      45.458   2.223   9.538  0.00  0.00    +0.000 HD
ENDBRANCH   3  10
ENDBRANCH   1   6
BRANCH   1  14
ATOM     14  C   UNL     1      48.380   7.680  12.280  0.00  0.00    +0.000 C 
BRANCH  14  15
ATOM     15  C   UNL     1      49.249   7.494  13.498  0.00  0.00    +0.000 A 
ATOM     16  C   UNL     1      50.466   8.170  13.620  0.00  0.00    +0.000 A 
ATOM     17  C   UNL     1      51.237   8.028  14.773  0.00  0.00    +0.000 A 
ATOM     18  C   UNL     1      50.784   7.243  15.835  0.00  0.00    +0.000 A 
ATOM     19  C   UNL     1      49.548   6.592  15.754  0.00  0.00    +0.000 A 
ATOM     20  C   UNL     1      48.808   6.701  14.564  0.00  0.00    +0.000 A 
BRANCH  19  21
ATOM     21  C   UNL     1      48.895   5.895  16.930  0.00  0.00    +0.000 C 
ATOM     22  C   UNL     1      47.858   4.889  16.404  0.00  0.00    +0.000 C 
ATOM     23  C   UNL     1      47.264   4.105  17.562  0.00  0.00    +0.000 C 
ATOM     24  O   UNL     1      46.680   4.986  18.521  0.00  0.00    +0.000 OA
ATOM     25  C   UNL     1      47.627   5.899  19.076  0.00  0.00    +0.000 C 
ATOM     26  C   UNL     1      48.230   6.785  17.988  0.00  0.00    +0.000 C 
ENDBRANCH  19  21
ENDBRANCH  14  15
ENDBRANCH   1  14
TORSDOF 5
ENDMDL
