MODEL 1
REMARK VINA RESULT:    -7.046      0.000      0.000
REMARK INTER + INTRA:          -9.297
REMARK INTER:                  -8.900
REMARK INTRA:                  -0.397
REMARK UNBOUND:                -0.397
REMARK  Name = 
REMARK  5 active torsions:
REMARK  status: ('A' for Active; 'I' for Inactive)
REMARK    1  A    between atoms: N_1  and  C_2
REMARK    2  A    between atoms: C_2  and  C_3
REMARK    3  A    between atoms: C_6  and  C_7
REMARK    4  A    between atoms: C_7  and  C_8
REMARK    5  A    between atoms: C_8  and  C_9
REMARK                            x       y       z     vdW  Elec       q    Type
REMARK                         _______ _______ _______ _____ _____    ______ ____
ROOT
ATOM      1  C   UNL     1      46.302   5.899  12.566  0.00  0.00    +0.000 A 
ATOM      2  C   UNL     1      46.377   6.184  11.210  0.00  0.00    +0.000 A 
ATOM      3  N   UNL     1      45.691   5.512  10.253  0.00  0.00    +0.000 NA
ATOM      4  C   UNL     1      44.894   4.477  10.643  0.00  0.00    +0.000 A 
ATOM      5  C   UNL     1      44.748   4.130  11.988  0.00  0.00    +0.000 A 
ATOM      6 CL   UNL     1      43.796   2.799  12.529  0.00  0.00    +0.000 Cl
ATOM      7  C   UNL     1      45.442   4.866  12.949  0.00  0.00    +0.000 A 
ENDROOT
BRANCH   1   8
ATOM      8  C   UNL     1      47.112   6.656  13.578  0.00  0.00    +0.000 C 
BRANCH   8   9
ATOM      9  N   UNL     1      47.636   5.763  14.606  0.00  0.00    +0.000 NA
ATOM     10  H   UNL     1      46.864   5.318  15.097  0.00  0.00    +0.000 HD
ATOM     11  H   UNL     1      48.140   6.311  15.304  0.00  0.00    +0.000 HD
ENDBRANCH   8   9
ENDBRANCH   1   8
BRANCH   4  12
ATOM     12  C   UNL     1      44.240   3.708   9.514  0.00  0.00    +0.000 C 
BRANCH  12  13
ATOM     13  C   UNL     1      44.850   3.994   8.134  0.00  0.00    +0.000 C 
BRANCH  13  14
ATOM     14  C   UNL     1      45.852   2.974   7.634  0.00  0.00    +0.000 A 
ATOM     15  C   UNL     1      46.757   3.343   6.632  0.00  0.00    +0.000 A 
ATOM     16  C   UNL     1      47.710   2.424   6.210  0.00  0.00    +0.000 A 
ATOM     17  N   UNL     1      47.829   1.180   6.716  0.00  0.00    +0.000 NA
ATOM     18  C   UNL     1      46.957   0.844   7.689  0.00  0.00    +0.000 A 
ATOM     19  C   UNL     1      45.971   1.691   8.178  0.00  0.00    +0.000 A 
ENDBRANCH  13  14
ENDBRANCH  12  13
ENDBRANCH   4  12
TORSDOF 5
ENDMDL
MODEL 2
REMARK VINA RESULT:    -6.900      1.355      1.759
REMARK INTER + INTRA:          -9.112
REMARK INTER:                  -8.782
REMARK INTRA:                  -0.331
REMARK UNBOUND:                -0.397
REMARK  Name = 
REMARK  5 active torsions:
REMARK  status: ('A' for Active; 'I' for Inactive)
REMARK    1  A    between atoms: N_1  and  C_2
REMARK    2  A    between atoms: C_2  and  C_3
REMARK    3  A    between atoms: C_6  and  C_7
REMARK    4  A    between atoms: C_7  and  C_8
REMARK    5  A    between atoms: C_8  and  C_9
REMARK                            x       y       z     vdW  Elec       q    Type
REMARK                         _______ _______ _______ _____ _____    ______ ____
ROOT
ATOM      1  C   UNL     1      45.767   6.963  12.264  0.00  0.00    +0.000 A 
ATOM      2  C   UNL     1      46.173   6.623  10.982  0.00  0.00    +0.000 A 
ATOM      3  N   UNL     1      45.741   5.526  10.313  0.00  0.00    +0.000 NA
ATOM      4  C   UNL     1      44.869   4.691  10.948  0.00  0.00    +0.000 A 
ATOM      5  C   UNL     1      44.397   4.964  12.233  0.00  0.00    +0.000 A 
ATOM      6 CL   UNL     1      43.336   3.916  13.099  0.00  0.00    +0.000 Cl
ATOM      7  C   UNL     1      44.836   6.120  12.878  0.00  0.00    +0.000 A 
ENDROOT
BRANCH   1   8
ATOM      8  C   UNL     1      46.307   8.173  12.969  0.00  0.00    +0.000 C 
BRANCH   8   9
ATOM      9  N   UNL     1      45.274   9.191  13.135  0.00  0.00    +0.000 NA
ATOM     10  H   UNL     1      44.479   8.970  12.539  0.00  0.00    +0.000 HD
ATOM     11  H   UNL     1      45.631  10.090  12.812  0.00  0.00    +0.000 HD
ENDBRANCH   8   9
ENDBRANCH   1   8
BRANCH   4  12
ATOM     12  C   UNL     1      44.509   3.435  10.182  0.00  0.00    +0.000 C 
BRANCH  12  13
ATOM     13  C   UNL     1      44.643   3.578   8.659  0.00  0.00    +0.000 C 
BRANCH  13  14
ATOM     14  C   UNL     1      45.798   2.827   8.027  0.00  0.00    +0.000 A 
ATOM     15  C   UNL     1      45.927   1.453   8.262  0.00  0.00    +0.000 A 
ATOM     16  C   UNL     1      46.955   0.756   7.640  0.00  0.00    +0.000 A 
ATOM     17  N   UNL     1      47.848   1.321   6.804  0.00  0.00    +0.000 NA
ATOM     18  C   UNL     1      47.703   2.643   6.578  0.00  0.00    +0.000 A 
ATOM     19  C   UNL     1      46.709   3.426   7.151  0.00  0.00    +0.000 A 
ENDBRANCH  13  14
ENDBRANCH  12  13
ENDBRANCH   4  12
TORSDOF 5
ENDMDL
MODEL 3
REMARK VINA RESULT:    -6.886      1.757      1.948
REMARK INTER + INTRA:          -9.095
REMARK INTER:                  -8.671
REMARK INTRA:                  -0.424
REMARK UNBOUND:                -0.397
REMARK  Name = 
REMARK  5 active torsions:
REMARK  status: ('A' for Active; 'I' for Inactive)
REMARK    1  A    between atoms: N_1  and  C_2
REMARK    2  A    between atoms: C_2  and  C_3
REMARK    3  A    between atoms: C_6  and  C_7
REMARK    4  A    between atoms: C_7  and  C_8
REMARK    5  A    between atoms: C_8  and  C_9
REMARK                            x       y       z     vdW  Elec       q    Type
REMARK                         _______ _______ _______ _____ _____    ______ ____
ROOT
ATOM      1  C   UNL     1      46.371   4.475  13.675  0.00  0.00    +0.000 A 
ATOM      2  C   UNL     1      46.057   3.260  13.084  0.00  0.00    +0.000 A 
ATOM      3  N   UNL     1      45.400   3.134  11.905  0.00  0.00    +0.000 NA
ATOM      4  C   UNL     1      45.003   4.273  11.269  0.00  0.00    +0.000 A 
ATOM      5  C   UNL     1      45.289   5.539  11.784  0.00  0.00    +0.000 A 
ATOM      6 CL   UNL     1      44.764   7.007  11.047  0.00  0.00    +0.000 Cl
ATOM      7  C   UNL     1      45.997   5.631  12.983  0.00  0.00    +0.000 A 
ENDROOT
BRANCH   1   8
ATOM      8  C   UNL     1      47.070   4.552  15.001  0.00  0.00    +0.000 C 
BRANCH   8   9
ATOM      9  N   UNL     1      47.657   3.266  15.362  0.00  0.00    +0.000 NA
ATOM     10  H   UNL     1      48.003   3.307  16.319  0.00  0.00    +0.000 HD
ATOM     11  H   UNL     1      48.470   3.089  14.773  0.00  0.00    +0.000 HD
ENDBRANCH   8   9
ENDBRANCH   1   8
BRANCH   4  12
ATOM     12  C   UNL     1      44.186   4.056  10.012  0.00  0.00    +0.000 C 
BRANCH  12  13
ATOM     13  C   UNL     1      44.947   4.372   8.716  0.00  0.00    +0.000 C 
BRANCH  13  14
ATOM     14  C   UNL     1      45.765   3.235   8.138  0.00  0.00    +0.000 A 
ATOM     15  C   UNL     1      46.787   3.526   7.227  0.00  0.00    +0.000 A 
ATOM     16  C   UNL     1      47.570   2.489   6.738  0.00  0.00    +0.000 A 
ATOM     17  N   UNL     1      47.415   1.198   7.094  0.00  0.00    +0.000 NA
ATOM     18  C   UNL     1      46.434   0.936   7.982  0.00  0.00    +0.000 A 
ATOM     19  C   UNL     1      45.599   1.902   8.528  0.00  0.00    +0.000 A 
ENDBRANCH  13  14
ENDBRANCH  12  13
ENDBRANCH   4  12
TORSDOF 5
ENDMDL
MODEL 4
REMARK VINA RESULT:    -6.621      1.181      5.669
REMARK INTER + INTRA:          -8.760
REMARK INTER:                  -8.218
REMARK INTRA:                  -0.543
REMARK UNBOUND:                -0.397
REMARK  Name = 
REMARK  5 active torsions:
REMARK  status: ('A' for Active; 'I' for Inactive)
REMARK    1  A    between atoms: N_1  and  C_2
REMARK    2  A    between atoms: C_2  and  C_3
REMARK    3  A    between atoms: C_6  and  C_7
REMARK    4  A    between atoms: C_7  and  C_8
REMARK    5  A    between atoms: C_8  and  C_9
REMARK                            x       y       z     vdW  Elec       q    Type
REMARK                         _______ _______ _______ _____ _____    ______ ____
ROOT
ATOM      1  C   UNL     1      46.385   2.589   7.716  0.00  0.00    +0.000 A 
ATOM      2  C   UNL     1      46.397   3.974   7.639  0.00  0.00    +0.000 A 
ATOM      3  N   UNL     1      45.702   4.788   8.471  0.00  0.00    +0.000 NA
ATOM      4  C   UNL     1      44.925   4.210   9.431  0.00  0.00    +0.000 A 
ATOM      5  C   UNL     1      44.864   2.824   9.589  0.00  0.00    +0.000 A 
ATOM      6 CL   UNL     1      43.858   2.043  10.751  0.00  0.00    +0.000 Cl
ATOM      7  C   UNL     1      45.620   2.018   8.737  0.00  0.00    +0.000 A 
ENDROOT
BRANCH   1   8
ATOM      8  C   UNL     1      47.147   1.737   6.743  0.00  0.00    +0.000 C 
BRANCH   8   9
ATOM      9  N   UNL     1      48.434   2.339   6.412  0.00  0.00    +0.000 NA
ATOM     10  H   UNL     1      49.187   1.733   6.732  0.00  0.00    +0.000 HD
ATOM     11  H   UNL     1      48.538   3.216   6.921  0.00  0.00    +0.000 HD
ENDBRANCH   8   9
ENDBRANCH   1   8
BRANCH   4  12
ATOM     12  C   UNL     1      44.100   5.175  10.257  0.00  0.00    +0.000 C 
BRANCH  12  13
ATOM     13  C   UNL     1      44.926   6.286  10.922  0.00  0.00    +0.000 C 
BRANCH  13  14
ATOM     14  C   UNL     1      45.879   5.835  12.011  0.00  0.00    +0.000 A 
ATOM     15  C   UNL     1      47.107   6.490  12.155  0.00  0.00    +0.000 A 
ATOM     16  C   UNL     1      47.958   6.111  13.186  0.00  0.00    +0.000 A 
ATOM     17  N   UNL     1      47.671   5.143  14.079  0.00  0.00    +0.000 NA
ATOM     18  C   UNL     1      46.478   4.530  13.933  0.00  0.00    +0.000 A 
ATOM     19  C   UNL     1      45.560   4.837  12.937  0.00  0.00    +0.000 A 
ENDBRANCH  13  14
ENDBRANCH  12  13
ENDBRANCH   4  12
TORSDOF 5
ENDMDL
MODEL 5
REMARK VINA RESULT:    -6.297      1.897      5.985
REMARK INTER + INTRA:          -8.351
REMARK INTER:                  -7.655
REMARK INTRA:                  -0.697
REMARK UNBOUND:                -0.397
REMARK  Name = 
REMARK  5 active torsions:
REMARK  status: ('A' for Active; 'I' for Inactive)
REMARK    1  A    between atoms: N_1  and  C_2
REMARK    2  A    between atoms: C_2  and  C_3
REMARK    3  A    between atoms: C_6  and  C_7
REMARK    4  A    between atoms: C_7  and  C_8
REMARK    5  A    between atoms: C_8  and  C_9
REMARK                            x       y       z     vdW  Elec       q    Type
REMARK                         _______ _______ _______ _____ _____    ______ ____
ROOT
ATOM      1  C   UNL     1      46.119   1.899   8.093  0.00  0.00    +0.000 A 
ATOM      2  C   UNL     1      44.986   1.424   8.737  0.00  0.00    +0.000 A 
ATOM      3  N   UNL     1      44.147   2.198   9.470  0.00  0.00    +0.000 NA
ATOM      4  C   UNL     1      44.448   3.521   9.602  0.00  0.00    +0.000 A 
ATOM      5  C   UNL     1      45.561   4.086   8.977  0.00  0.00    +0.000 A 
ATOM      6 CL   UNL     1      46.014   5.740   9.155  0.00  0.00    +0.000 Cl
ATOM      7  C   UNL     1      46.382   3.267   8.201  0.00  0.00    +0.000 A 
ENDROOT
BRANCH   1   8
ATOM      8  C   UNL     1      47.030   0.988   7.323  0.00  0.00    +0.000 C 
BRANCH   8   9
ATOM      9  N   UNL     1      46.832  -0.405   7.709  0.00  0.00    +0.000 NA
ATOM     10  H   UNL     1      45.874  -0.682   7.506  0.00  0.00    +0.000 HD
ATOM     11  H   UNL     1      46.947  -0.495   8.718  0.00  0.00    +0.000 HD
ENDBRANCH   8   9
ENDBRANCH   1   8
BRANCH   4  12
ATOM     12  C   UNL     1      43.526   4.301  10.516  0.00  0.00    +0.000 C 
BRANCH  12  13
ATOM     13  C   UNL     1      43.688   3.954  12.003  0.00  0.00    +0.000 C 
BRANCH  13  14
ATOM     14  C   UNL     1      44.985   4.403  12.646  0.00  0.00    +0.000 A 
ATOM     15  C   UNL     1      45.896   3.436  13.088  0.00  0.00    +0.000 A 
ATOM     16  C   UNL     1      47.108   3.847  13.629  0.00  0.00    +0.000 A 
ATOM     17  N   UNL     1      47.476   5.139  13.752  0.00  0.00    +0.000 NA
ATOM     18  C   UNL     1      46.592   6.057  13.310  0.00  0.00    +0.000 A 
ATOM     19  C   UNL     1      45.358   5.746  12.754  0.00  0.00    +0.000 A 
ENDBRANCH  13  14
ENDBRANCH  12  13
ENDBRANCH   4  12
TORSDOF 5
ENDMDL
MODEL 6
REMARK VINA RESULT:    -5.320      2.389      3.445
REMARK INTER + INTRA:          -7.117
REMARK INTER:                  -6.733
REMARK INTRA:                  -0.384
REMARK UNBOUND:                -0.397
REMARK  Name = 
REMARK  5 active torsions:
REMARK  status: ('A' for Active; 'I' for Inactive)
REMARK    1  A    between atoms: N_1  and  C_2
REMARK    2  A    between atoms: C_2  and  C_3
REMARK    3  A    between atoms: C_6  and  C_7
REMARK    4  A    between atoms: C_7  and  C_8
REMARK    5  A    between atoms: C_8  and  C_9
REMARK                            x       y       z     vdW  Elec       q    Type
REMARK                         _______ _______ _______ _____ _____    ______ ____
ROOT
ATOM      1  C   UNL     1      47.770   5.527  14.987  0.00  0.00    +0.000 A 
ATOM      2  C   UNL     1      46.732   4.723  14.538  0.00  0.00    +0.000 A 
ATOM      3  N   UNL     1      46.051   4.933  13.384  0.00  0.00    +0.000 NA
ATOM      4  C   UNL     1      46.393   6.015  12.627  0.00  0.00    +0.000 A 
ATOM      5  C   UNL     1      47.434   6.869  12.996  0.00  0.00    +0.000 A 
ATOM      6 CL   UNL     1      47.870   8.277  12.102  0.00  0.00    +0.000 Cl
ATOM      7  C   UNL     1      48.136   6.602  14.171  0.00  0.00    +0.000 A 
ENDROOT
BRANCH   1   8
ATOM      8  C   UNL     1      48.465   5.266  16.291  0.00  0.00    +0.000 C 
BRANCH   8   9
ATOM      9  N   UNL     1      48.664   3.836  16.505  0.00  0.00    +0.000 NA
ATOM     10  H   UNL     1      47.889   3.319  16.094  0.00  0.00    +0.000 HD
ATOM     11  H   UNL     1      48.640   3.638  17.505  0.00  0.00    +0.000 HD
ENDBRANCH   8   9
ENDBRANCH   1   8
BRANCH   4  12
ATOM     12  C   UNL     1      45.524   6.245  11.408  0.00  0.00    +0.000 C 
BRANCH  12  13
ATOM     13  C   UNL     1      44.513   5.120  11.145  0.00  0.00    +0.000 C 
BRANCH  13  14
ATOM     14  C   UNL     1      44.865   4.167  10.021  0.00  0.00    +0.000 A 
ATOM     15  C   UNL     1      45.531   4.661   8.893  0.00  0.00    +0.000 A 
ATOM     16  C   UNL     1      45.900   3.778   7.886  0.00  0.00    +0.000 A 
ATOM     17  N   UNL     1      45.664   2.451   7.927  0.00  0.00    +0.000 NA
ATOM     18  C   UNL     1      45.033   1.990   9.026  0.00  0.00    +0.000 A 
ATOM     19  C   UNL     1      44.624   2.791  10.084  0.00  0.00    +0.000 A 
ENDBRANCH  13  14
ENDBRANCH  12  13
ENDBRANCH   4  12
TORSDOF 5
ENDMDL
MODEL 7
REMARK VINA RESULT:    -5.275      3.498      5.567
REMARK INTER + INTRA:          -7.060
REMARK INTER:                  -6.730
REMARK INTRA:                  -0.331
REMARK UNBOUND:                -0.397
REMARK  Name = 
REMARK  5 active torsions:
REMARK  status: ('A' for Active; 'I' for Inactive)
REMARK    1  A    between atoms: N_1  and  C_2
REMARK    2  A    between atoms: C_2  and  C_3
REMARK    3  A    between atoms: C_6  and  C_7
REMARK    4  A    between atoms: C_7  and  C_8
REMARK    5  A    between atoms: C_8  and  C_9
REMARK                            x       y       z     vdW  Elec       q    Type
REMARK                         _______ _______ _______ _____ _____    ______ ____
ROOT
ATOM      1  C   UNL     1      48.228   4.668  17.556  0.00  0.00    +0.000 A 
ATOM      2  C   UNL     1      47.343   3.844  16.876  0.00  0.00    +0.000 A 
ATOM      3  N   UNL     1      46.976   4.024  15.583  0.00  0.00    +0.000 NA
ATOM      4  C   UNL     1      47.490   5.095  14.915  0.00  0.00    +0.000 A 
ATOM      5  C   UNL     1      48.398   5.968  15.517  0.00  0.00    +0.000 A 
ATOM      6 CL   UNL     1      49.037   7.365  14.734  0.00  0.00    +0.000 Cl
ATOM      7  C   UNL     1      48.781   5.732  16.838  0.00  0.00    +0.000 A 
ENDROOT
BRANCH   1   8
ATOM      8  C   UNL     1      48.571   4.439  18.999  0.00  0.00    +0.000 C 
BRANCH   8   9
ATOM      9  N   UNL     1      48.285   3.065  19.397  0.00  0.00    +0.000 NA
ATOM     10  H   UNL     1      47.333   2.824  19.129  0.00  0.00    +0.000 HD
ATOM     11  H   UNL     1      48.322   2.994  20.414  0.00  0.00    +0.000 HD
ENDBRANCH   8   9
ENDBRANCH   1   8
BRANCH   4  12
ATOM     12  C   UNL     1      46.958   5.292  13.511  0.00  0.00    +0.000 C 
BRANCH  12  13
ATOM     13  C   UNL     1      45.427   5.379  13.434  0.00  0.00    +0.000 C 
BRANCH  13  14
ATOM     14  C   UNL     1      44.775   4.552  12.345  0.00  0.00    +0.000 A 
ATOM     15  C   UNL     1      45.095   4.813  11.007  0.00  0.00    +0.000 A 
ATOM     16  C   UNL     1      44.537   4.020  10.013  0.00  0.00    +0.000 A 
ATOM     17  N   UNL     1      43.699   2.992  10.253  0.00  0.00    +0.000 NA
ATOM     18  C   UNL     1      43.411   2.746  11.547  0.00  0.00    +0.000 A 
ATOM     19  C   UNL     1      43.917   3.480  12.612  0.00  0.00    +0.000 A 
ENDBRANCH  13  14
ENDBRANCH  12  13
ENDBRANCH   4  12
TORSDOF 5
ENDMDL
MODEL 8
REMARK VINA RESULT:    -5.271      3.454      7.481
REMARK INTER + INTRA:          -7.054
REMARK INTER:                  -6.762
REMARK INTRA:                  -0.293
REMARK UNBOUND:                -0.397
REMARK  Name = 
REMARK  5 active torsions:
REMARK  status: ('A' for Active; 'I' for Inactive)
REMARK    1  A    between atoms: N_1  and  C_2
REMARK    2  A    between atoms: C_2  and  C_3
REMARK    3  A    between atoms: C_6  and  C_7
REMARK    4  A    between atoms: C_7  and  C_8
REMARK    5  A    between atoms: C_8  and  C_9
REMARK                            x       y       z     vdW  Elec       q    Type
REMARK                         _______ _______ _______ _____ _____    ______ ____
ROOT
ATOM      1  C   UNL     1      44.953   4.360  10.461  0.00  0.00    +0.000 A 
ATOM      2  C   UNL     1      44.955   3.474  11.529  0.00  0.00    +0.000 A 
ATOM      3  N   UNL     1      45.513   3.739  12.736  0.00  0.00    +0.000 NA
ATOM      4  C   UNL     1      46.131   4.943  12.905  0.00  0.00    +0.000 A 
ATOM      5  C   UNL     1      46.164   5.900  11.889  0.00  0.00    +0.000 A 
ATOM      6 CL   UNL     1      46.976   7.414  12.034  0.00  0.00    +0.000 Cl
ATOM      7  C   UNL     1      45.549   5.607  10.671  0.00  0.00    +0.000 A 
ENDROOT
BRANCH   1   8
ATOM      8  C   UNL     1      44.350   3.997   9.135  0.00  0.00    +0.000 C 
BRANCH   8   9
ATOM      9  N   UNL     1      45.308   4.188   8.051  0.00  0.00    +0.000 NA
ATOM     10  H   UNL     1      45.049   5.010   7.509  0.00  0.00    +0.000 HD
ATOM     11  H   UNL     1      45.254   3.396   7.411  0.00  0.00    +0.000 HD
ENDBRANCH   8   9
ENDBRANCH   1   8
BRANCH   4  12
ATOM     12  C   UNL     1      46.819   5.130  14.241  0.00  0.00    +0.000 C 
BRANCH  12  13
ATOM     13  C   UNL     1      47.143   3.813  14.962  0.00  0.00    +0.000 C 
BRANCH  13  14
ATOM     14  C   UNL     1      47.790   3.950  16.325  0.00  0.00    +0.000 A 
ATOM     15  C   UNL     1      48.387   5.167  16.676  0.00  0.00    +0.000 A 
ATOM     16  C   UNL     1      48.934   5.309  17.944  0.00  0.00    +0.000 A 
ATOM     17  N   UNL     1      48.921   4.340  18.881  0.00  0.00    +0.000 NA
ATOM     18  C   UNL     1      48.332   3.178  18.531  0.00  0.00    +0.000 A 
ATOM     19  C   UNL     1      47.757   2.939  17.290  0.00  0.00    +0.000 A 
ENDBRANCH  13  14
ENDBRANCH  12  13
ENDBRANCH   4  12
TORSDOF 5
ENDMDL
MODEL 9
REMARK VINA RESULT:    -5.181      3.392      6.388
REMARK INTER + INTRA:          -6.942
REMARK INTER:                  -6.574
REMARK INTRA:                  -0.368
REMARK UNBOUND:                -0.397
REMARK  Name = 
REMARK  5 active torsions:
REMARK  status: ('A' for Active; 'I' for Inactive)
REMARK    1  A    between atoms: N_1  and  C_2
REMARK    2  A    between atoms: C_2  and  C_3
REMARK    3  A    between atoms: C_6  and  C_7
REMARK    4  A    between atoms: C_7  and  C_8
REMARK    5  A    between atoms: C_8  and  C_9
REMARK                            x       y       z     vdW  Elec       q    Type
REMARK                         _______ _______ _______ _____ _____    ______ ____
ROOT
ATOM      1  C   UNL     1      44.795   3.895  11.288  0.00  0.00    +0.000 A 
ATOM      2  C   UNL     1      45.117   5.070  10.625  0.00  0.00    +0.000 A 
ATOM      3  N   UNL     1      45.934   6.028  11.128  0.00  0.00    +0.000 NA
ATOM      4  C   UNL     1      46.455   5.836  12.373  0.00  0.00    +0.000 A 
ATOM      5  C   UNL     1      46.196   4.676  13.105  0.00  0.00    +0.000 A 
ATOM      6 CL   UNL     1      46.788   4.408  14.703  0.00  0.00    +0.000 Cl
ATOM      7  C   UNL     1      45.379   3.695  12.542  0.00  0.00    +0.000 A 
ENDROOT
BRANCH   1   8
ATOM      8  C   UNL     1      43.857   2.885  10.696  0.00  0.00    +0.000 C 
BRANCH   8   9
ATOM      9  N   UNL     1      43.062   2.233  11.732  0.00  0.00    +0.000 NA
ATOM     10  H   UNL     1      43.065   1.226  11.581  0.00  0.00    +0.000 HD
ATOM     11  H   UNL     1      42.090   2.531  11.648  0.00  0.00    +0.000 HD
ENDBRANCH   8   9
ENDBRANCH   1   8
BRANCH   4  12
ATOM     12  C   UNL     1      47.274   6.991  12.911  0.00  0.00    +0.000 C 
BRANCH  12  13
ATOM     13  C   UNL     1      48.774   6.888  12.597  0.00  0.00    +0.000 C 
BRANCH  13  14
ATOM     14  C   UNL     1      49.396   8.110  11.952  0.00  0.00    +0.000 A 
ATOM     15  C   UNL     1      48.618   9.262  11.784  0.00  0.00    +0.000 A 
ATOM     16  C   UNL     1      49.203  10.398  11.240  0.00  0.00    +0.000 A 
ATOM     17  N   UNL     1      50.496  10.471  10.864  0.00  0.00    +0.000 NA
ATOM     18  C   UNL     1      51.234   9.357  11.044  0.00  0.00    +0.000 A 
ATOM     19  C   UNL     1      50.742   8.173  11.579  0.00  0.00    +0.000 A 
ENDBRANCH  13  14
ENDBRANCH  12  13
ENDBRANCH   4  12
TORSDOF 5
ENDMDL
