MODEL 1
REMARK VINA RESULT:    -8.691      0.000      0.000
REMARK INTER + INTRA:         -13.048
REMARK INTER:                 -11.993
REMARK INTRA:                  -1.055
REMARK UNBOUND:                -1.055
REMARK  Name = 
REMARK  7 active torsions:
REMARK  status: ('A' for Active; 'I' for Inactive)
REMARK    1  A    between atoms: C_2  and  C_20
REMARK    2  A    between atoms: N_3  and  C_4
REMARK    3  A    between atoms: C_4  and  C_5
REMARK    4  A    between atoms: C_9  and  C_10
REMARK    5  A    between atoms: C_10  and  N_11
REMARK    6  A    between atoms: N_11  and  C_12
REMARK    7  A    between atoms: C_15  and  O_16
REMARK                            x       y       z     vdW  Elec       q    Type
REMARK                         _______ _______ _______ _____ _____    ______ ____
ROOT
ATOM      1  C   UNL     1      45.129   5.800  12.105  0.00  0.00    +0.000 A 
ATOM      2  C   UNL     1      43.988   5.892  12.905  0.00  0.00    +0.000 A 
ATOM      3  C   UNL     1      42.962   4.985  12.701  0.00  0.00    +0.000 A 
ATOM      4  N   UNL     1      42.997   4.006  11.773  0.00  0.00    +0.000 NA
ATOM      5  C   UNL     1      44.109   3.925  10.994  0.00  0.00    +0.000 A 
ATOM      6  C   UNL     1      45.193   4.786  11.145  0.00  0.00    +0.000 A 
ENDROOT
BRANCH   1   7
ATOM      7  C   UNL     1      46.285   6.740  12.313  0.00  0.00    +0.000 C 
BRANCH   7  10
ATOM      8  O   UNL     1      48.997   6.350  12.912  0.00  0.00    +0.000 OA
ATOM      9  C   UNL     1      48.195   6.445  13.837  0.00  0.00    +0.000 C 
ATOM     10  N   UNL     1      46.847   6.573  13.629  0.00  0.00    +0.000 N 
ATOM     11  H   UNL     1      46.251   6.836  14.408  0.00  0.00    +0.000 HD
BRANCH   9  12
ATOM     12  C   UNL     1      48.631   6.380  15.236  0.00  0.00    +0.000 A 
ATOM     13  C   UNL     1      49.457   7.373  15.746  0.00  0.00    +0.000 A 
ATOM     14  S   UNL     1      49.857   7.153  17.389  0.00  0.00    +0.000 S 
ATOM     15  C   UNL     1      48.907   5.745  17.486  0.00  0.00    +0.000 A 
ATOM     16  N   UNL     1      48.776   5.069  18.662  0.00  0.00    +0.000 NA
ATOM     17  C   UNL     1      47.992   4.048  18.605  0.00  0.00    +0.000 A 
ATOM     18  N   UNL     1      47.340   3.624  17.475  0.00  0.00    +0.000 N 
ATOM     19  C   UNL     1      47.508   4.224  16.249  0.00  0.00    +0.000 A 
ATOM     20  O   UNL     1      47.030   3.735  15.229  0.00  0.00    +0.000 OA
ATOM     21  C   UNL     1      48.326   5.419  16.271  0.00  0.00    +0.000 A 
ATOM     22  H   UNL     1      46.769   2.791  17.490  0.00  0.00    +0.000 HD
ENDBRANCH   9  12
ENDBRANCH   7  10
ENDBRANCH   1   7
BRANCH   5  23
ATOM     23  C   UNL     1      44.162   2.822   9.951  0.00  0.00    +0.000 C 
BRANCH  23  24
ATOM     24  N   UNL     1      45.522   2.398   9.572  0.00  0.00    +0.000 NA
ATOM     25  H   UNL     1      45.641   1.469   9.989  0.00  0.00    +0.000 HD
BRANCH  24  26
ATOM     26  C   UNL     1      45.737   2.261   8.120  0.00  0.00    +0.000 C 
ATOM     27  C   UNL     1      46.199   3.577   7.472  0.00  0.00    +0.000 C 
ATOM     28  C   UNL     1      46.650   3.394   6.023  0.00  0.00    +0.000 C 
ATOM     29  C   UNL     1      47.702   2.299   5.879  0.00  0.00    +0.000 C 
ATOM     30  C   UNL     1      47.196   0.981   6.459  0.00  0.00    +0.000 C 
ATOM     31  C   UNL     1      46.753   1.121   7.915  0.00  0.00    +0.000 C 
BRANCH  29  32
ATOM     32  O   UNL     1      48.916   2.692   6.512  0.00  0.00    +0.000 OA
ATOM     33  H   UNL     1      49.005   2.209   7.353  0.00  0.00    +0.000 HD
ENDBRANCH  29  32
ENDBRANCH  24  26
ENDBRANCH  23  24
ENDBRANCH   5  23
TORSDOF 7
ENDMDL
MODEL 2
REMARK VINA RESULT:    -8.517      2.163      2.912
REMARK INTER + INTRA:         -12.808
REMARK INTER:                 -12.033
REMARK INTRA:                  -0.776
REMARK UNBOUND:                -1.055
REMARK  Name = 
REMARK  7 active torsions:
REMARK  status: ('A' for Active; 'I' for Inactive)
REMARK    1  A    between atoms: C_2  and  C_20
REMARK    2  A    between atoms: N_3  and  C_4
REMARK    3  A    between atoms: C_4  and  C_5
REMARK    4  A    between atoms: C_9  and  C_10
REMARK    5  A    between atoms: C_10  and  N_11
REMARK    6  A    between atoms: N_11  and  C_12
REMARK    7  A    between atoms: C_15  and  O_16
REMARK                            x       y       z     vdW  Elec       q    Type
REMARK                         _______ _______ _______ _____ _____    ______ ____
ROOT
ATOM      1  C   UNL     1      45.949   4.773  13.274  0.00  0.00    +0.000 A 
ATOM      2  C   UNL     1      46.600   6.001  13.130  0.00  0.00    +0.000 A 
ATOM      3  C   UNL     1      46.570   6.626  11.895  0.00  0.00    +0.000 A 
ATOM      4  N   UNL     1      45.943   6.122  10.812  0.00  0.00    +0.000 NA
ATOM      5  C   UNL     1      45.315   4.924  10.957  0.00  0.00    +0.000 A 
ATOM      6  C   UNL     1      45.282   4.238  12.169  0.00  0.00    +0.000 A 
ENDROOT
BRANCH   1   7
ATOM      7  C   UNL     1      45.923   4.074  14.605  0.00  0.00    +0.000 C 
BRANCH   7  10
ATOM      8  O   UNL     1      46.472   3.212  17.217  0.00  0.00    +0.000 OA
ATOM      9  C   UNL     1      47.304   3.901  16.635  0.00  0.00    +0.000 C 
ATOM     10  N   UNL     1      47.087   4.414  15.383  0.00  0.00    +0.000 N 
ATOM     11  H   UNL     1      47.867   4.813  14.872  0.00  0.00    +0.000 HD
BRANCH   9  12
ATOM     12  C   UNL     1      48.578   4.259  17.269  0.00  0.00    +0.000 A 
ATOM     13  C   UNL     1      48.701   5.477  17.924  0.00  0.00    +0.000 A 
ATOM     14  S   UNL     1      50.239   5.730  18.615  0.00  0.00    +0.000 S 
ATOM     15  C   UNL     1      50.780   4.203  18.097  0.00  0.00    +0.000 A 
ATOM     16  N   UNL     1      52.032   3.763  18.406  0.00  0.00    +0.000 NA
ATOM     17  C   UNL     1      52.296   2.572  17.992  0.00  0.00    +0.000 A 
ATOM     18  N   UNL     1      51.431   1.783  17.276  0.00  0.00    +0.000 N 
ATOM     19  C   UNL     1      50.191   2.217  16.869  0.00  0.00    +0.000 A 
ATOM     20  O   UNL     1      49.501   1.547  16.106  0.00  0.00    +0.000 OA
ATOM     21  C   UNL     1      49.817   3.524  17.368  0.00  0.00    +0.000 A 
ATOM     22  H   UNL     1      51.715   0.872  16.947  0.00  0.00    +0.000 HD
ENDBRANCH   9  12
ENDBRANCH   7  10
ENDBRANCH   1   7
BRANCH   5  23
ATOM     23  C   UNL     1      44.599   4.350   9.747  0.00  0.00    +0.000 C 
BRANCH  23  24
ATOM     24  N   UNL     1      45.265   4.608   8.457  0.00  0.00    +0.000 NA
ATOM     25  H   UNL     1      46.195   4.964   8.699  0.00  0.00    +0.000 HD
BRANCH  24  26
ATOM     26  C   UNL     1      45.456   3.411   7.618  0.00  0.00    +0.000 C 
ATOM     27  C   UNL     1      46.380   3.680   6.418  0.00  0.00    +0.000 C 
ATOM     28  C   UNL     1      46.774   2.402   5.679  0.00  0.00    +0.000 C 
ATOM     29  C   UNL     1      47.364   1.352   6.614  0.00  0.00    +0.000 C 
ATOM     30  C   UNL     1      46.400   1.041   7.757  0.00  0.00    +0.000 C 
ATOM     31  C   UNL     1      45.998   2.295   8.532  0.00  0.00    +0.000 C 
BRANCH  29  32
ATOM     32  O   UNL     1      48.620   1.790   7.123  0.00  0.00    +0.000 OA
ATOM     33  H   UNL     1      49.329   1.264   6.713  0.00  0.00    +0.000 HD
ENDBRANCH  29  32
ENDBRANCH  24  26
ENDBRANCH  23  24
ENDBRANCH   5  23
TORSDOF 7
ENDMDL
MODEL 3
REMARK VINA RESULT:    -7.777      1.708      2.737
REMARK INTER + INTRA:         -11.787
REMARK INTER:                 -10.843
REMARK INTRA:                  -0.944
REMARK UNBOUND:                -1.055
REMARK  Name = 
REMARK  7 active torsions:
REMARK  status: ('A' for Active; 'I' for Inactive)
REMARK    1  A    between atoms: C_2  and  C_20
REMARK    2  A    between atoms: N_3  and  C_4
REMARK    3  A    between atoms: C_4  and  C_5
REMARK    4  A    between atoms: C_9  and  C_10
REMARK    5  A    between atoms: C_10  and  N_11
REMARK    6  A    between atoms: N_11  and  C_12
REMARK    7  A    between atoms: C_15  and  O_16
REMARK                            x       y       z     vdW  Elec       q    Type
REMARK                         _______ _______ _______ _____ _____    ______ ____
ROOT
ATOM      1  C   UNL     1      45.954   4.430  13.171  0.00  0.00    +0.000 A 
ATOM      2  C   UNL     1      45.518   5.754  13.265  0.00  0.00    +0.000 A 
ATOM      3  C   UNL     1      44.718   6.262  12.256  0.00  0.00    +0.000 A 
ATOM      4  N   UNL     1      44.325   5.551  11.179  0.00  0.00    +0.000 NA
ATOM      5  C   UNL     1      44.756   4.264  11.090  0.00  0.00    +0.000 A 
ATOM      6  C   UNL     1      45.548   3.671  12.070  0.00  0.00    +0.000 A 
ENDROOT
BRANCH   1   7
ATOM      7  C   UNL     1      46.794   3.823  14.260  0.00  0.00    +0.000 C 
BRANCH   7  10
ATOM      8  O   UNL     1      47.930   3.362  16.783  0.00  0.00    +0.000 OA
ATOM      9  C   UNL     1      47.828   4.518  16.383  0.00  0.00    +0.000 C 
ATOM     10  N   UNL     1      47.229   4.833  15.191  0.00  0.00    +0.000 N 
ATOM     11  H   UNL     1      47.336   5.770  14.819  0.00  0.00    +0.000 HD
BRANCH   9  12
ATOM     12  C   UNL     1      48.305   5.649  17.186  0.00  0.00    +0.000 A 
ATOM     13  C   UNL     1      48.017   5.699  18.544  0.00  0.00    +0.000 A 
ATOM     14  S   UNL     1      48.655   7.071  19.329  0.00  0.00    +0.000 S 
ATOM     15  C   UNL     1      49.374   7.625  17.890  0.00  0.00    +0.000 A 
ATOM     16  N   UNL     1      50.128   8.759  17.876  0.00  0.00    +0.000 NA
ATOM     17  C   UNL     1      50.650   9.038  16.732  0.00  0.00    +0.000 A 
ATOM     18  N   UNL     1      50.472   8.301  15.590  0.00  0.00    +0.000 N 
ATOM     19  C   UNL     1      49.652   7.197  15.536  0.00  0.00    +0.000 A 
ATOM     20  O   UNL     1      49.395   6.645  14.470  0.00  0.00    +0.000 OA
ATOM     21  C   UNL     1      49.095   6.799  16.813  0.00  0.00    +0.000 A 
ATOM     22  H   UNL     1      50.879   8.597  14.714  0.00  0.00    +0.000 HD
ENDBRANCH   9  12
ENDBRANCH   7  10
ENDBRANCH   1   7
BRANCH   5  23
ATOM     23  C   UNL     1      44.314   3.452   9.885  0.00  0.00    +0.000 C 
BRANCH  23  24
ATOM     24  N   UNL     1      45.178   2.300   9.567  0.00  0.00    +0.000 NA
ATOM     25  H   UNL     1      44.644   1.474   9.854  0.00  0.00    +0.000 HD
BRANCH  24  26
ATOM     26  C   UNL     1      45.490   2.148   8.135  0.00  0.00    +0.000 C 
ATOM     27  C   UNL     1      45.956   3.467   7.496  0.00  0.00    +0.000 C 
ATOM     28  C   UNL     1      46.505   3.275   6.082  0.00  0.00    +0.000 C 
ATOM     29  C   UNL     1      47.594   2.209   6.024  0.00  0.00    +0.000 C 
ATOM     30  C   UNL     1      47.088   0.886   6.592  0.00  0.00    +0.000 C 
ATOM     31  C   UNL     1      46.549   1.035   8.014  0.00  0.00    +0.000 C 
BRANCH  29  32
ATOM     32  O   UNL     1      48.753   2.646   6.727  0.00  0.00    +0.000 OA
ATOM     33  H   UNL     1      48.848   2.118   7.540  0.00  0.00    +0.000 HD
ENDBRANCH  29  32
ENDBRANCH  24  26
ENDBRANCH  23  24
ENDBRANCH   5  23
TORSDOF 7
ENDMDL
MODEL 4
REMARK VINA RESULT:    -7.715      1.856      3.265
REMARK INTER + INTRA:         -11.701
REMARK INTER:                 -10.765
REMARK INTRA:                  -0.936
REMARK UNBOUND:                -1.055
REMARK  Name = 
REMARK  7 active torsions:
REMARK  status: ('A' for Active; 'I' for Inactive)
REMARK    1  A    between atoms: C_2  and  C_20
REMARK    2  A    between atoms: N_3  and  C_4
REMARK    3  A    between atoms: C_4  and  C_5
REMARK    4  A    between atoms: C_9  and  C_10
REMARK    5  A    between atoms: C_10  and  N_11
REMARK    6  A    between atoms: N_11  and  C_12
REMARK    7  A    between atoms: C_15  and  O_16
REMARK                            x       y       z     vdW  Elec       q    Type
REMARK                         _______ _______ _______ _____ _____    ______ ____
ROOT
ATOM      1  C   UNL     1      45.426   4.820  13.036  0.00  0.00    +0.000 A 
ATOM      2  C   UNL     1      44.700   6.003  12.879  0.00  0.00    +0.000 A 
ATOM      3  C   UNL     1      43.843   6.115  11.797  0.00  0.00    +0.000 A 
ATOM      4  N   UNL     1      43.659   5.144  10.879  0.00  0.00    +0.000 NA
ATOM      5  C   UNL     1      44.372   3.996  11.035  0.00  0.00    +0.000 A 
ATOM      6  C   UNL     1      45.242   3.795  12.104  0.00  0.00    +0.000 A 
ENDROOT
BRANCH   1   7
ATOM      7  C   UNL     1      46.341   4.637  14.215  0.00  0.00    +0.000 C 
BRANCH   7  10
ATOM      8  O   UNL     1      48.481   4.865  16.015  0.00  0.00    +0.000 OA
ATOM      9  C   UNL     1      48.238   5.805  15.264  0.00  0.00    +0.000 C 
ATOM     10  N   UNL     1      47.173   5.798  14.400  0.00  0.00    +0.000 N 
ATOM     11  H   UNL     1      47.123   6.506  13.675  0.00  0.00    +0.000 HD
BRANCH   9  12
ATOM     12  C   UNL     1      49.052   7.025  15.277  0.00  0.00    +0.000 A 
ATOM     13  C   UNL     1      49.471   7.558  16.489  0.00  0.00    +0.000 A 
ATOM     14  S   UNL     1      50.418   8.966  16.326  0.00  0.00    +0.000 S 
ATOM     15  C   UNL     1      50.335   8.888  14.628  0.00  0.00    +0.000 A 
ATOM     16  N   UNL     1      50.988   9.799  13.854  0.00  0.00    +0.000 NA
ATOM     17  C   UNL     1      50.878   9.597  12.586  0.00  0.00    +0.000 A 
ATOM     18  N   UNL     1      50.157   8.579  12.016  0.00  0.00    +0.000 N 
ATOM     19  C   UNL     1      49.414   7.688  12.755  0.00  0.00    +0.000 A 
ATOM     20  O   UNL     1      48.663   6.881  12.214  0.00  0.00    +0.000 OA
ATOM     21  C   UNL     1      49.559   7.829  14.189  0.00  0.00    +0.000 A 
ATOM     22  H   UNL     1      50.080   8.499  11.012  0.00  0.00    +0.000 HD
ENDBRANCH   9  12
ENDBRANCH   7  10
ENDBRANCH   1   7
BRANCH   5  23
ATOM     23  C   UNL     1      44.169   2.893  10.012  0.00  0.00    +0.000 C 
BRANCH  23  24
ATOM     24  N   UNL     1      45.399   2.183   9.617  0.00  0.00    +0.000 NA
ATOM     25  H   UNL     1      45.273   1.220   9.945  0.00  0.00    +0.000 HD
BRANCH  24  26
ATOM     26  C   UNL     1      45.632   2.127   8.163  0.00  0.00    +0.000 C 
ATOM     27  C   UNL     1      46.073   3.484   7.589  0.00  0.00    +0.000 C 
ATOM     28  C   UNL     1      46.543   3.386   6.138  0.00  0.00    +0.000 C 
ATOM     29  C   UNL     1      47.619   2.322   5.949  0.00  0.00    +0.000 C 
ATOM     30  C   UNL     1      47.134   0.965   6.453  0.00  0.00    +0.000 C 
ATOM     31  C   UNL     1      46.674   1.020   7.910  0.00  0.00    +0.000 C 
BRANCH  29  32
ATOM     32  O   UNL     1      48.818   2.706   6.616  0.00  0.00    +0.000 OA
ATOM     33  H   UNL     1      48.917   3.673   6.558  0.00  0.00    +0.000 HD
ENDBRANCH  29  32
ENDBRANCH  24  26
ENDBRANCH  23  24
ENDBRANCH   5  23
TORSDOF 7
ENDMDL
MODEL 5
REMARK VINA RESULT:    -7.599      2.839      8.250
REMARK INTER + INTRA:         -11.541
REMARK INTER:                 -10.336
REMARK INTRA:                  -1.204
REMARK UNBOUND:                -1.055
REMARK  Name = 
REMARK  7 active torsions:
REMARK  status: ('A' for Active; 'I' for Inactive)
REMARK    1  A    between atoms: C_2  and  C_20
REMARK    2  A    between atoms: N_3  and  C_4
REMARK    3  A    between atoms: C_4  and  C_5
REMARK    4  A    between atoms: C_9  and  C_10
REMARK    5  A    between atoms: C_10  and  N_11
REMARK    6  A    between atoms: N_11  and  C_12
REMARK    7  A    between atoms: C_15  and  O_16
REMARK                            x       y       z     vdW  Elec       q    Type
REMARK                         _______ _______ _______ _____ _____    ______ ____
ROOT
ATOM      1  C   UNL     1      48.758   8.098  12.707  0.00  0.00    +0.000 A 
ATOM      2  C   UNL     1      50.017   8.496  12.252  0.00  0.00    +0.000 A 
ATOM      3  C   UNL     1      51.093   8.406  13.118  0.00  0.00    +0.000 A 
ATOM      4  N   UNL     1      51.003   7.950  14.384  0.00  0.00    +0.000 NA
ATOM      5  C   UNL     1      49.773   7.568  14.823  0.00  0.00    +0.000 A 
ATOM      6  C   UNL     1      48.643   7.610  14.011  0.00  0.00    +0.000 A 
ENDROOT
BRANCH   1   7
ATOM      7  C   UNL     1      47.566   8.143  11.791  0.00  0.00    +0.000 C 
BRANCH   7  10
ATOM      8  O   UNL     1      44.785   7.777  11.756  0.00  0.00    +0.000 OA
ATOM      9  C   UNL     1      45.512   6.789  11.711  0.00  0.00    +0.000 C 
ATOM     10  N   UNL     1      46.878   6.878  11.787  0.00  0.00    +0.000 N 
ATOM     11  H   UNL     1      47.437   6.063  11.558  0.00  0.00    +0.000 HD
BRANCH   9  12
ATOM     12  C   UNL     1      44.956   5.434  11.620  0.00  0.00    +0.000 A 
ATOM     13  C   UNL     1      44.307   4.882  12.717  0.00  0.00    +0.000 A 
ATOM     14  S   UNL     1      43.710   3.310  12.438  0.00  0.00    +0.000 S 
ATOM     15  C   UNL     1      44.263   3.328  10.829  0.00  0.00    +0.000 A 
ATOM     16  N   UNL     1      44.032   2.274   9.998  0.00  0.00    +0.000 NA
ATOM     17  C   UNL     1      44.464   2.439   8.795  0.00  0.00    +0.000 A 
ATOM     18  N   UNL     1      45.128   3.553   8.348  0.00  0.00    +0.000 N 
ATOM     19  C   UNL     1      45.458   4.604   9.172  0.00  0.00    +0.000 A 
ATOM     20  O   UNL     1      46.178   5.518   8.782  0.00  0.00    +0.000 OA
ATOM     21  C   UNL     1      44.934   4.500  10.519  0.00  0.00    +0.000 A 
ATOM     22  H   UNL     1      45.475   3.603   7.401  0.00  0.00    +0.000 HD
ENDBRANCH   9  12
ENDBRANCH   7  10
ENDBRANCH   1   7
BRANCH   5  23
ATOM     23  C   UNL     1      49.661   7.046  16.245  0.00  0.00    +0.000 C 
BRANCH  23  24
ATOM     24  N   UNL     1      48.327   6.534  16.610  0.00  0.00    +0.000 NA
ATOM     25  H   UNL     1      47.846   6.374  15.719  0.00  0.00    +0.000 HD
BRANCH  24  26
ATOM     26  C   UNL     1      48.344   5.252  17.337  0.00  0.00    +0.000 C 
ATOM     27  C   UNL     1      47.318   4.251  16.780  0.00  0.00    +0.000 C 
ATOM     28  C   UNL     1      47.485   2.848  17.364  0.00  0.00    +0.000 C 
ATOM     29  C   UNL     1      48.910   2.328  17.218  0.00  0.00    +0.000 C 
ATOM     30  C   UNL     1      49.909   3.297  17.846  0.00  0.00    +0.000 C 
ATOM     31  C   UNL     1      49.784   4.708  17.271  0.00  0.00    +0.000 C 
BRANCH  29  32
ATOM     32  O   UNL     1      49.220   2.108  15.845  0.00  0.00    +0.000 OA
ATOM     33  H   UNL     1      50.173   2.254  15.709  0.00  0.00    +0.000 HD
ENDBRANCH  29  32
ENDBRANCH  24  26
ENDBRANCH  23  24
ENDBRANCH   5  23
TORSDOF 7
ENDMDL
MODEL 6
REMARK VINA RESULT:    -7.542      2.430      4.150
REMARK INTER + INTRA:         -11.463
REMARK INTER:                 -10.318
REMARK INTRA:                  -1.144
REMARK UNBOUND:                -1.055
REMARK  Name = 
REMARK  7 active torsions:
REMARK  status: ('A' for Active; 'I' for Inactive)
REMARK    1  A    between atoms: C_2  and  C_20
REMARK    2  A    between atoms: N_3  and  C_4
REMARK    3  A    between atoms: C_4  and  C_5
REMARK    4  A    between atoms: C_9  and  C_10
REMARK    5  A    between atoms: C_10  and  N_11
REMARK    6  A    between atoms: N_11  and  C_12
REMARK    7  A    between atoms: C_15  and  O_16
REMARK                            x       y       z     vdW  Elec       q    Type
REMARK                         _______ _______ _______ _____ _____    ______ ____
ROOT
ATOM      1  C   UNL     1      45.156   4.668  13.112  0.00  0.00    +0.000 A 
ATOM      2  C   UNL     1      44.117   5.597  13.030  0.00  0.00    +0.000 A 
ATOM      3  C   UNL     1      43.086   5.361  12.138  0.00  0.00    +0.000 A 
ATOM      4  N   UNL     1      43.017   4.277  11.338  0.00  0.00    +0.000 NA
ATOM      5  C   UNL     1      44.033   3.377  11.420  0.00  0.00    +0.000 A 
ATOM      6  C   UNL     1      45.100   3.530  12.303  0.00  0.00    +0.000 A 
ENDROOT
BRANCH   1   7
ATOM      7  C   UNL     1      46.280   4.863  14.092  0.00  0.00    +0.000 C 
BRANCH   7  10
ATOM      8  O   UNL     1      48.674   5.720  12.907  0.00  0.00    +0.000 OA
ATOM      9  C   UNL     1      47.922   6.559  13.396  0.00  0.00    +0.000 C 
ATOM     10  N   UNL     1      46.766   6.218  14.048  0.00  0.00    +0.000 N 
ATOM     11  H   UNL     1      46.092   6.944  14.267  0.00  0.00    +0.000 HD
BRANCH   9  12
ATOM     12  C   UNL     1      48.243   7.990  13.353  0.00  0.00    +0.000 A 
ATOM     13  C   UNL     1      49.427   8.447  13.916  0.00  0.00    +0.000 A 
ATOM     14  S   UNL     1      49.650  10.130  13.767  0.00  0.00    +0.000 S 
ATOM     15  C   UNL     1      48.191  10.301  12.909  0.00  0.00    +0.000 A 
ATOM     16  N   UNL     1      47.797  11.516  12.435  0.00  0.00    +0.000 NA
ATOM     17  C   UNL     1      46.697  11.494  11.765  0.00  0.00    +0.000 A 
ATOM     18  N   UNL     1      45.939  10.373  11.540  0.00  0.00    +0.000 N 
ATOM     19  C   UNL     1      46.254   9.143  12.070  0.00  0.00    +0.000 A 
ATOM     20  O   UNL     1      45.482   8.193  11.976  0.00  0.00    +0.000 OA
ATOM     21  C   UNL     1      47.518   9.098  12.775  0.00  0.00    +0.000 A 
ATOM     22  H   UNL     1      45.065  10.432  11.038  0.00  0.00    +0.000 HD
ENDBRANCH   9  12
ENDBRANCH   7  10
ENDBRANCH   1   7
BRANCH   5  23
ATOM     23  C   UNL     1      43.963   2.148  10.530  0.00  0.00    +0.000 C 
BRANCH  23  24
ATOM     24  N   UNL     1      44.156   2.416   9.093  0.00  0.00    +0.000 NA
ATOM     25  H   UNL     1      43.709   3.323   8.924  0.00  0.00    +0.000 HD
BRANCH  24  26
ATOM     26  C   UNL     1      45.565   2.535   8.677  0.00  0.00    +0.000 C 
ATOM     27  C   UNL     1      46.067   1.279   7.946  0.00  0.00    +0.000 C 
ATOM     28  C   UNL     1      47.440   1.477   7.306  0.00  0.00    +0.000 C 
ATOM     29  C   UNL     1      47.486   2.705   6.404  0.00  0.00    +0.000 C 
ATOM     30  C   UNL     1      47.059   3.956   7.168  0.00  0.00    +0.000 C 
ATOM     31  C   UNL     1      45.679   3.801   7.806  0.00  0.00    +0.000 C 
BRANCH  29  32
ATOM     32  O   UNL     1      46.660   2.511   5.260  0.00  0.00    +0.000 OA
ATOM     33  H   UNL     1      47.011   1.768   4.739  0.00  0.00    +0.000 HD
ENDBRANCH  29  32
ENDBRANCH  24  26
ENDBRANCH  23  24
ENDBRANCH   5  23
TORSDOF 7
ENDMDL
MODEL 7
REMARK VINA RESULT:    -7.436      1.772      2.416
REMARK INTER + INTRA:         -11.316
REMARK INTER:                 -10.619
REMARK INTRA:                  -0.696
REMARK UNBOUND:                -1.055
REMARK  Name = 
REMARK  7 active torsions:
REMARK  status: ('A' for Active; 'I' for Inactive)
REMARK    1  A    between atoms: C_2  and  C_20
REMARK    2  A    between atoms: N_3  and  C_4
REMARK    3  A    between atoms: C_4  and  C_5
REMARK    4  A    between atoms: C_9  and  C_10
REMARK    5  A    between atoms: C_10  and  N_11
REMARK    6  A    between atoms: N_11  and  C_12
REMARK    7  A    between atoms: C_15  and  O_16
REMARK                            x       y       z     vdW  Elec       q    Type
REMARK                         _______ _______ _______ _____ _____    ______ ____
ROOT
ATOM      1  C   UNL     1      45.402   5.250  12.666  0.00  0.00    +0.000 A 
ATOM      2  C   UNL     1      44.226   5.961  12.919  0.00  0.00    +0.000 A 
ATOM      3  C   UNL     1      43.028   5.445  12.457  0.00  0.00    +0.000 A 
ATOM      4  N   UNL     1      42.921   4.285  11.776  0.00  0.00    +0.000 NA
ATOM      5  C   UNL     1      44.070   3.599  11.529  0.00  0.00    +0.000 A 
ATOM      6  C   UNL     1      45.314   4.039  11.973  0.00  0.00    +0.000 A 
ENDROOT
BRANCH   1   7
ATOM      7  C   UNL     1      46.723   5.752  13.179  0.00  0.00    +0.000 C 
BRANCH   7  10
ATOM      8  O   UNL     1      48.977   6.314  14.752  0.00  0.00    +0.000 OA
ATOM      9  C   UNL     1      48.100   5.590  15.213  0.00  0.00    +0.000 C 
ATOM     10  N   UNL     1      46.999   5.217  14.488  0.00  0.00    +0.000 N 
ATOM     11  H   UNL     1      46.219   4.780  14.967  0.00  0.00    +0.000 HD
BRANCH   9  12
ATOM     12  C   UNL     1      48.200   5.037  16.568  0.00  0.00    +0.000 A 
ATOM     13  C   UNL     1      48.162   3.661  16.754  0.00  0.00    +0.000 A 
ATOM     14  S   UNL     1      48.304   3.187  18.385  0.00  0.00    +0.000 S 
ATOM     15  C   UNL     1      48.462   4.802  18.895  0.00  0.00    +0.000 A 
ATOM     16  N   UNL     1      48.665   5.103  20.209  0.00  0.00    +0.000 NA
ATOM     17  C   UNL     1      48.814   6.360  20.450  0.00  0.00    +0.000 A 
ATOM     18  N   UNL     1      48.758   7.350  19.502  0.00  0.00    +0.000 N 
ATOM     19  C   UNL     1      48.472   7.101  18.180  0.00  0.00    +0.000 A 
ATOM     20  O   UNL     1      48.282   8.017  17.386  0.00  0.00    +0.000 OA
ATOM     21  C   UNL     1      48.365   5.696  17.843  0.00  0.00    +0.000 A 
ATOM     22  H   UNL     1      48.844   8.322  19.765  0.00  0.00    +0.000 HD
ENDBRANCH   9  12
ENDBRANCH   7  10
ENDBRANCH   1   7
BRANCH   5  23
ATOM     23  C   UNL     1      43.962   2.289  10.769  0.00  0.00    +0.000 C 
BRANCH  23  24
ATOM     24  N   UNL     1      44.106   2.410   9.307  0.00  0.00    +0.000 NA
ATOM     25  H   UNL     1      43.612   3.273   9.057  0.00  0.00    +0.000 HD
BRANCH  24  26
ATOM     26  C   UNL     1      45.497   2.548   8.840  0.00  0.00    +0.000 C 
ATOM     27  C   UNL     1      45.991   1.294   8.099  0.00  0.00    +0.000 C 
ATOM     28  C   UNL     1      47.338   1.509   7.408  0.00  0.00    +0.000 C 
ATOM     29  C   UNL     1      47.331   2.731   6.497  0.00  0.00    +0.000 C 
ATOM     30  C   UNL     1      46.913   3.981   7.268  0.00  0.00    +0.000 C 
ATOM     31  C   UNL     1      45.559   3.809   7.957  0.00  0.00    +0.000 C 
BRANCH  29  32
ATOM     32  O   UNL     1      46.467   2.516   5.385  0.00  0.00    +0.000 OA
ATOM     33  H   UNL     1      45.742   3.164   5.418  0.00  0.00    +0.000 HD
ENDBRANCH  29  32
ENDBRANCH  24  26
ENDBRANCH  23  24
ENDBRANCH   5  23
TORSDOF 7
ENDMDL
MODEL 8
REMARK VINA RESULT:    -7.209      4.070      8.990
REMARK INTER + INTRA:         -11.003
REMARK INTER:                  -9.681
REMARK INTRA:                  -1.321
REMARK UNBOUND:                -1.055
REMARK  Name = 
REMARK  7 active torsions:
REMARK  status: ('A' for Active; 'I' for Inactive)
REMARK    1  A    between atoms: C_2  and  C_20
REMARK    2  A    between atoms: N_3  and  C_4
REMARK    3  A    between atoms: C_4  and  C_5
REMARK    4  A    between atoms: C_9  and  C_10
REMARK    5  A    between atoms: C_10  and  N_11
REMARK    6  A    between atoms: N_11  and  C_12
REMARK    7  A    between atoms: C_15  and  O_16
REMARK                            x       y       z     vdW  Elec       q    Type
REMARK                         _______ _______ _______ _____ _____    ______ ____
ROOT
ATOM      1  C   UNL     1      48.631   3.474  17.130  0.00  0.00    +0.000 A 
ATOM      2  C   UNL     1      49.462   2.359  17.001  0.00  0.00    +0.000 A 
ATOM      3  C   UNL     1      50.796   2.483  17.347  0.00  0.00    +0.000 A 
ATOM      4  N   UNL     1      51.349   3.623  17.811  0.00  0.00    +0.000 NA
ATOM      5  C   UNL     1      50.536   4.707  17.931  0.00  0.00    +0.000 A 
ATOM      6  C   UNL     1      49.179   4.662  17.620  0.00  0.00    +0.000 A 
ENDROOT
BRANCH   1   7
ATOM      7  C   UNL     1      47.166   3.378  16.800  0.00  0.00    +0.000 C 
BRANCH   7  10
ATOM      8  O   UNL     1      47.246   3.123  14.008  0.00  0.00    +0.000 OA
ATOM      9  C   UNL     1      46.806   4.161  14.494  0.00  0.00    +0.000 C 
ATOM     10  N   UNL     1      46.791   4.389  15.846  0.00  0.00    +0.000 N 
ATOM     11  H   UNL     1      46.252   5.169  16.207  0.00  0.00    +0.000 HD
BRANCH   9  12
ATOM     12  C   UNL     1      46.307   5.250  13.648  0.00  0.00    +0.000 A 
ATOM     13  C   UNL     1      47.105   6.362  13.417  0.00  0.00    +0.000 A 
ATOM     14  S   UNL     1      46.381   7.526  12.404  0.00  0.00    +0.000 S 
ATOM     15  C   UNL     1      44.991   6.565  12.206  0.00  0.00    +0.000 A 
ATOM     16  N   UNL     1      43.971   6.969  11.399  0.00  0.00    +0.000 NA
ATOM     17  C   UNL     1      43.001   6.125  11.303  0.00  0.00    +0.000 A 
ATOM     18  N   UNL     1      42.945   4.921  11.957  0.00  0.00    +0.000 N 
ATOM     19  C   UNL     1      43.911   4.510  12.846  0.00  0.00    +0.000 A 
ATOM     20  O   UNL     1      43.762   3.499  13.526  0.00  0.00    +0.000 OA
ATOM     21  C   UNL     1      45.057   5.391  12.937  0.00  0.00    +0.000 A 
ATOM     22  H   UNL     1      42.136   4.322  11.869  0.00  0.00    +0.000 HD
ENDBRANCH   9  12
ENDBRANCH   7  10
ENDBRANCH   1   7
BRANCH   5  23
ATOM     23  C   UNL     1      51.146   5.994  18.458  0.00  0.00    +0.000 C 
BRANCH  23  24
ATOM     24  N   UNL     1      50.344   6.679  19.488  0.00  0.00    +0.000 NA
ATOM     25  H   UNL     1      50.982   6.821  20.278  0.00  0.00    +0.000 HD
BRANCH  24  26
ATOM     26  C   UNL     1      49.839   8.005  19.086  0.00  0.00    +0.000 C 
ATOM     27  C   UNL     1      50.390   8.450  17.721  0.00  0.00    +0.000 C 
ATOM     28  C   UNL     1      49.697   9.703  17.186  0.00  0.00    +0.000 C 
ATOM     29  C   UNL     1      48.179   9.557  17.157  0.00  0.00    +0.000 C 
ATOM     30  C   UNL     1      47.643   9.190  18.538  0.00  0.00    +0.000 C 
ATOM     31  C   UNL     1      48.300   7.928  19.097  0.00  0.00    +0.000 C 
BRANCH  29  32
ATOM     32  O   UNL     1      47.794   8.580  16.193  0.00  0.00    +0.000 OA
ATOM     33  H   UNL     1      48.594   8.153  15.839  0.00  0.00    +0.000 HD
ENDBRANCH  29  32
ENDBRANCH  24  26
ENDBRANCH  23  24
ENDBRANCH   5  23
TORSDOF 7
ENDMDL
MODEL 9
REMARK VINA RESULT:    -7.145      3.709      7.973
REMARK INTER + INTRA:         -10.915
REMARK INTER:                  -9.705
REMARK INTRA:                  -1.210
REMARK UNBOUND:                -1.055
REMARK  Name = 
REMARK  7 active torsions:
REMARK  status: ('A' for Active; 'I' for Inactive)
REMARK    1  A    between atoms: C_2  and  C_20
REMARK    2  A    between atoms: N_3  and  C_4
REMARK    3  A    between atoms: C_4  and  C_5
REMARK    4  A    between atoms: C_9  and  C_10
REMARK    5  A    between atoms: C_10  and  N_11
REMARK    6  A    between atoms: N_11  and  C_12
REMARK    7  A    between atoms: C_15  and  O_16
REMARK                            x       y       z     vdW  Elec       q    Type
REMARK                         _______ _______ _______ _____ _____    ______ ____
ROOT
ATOM      1  C   UNL     1      48.945   8.143  14.962  0.00  0.00    +0.000 A 
ATOM      2  C   UNL     1      48.267   9.264  15.445  0.00  0.00    +0.000 A 
ATOM      3  C   UNL     1      48.209   9.465  16.814  0.00  0.00    +0.000 A 
ATOM      4  N   UNL     1      48.776   8.640  17.719  0.00  0.00    +0.000 NA
ATOM      5  C   UNL     1      49.432   7.548  17.243  0.00  0.00    +0.000 A 
ATOM      6  C   UNL     1      49.551   7.282  15.881  0.00  0.00    +0.000 A 
ENDROOT
BRANCH   1   7
ATOM      7  C   UNL     1      49.065   7.902  13.482  0.00  0.00    +0.000 C 
BRANCH   7  10
ATOM      8  O   UNL     1      48.046   5.297  13.269  0.00  0.00    +0.000 OA
ATOM      9  C   UNL     1      47.345   6.238  12.908  0.00  0.00    +0.000 C 
ATOM     10  N   UNL     1      47.791   7.534  12.920  0.00  0.00    +0.000 N 
ATOM     11  H   UNL     1      47.122   8.286  12.793  0.00  0.00    +0.000 HD
BRANCH   9  12
ATOM     12  C   UNL     1      45.989   6.026  12.390  0.00  0.00    +0.000 A 
ATOM     13  C   UNL     1      45.281   7.096  11.857  0.00  0.00    +0.000 A 
ATOM     14  S   UNL     1      43.730   6.675  11.290  0.00  0.00    +0.000 S 
ATOM     15  C   UNL     1      43.966   5.041  11.700  0.00  0.00    +0.000 A 
ATOM     16  N   UNL     1      43.010   4.107  11.432  0.00  0.00    +0.000 NA
ATOM     17  C   UNL     1      43.337   2.903  11.752  0.00  0.00    +0.000 A 
ATOM     18  N   UNL     1      44.525   2.544  12.338  0.00  0.00    +0.000 N 
ATOM     19  C   UNL     1      45.482   3.462  12.704  0.00  0.00    +0.000 A 
ATOM     20  O   UNL     1      46.466   3.129  13.357  0.00  0.00    +0.000 OA
ATOM     21  C   UNL     1      45.194   4.823  12.303  0.00  0.00    +0.000 A 
ATOM     22  H   UNL     1      44.703   1.585  12.599  0.00  0.00    +0.000 HD
ENDBRANCH   9  12
ENDBRANCH   7  10
ENDBRANCH   1   7
BRANCH   5  23
ATOM     23  C   UNL     1      50.080   6.616  18.252  0.00  0.00    +0.000 C 
BRANCH  23  24
ATOM     24  N   UNL     1      49.138   5.951  19.170  0.00  0.00    +0.000 NA
ATOM     25  H   UNL     1      48.267   6.487  19.100  0.00  0.00    +0.000 HD
BRANCH  24  26
ATOM     26  C   UNL     1      48.825   4.554  18.817  0.00  0.00    +0.000 C 
ATOM     27  C   UNL     1      47.410   4.401  18.236  0.00  0.00    +0.000 C 
ATOM     28  C   UNL     1      47.159   3.012  17.650  0.00  0.00    +0.000 C 
ATOM     29  C   UNL     1      48.226   2.610  16.638  0.00  0.00    +0.000 C 
ATOM     30  C   UNL     1      49.620   2.693  17.257  0.00  0.00    +0.000 C 
ATOM     31  C   UNL     1      49.913   4.077  17.836  0.00  0.00    +0.000 C 
BRANCH  29  32
ATOM     32  O   UNL     1      48.143   3.431  15.477  0.00  0.00    +0.000 OA
ATOM     33  H   UNL     1      49.009   3.438  15.032  0.00  0.00    +0.000 HD
ENDBRANCH  29  32
ENDBRANCH  24  26
ENDBRANCH  23  24
ENDBRANCH   5  23
TORSDOF 7
ENDMDL
