MODEL 1
REMARK VINA RESULT:    -8.860      0.000      0.000
REMARK INTER + INTRA:         -12.216
REMARK INTER:                 -11.449
REMARK INTRA:                  -0.767
REMARK UNBOUND:                -0.767
REMARK  Name = 
REMARK  6 active torsions:
REMARK  status: ('A' for Active; 'I' for Inactive)
REMARK    1  A    between atoms: C_1  and  C_2
REMARK    2  A    between atoms: C_2  and  N_3
REMARK    3  A    between atoms: C_2  and  C_16
REMARK    4  A    between atoms: C_4  and  C_6
REMARK    5  A    between atoms: C_19  and  C_20
REMARK    6  A    between atoms: C_20  and  C_21
REMARK                            x       y       z     vdW  Elec       q    Type
REMARK                         _______ _______ _______ _____ _____    ______ ____
ROOT
ATOM      1  C   UNL     1      45.614   8.591  12.896  0.00  0.00    +0.000 C 
ATOM      2  C   UNL     1      46.713   7.523  12.823  0.00  0.00    +0.000 C 
ENDROOT
BRANCH   2   3
ATOM      3  C   UNL     1      46.211   6.377  11.959  0.00  0.00    +0.000 A 
ATOM      4  C   UNL     1      46.299   6.472  10.563  0.00  0.00    +0.000 A 
ATOM      5  C   UNL     1      45.750   5.478   9.749  0.00  0.00    +0.000 A 
ATOM      6  C   UNL     1      45.127   4.355  10.313  0.00  0.00    +0.000 A 
ATOM      7  C   UNL     1      45.055   4.249  11.705  0.00  0.00    +0.000 A 
ATOM      8  C   UNL     1      45.575   5.257  12.517  0.00  0.00    +0.000 A 
BRANCH   6   9
ATOM      9  C   UNL     1      44.515   3.276   9.449  0.00  0.00    +0.000 C 
BRANCH   9  10
ATOM     10  C   UNL     1      45.368   2.781   8.302  0.00  0.00    +0.000 A 
ATOM     11  C   UNL     1      46.016   1.549   8.385  0.00  0.00    +0.000 A 
ATOM     12  C   UNL     1      46.969   1.219   7.427  0.00  0.00    +0.000 A 
ATOM     13  C   UNL     1      47.236   2.111   6.398  0.00  0.00    +0.000 A 
ATOM     14  C   UNL     1      46.514   3.291   6.354  0.00  0.00    +0.000 A 
ATOM     15  N   UNL     1      45.596   3.647   7.281  0.00  0.00    +0.000 NA
ENDBRANCH   9  10
ENDBRANCH   6   9
ENDBRANCH   2   3
BRANCH   2  16
ATOM     16  N   UNL     1      47.124   7.045  14.132  0.00  0.00    +0.000 N 
ATOM     17  C   UNL     1      48.423   6.697  14.406  0.00  0.00    +0.000 C 
ATOM     18  O   UNL     1      49.322   6.788  13.579  0.00  0.00    +0.000 OA
ATOM     19  H   UNL     1      46.397   6.622  14.703  0.00  0.00    +0.000 HD
BRANCH  17  20
ATOM     20  C   UNL     1      48.707   6.257  15.773  0.00  0.00    +0.000 A 
ATOM     21  C   UNL     1      49.579   6.999  16.557  0.00  0.00    +0.000 A 
ATOM     22  S   UNL     1      49.848   6.326  18.099  0.00  0.00    +0.000 S 
ATOM     23  C   UNL     1      48.826   5.008  17.760  0.00  0.00    +0.000 A 
ATOM     24  N   UNL     1      48.660   3.999  18.658  0.00  0.00    +0.000 NA
ATOM     25  C   UNL     1      47.885   3.052  18.254  0.00  0.00    +0.000 A 
ATOM     26  N   UNL     1      47.235   3.029  17.045  0.00  0.00    +0.000 N 
ATOM     27  C   UNL     1      47.335   4.050  16.127  0.00  0.00    +0.000 A 
ATOM     28  O   UNL     1      46.682   4.047  15.092  0.00  0.00    +0.000 OA
ATOM     29  C   UNL     1      48.244   5.111  16.509  0.00  0.00    +0.000 A 
ATOM     30  H   UNL     1      46.615   2.272  16.806  0.00  0.00    +0.000 HD
ENDBRANCH  17  20
ENDBRANCH   2  16
TORSDOF 5
ENDMDL
MODEL 2
REMARK VINA RESULT:    -8.130      1.850      2.482
REMARK INTER + INTRA:         -11.273
REMARK INTER:                 -10.493
REMARK INTRA:                  -0.780
REMARK UNBOUND:                -0.767
REMARK  Name = 
REMARK  6 active torsions:
REMARK  status: ('A' for Active; 'I' for Inactive)
REMARK    1  A    between atoms: C_1  and  C_2
REMARK    2  A    between atoms: C_2  and  N_3
REMARK    3  A    between atoms: C_2  and  C_16
REMARK    4  A    between atoms: C_4  and  C_6
REMARK    5  A    between atoms: C_19  and  C_20
REMARK    6  A    between atoms: C_20  and  C_21
REMARK                            x       y       z     vdW  Elec       q    Type
REMARK                         _______ _______ _______ _____ _____    ______ ____
ROOT
ATOM      1  C   UNL     1      47.148   8.617  13.669  0.00  0.00    +0.000 C 
ATOM      2  C   UNL     1      47.607   7.155  13.609  0.00  0.00    +0.000 C 
ENDROOT
BRANCH   2   3
ATOM      3  C   UNL     1      46.693   6.403  12.654  0.00  0.00    +0.000 A 
ATOM      4  C   UNL     1      45.864   5.386  13.145  0.00  0.00    +0.000 A 
ATOM      5  C   UNL     1      45.096   4.614  12.271  0.00  0.00    +0.000 A 
ATOM      6  C   UNL     1      45.117   4.861  10.890  0.00  0.00    +0.000 A 
ATOM      7  C   UNL     1      45.929   5.889  10.400  0.00  0.00    +0.000 A 
ATOM      8  C   UNL     1      46.721   6.638  11.270  0.00  0.00    +0.000 A 
BRANCH   6   9
ATOM      9  C   UNL     1      44.303   4.029   9.927  0.00  0.00    +0.000 C 
BRANCH   9  10
ATOM     10  C   UNL     1      45.077   3.332   8.831  0.00  0.00    +0.000 A 
ATOM     11  C   UNL     1      45.422   1.988   8.955  0.00  0.00    +0.000 A 
ATOM     12  C   UNL     1      46.323   1.433   8.051  0.00  0.00    +0.000 A 
ATOM     13  C   UNL     1      46.838   2.223   7.033  0.00  0.00    +0.000 A 
ATOM     14  C   UNL     1      46.407   3.535   6.944  0.00  0.00    +0.000 A 
ATOM     15  N   UNL     1      45.548   4.107   7.818  0.00  0.00    +0.000 NA
ENDBRANCH   9  10
ENDBRANCH   6   9
ENDBRANCH   2   3
BRANCH   2  16
ATOM     16  N   UNL     1      47.631   6.517  14.915  0.00  0.00    +0.000 N 
ATOM     17  C   UNL     1      48.800   6.314  15.605  0.00  0.00    +0.000 C 
ATOM     18  O   UNL     1      49.891   6.677  15.183  0.00  0.00    +0.000 OA
ATOM     19  H   UNL     1      46.851   5.901  15.126  0.00  0.00    +0.000 HD
BRANCH  17  20
ATOM     20  C   UNL     1      48.679   5.686  16.922  0.00  0.00    +0.000 A 
ATOM     21  C   UNL     1      48.880   4.319  17.043  0.00  0.00    +0.000 A 
ATOM     22  S   UNL     1      48.646   3.733  18.626  0.00  0.00    +0.000 S 
ATOM     23  C   UNL     1      48.245   5.285  19.196  0.00  0.00    +0.000 A 
ATOM     24  N   UNL     1      47.867   5.482  20.489  0.00  0.00    +0.000 NA
ATOM     25  C   UNL     1      47.560   6.701  20.772  0.00  0.00    +0.000 A 
ATOM     26  N   UNL     1      47.622   7.753  19.892  0.00  0.00    +0.000 N 
ATOM     27  C   UNL     1      48.046   7.609  18.590  0.00  0.00    +0.000 A 
ATOM     28  O   UNL     1      48.171   8.573  17.847  0.00  0.00    +0.000 OA
ATOM     29  C   UNL     1      48.343   6.245  18.205  0.00  0.00    +0.000 A 
ATOM     30  H   UNL     1      47.400   8.689  20.189  0.00  0.00    +0.000 HD
ENDBRANCH  17  20
ENDBRANCH   2  16
TORSDOF 5
ENDMDL
MODEL 3
REMARK VINA RESULT:    -7.904      2.670      3.968
REMARK INTER + INTRA:         -10.980
REMARK INTER:                  -9.868
REMARK INTRA:                  -1.112
REMARK UNBOUND:                -0.767
REMARK  Name = 
REMARK  6 active torsions:
REMARK  status: ('A' for Active; 'I' for Inactive)
REMARK    1  A    between atoms: C_1  and  C_2
REMARK    2  A    between atoms: C_2  and  N_3
REMARK    3  A    between atoms: C_2  and  C_16
REMARK    4  A    between atoms: C_4  and  C_6
REMARK    5  A    between atoms: C_19  and  C_20
REMARK    6  A    between atoms: C_20  and  C_21
REMARK                            x       y       z     vdW  Elec       q    Type
REMARK                         _______ _______ _______ _____ _____    ______ ____
ROOT
ATOM      1  C   UNL     1      46.753   4.451  14.547  0.00  0.00    +0.000 C 
ATOM      2  C   UNL     1      46.491   5.668  13.651  0.00  0.00    +0.000 C 
ENDROOT
BRANCH   2   3
ATOM      3  C   UNL     1      45.907   5.178  12.335  0.00  0.00    +0.000 A 
ATOM      4  C   UNL     1      45.298   3.918  12.274  0.00  0.00    +0.000 A 
ATOM      5  C   UNL     1      44.850   3.405  11.054  0.00  0.00    +0.000 A 
ATOM      6  C   UNL     1      44.974   4.154   9.874  0.00  0.00    +0.000 A 
ATOM      7  C   UNL     1      45.564   5.420   9.936  0.00  0.00    +0.000 A 
ATOM      8  C   UNL     1      46.041   5.917  11.149  0.00  0.00    +0.000 A 
BRANCH   6   9
ATOM      9  C   UNL     1      44.507   3.611   8.544  0.00  0.00    +0.000 C 
BRANCH   9  10
ATOM     10  C   UNL     1      45.552   2.908   7.708  0.00  0.00    +0.000 A 
ATOM     11  C   UNL     1      46.072   1.679   8.115  0.00  0.00    +0.000 A 
ATOM     12  C   UNL     1      47.186   1.165   7.460  0.00  0.00    +0.000 A 
ATOM     13  C   UNL     1      47.741   1.873   6.403  0.00  0.00    +0.000 A 
ATOM     14  C   UNL     1      47.138   3.059   6.025  0.00  0.00    +0.000 A 
ATOM     15  N   UNL     1      46.066   3.593   6.653  0.00  0.00    +0.000 NA
ENDBRANCH   9  10
ENDBRANCH   6   9
ENDBRANCH   2   3
BRANCH   2  16
ATOM     16  N   UNL     1      47.681   6.470  13.424  0.00  0.00    +0.000 N 
ATOM     17  C   UNL     1      47.650   7.842  13.443  0.00  0.00    +0.000 C 
ATOM     18  O   UNL     1      46.630   8.479  13.675  0.00  0.00    +0.000 OA
ATOM     19  H   UNL     1      48.424   6.026  12.890  0.00  0.00    +0.000 HD
BRANCH  17  20
ATOM     20  C   UNL     1      48.927   8.526  13.227  0.00  0.00    +0.000 A 
ATOM     21  C   UNL     1      49.002   9.540  12.283  0.00  0.00    +0.000 A 
ATOM     22  S   UNL     1      50.566  10.195  12.111  0.00  0.00    +0.000 S 
ATOM     23  C   UNL     1      51.198   9.127  13.275  0.00  0.00    +0.000 A 
ATOM     24  N   UNL     1      52.527   9.113  13.567  0.00  0.00    +0.000 NA
ATOM     25  C   UNL     1      52.869   8.231  14.441  0.00  0.00    +0.000 A 
ATOM     26  N   UNL     1      52.003   7.376  15.076  0.00  0.00    +0.000 N 
ATOM     27  C   UNL     1      50.645   7.388  14.849  0.00  0.00    +0.000 A 
ATOM     28  O   UNL     1      49.883   6.674  15.486  0.00  0.00    +0.000 OA
ATOM     29  C   UNL     1      50.219   8.322  13.827  0.00  0.00    +0.000 A 
ATOM     30  H   UNL     1      52.333   6.732  15.777  0.00  0.00    +0.000 HD
ENDBRANCH  17  20
ENDBRANCH   2  16
TORSDOF 5
ENDMDL
MODEL 4
REMARK VINA RESULT:    -7.707      1.602      2.197
REMARK INTER + INTRA:         -10.726
REMARK INTER:                  -9.709
REMARK INTRA:                  -1.017
REMARK UNBOUND:                -0.767
REMARK  Name = 
REMARK  6 active torsions:
REMARK  status: ('A' for Active; 'I' for Inactive)
REMARK    1  A    between atoms: C_1  and  C_2
REMARK    2  A    between atoms: C_2  and  N_3
REMARK    3  A    between atoms: C_2  and  C_16
REMARK    4  A    between atoms: C_4  and  C_6
REMARK    5  A    between atoms: C_19  and  C_20
REMARK    6  A    between atoms: C_20  and  C_21
REMARK                            x       y       z     vdW  Elec       q    Type
REMARK                         _______ _______ _______ _____ _____    ______ ____
ROOT
ATOM      1  C   UNL     1      48.277   9.055  13.330  0.00  0.00    +0.000 C 
ATOM      2  C   UNL     1      48.258   7.580  13.748  0.00  0.00    +0.000 C 
ENDROOT
BRANCH   2   3
ATOM      3  C   UNL     1      47.174   6.870  12.952  0.00  0.00    +0.000 A 
ATOM      4  C   UNL     1      46.947   5.503  13.157  0.00  0.00    +0.000 A 
ATOM      5  C   UNL     1      46.030   4.809  12.364  0.00  0.00    +0.000 A 
ATOM      6  C   UNL     1      45.298   5.475  11.368  0.00  0.00    +0.000 A 
ATOM      7  C   UNL     1      45.509   6.843  11.175  0.00  0.00    +0.000 A 
ATOM      8  C   UNL     1      46.449   7.528  11.946  0.00  0.00    +0.000 A 
BRANCH   6   9
ATOM      9  C   UNL     1      44.311   4.739  10.492  0.00  0.00    +0.000 C 
BRANCH   9  10
ATOM     10  C   UNL     1      44.904   3.889   9.391  0.00  0.00    +0.000 A 
ATOM     11  C   UNL     1      44.900   2.499   9.493  0.00  0.00    +0.000 A 
ATOM     12  C   UNL     1      45.648   1.751   8.588  0.00  0.00    +0.000 A 
ATOM     13  C   UNL     1      46.360   2.403   7.592  0.00  0.00    +0.000 A 
ATOM     14  C   UNL     1      46.272   3.783   7.523  0.00  0.00    +0.000 A 
ATOM     15  N   UNL     1      45.570   4.537   8.399  0.00  0.00    +0.000 NA
ENDBRANCH   9  10
ENDBRANCH   6   9
ENDBRANCH   2   3
BRANCH   2  16
ATOM     16  N   UNL     1      48.056   7.400  15.176  0.00  0.00    +0.000 N 
ATOM     17  C   UNL     1      49.086   7.075  16.022  0.00  0.00    +0.000 C 
ATOM     18  O   UNL     1      50.241   6.940  15.639  0.00  0.00    +0.000 OA
ATOM     19  H   UNL     1      47.115   7.147  15.466  0.00  0.00    +0.000 HD
BRANCH  17  20
ATOM     20  C   UNL     1      48.750   6.952  17.442  0.00  0.00    +0.000 A 
ATOM     21  C   UNL     1      48.404   8.088  18.159  0.00  0.00    +0.000 A 
ATOM     22  S   UNL     1      48.098   7.787  19.808  0.00  0.00    +0.000 S 
ATOM     23  C   UNL     1      48.442   6.130  19.621  0.00  0.00    +0.000 A 
ATOM     24  N   UNL     1      48.429   5.287  20.689  0.00  0.00    +0.000 NA
ATOM     25  C   UNL     1      48.741   4.069  20.407  0.00  0.00    +0.000 A 
ATOM     26  N   UNL     1      49.039   3.605  19.150  0.00  0.00    +0.000 N 
ATOM     27  C   UNL     1      49.016   4.411  18.034  0.00  0.00    +0.000 A 
ATOM     28  O   UNL     1      49.204   3.958  16.913  0.00  0.00    +0.000 OA
ATOM     29  C   UNL     1      48.731   5.804  18.309  0.00  0.00    +0.000 A 
ATOM     30  H   UNL     1      49.242   2.631  18.993  0.00  0.00    +0.000 HD
ENDBRANCH  17  20
ENDBRANCH   2  16
TORSDOF 5
ENDMDL
MODEL 5
REMARK VINA RESULT:    -7.697      2.758      4.504
REMARK INTER + INTRA:         -10.713
REMARK INTER:                  -9.475
REMARK INTRA:                  -1.239
REMARK UNBOUND:                -0.767
REMARK  Name = 
REMARK  6 active torsions:
REMARK  status: ('A' for Active; 'I' for Inactive)
REMARK    1  A    between atoms: C_1  and  C_2
REMARK    2  A    between atoms: C_2  and  N_3
REMARK    3  A    between atoms: C_2  and  C_16
REMARK    4  A    between atoms: C_4  and  C_6
REMARK    5  A    between atoms: C_19  and  C_20
REMARK    6  A    between atoms: C_20  and  C_21
REMARK                            x       y       z     vdW  Elec       q    Type
REMARK                         _______ _______ _______ _____ _____    ______ ____
ROOT
ATOM      1  C   UNL     1      47.203   4.598  15.130  0.00  0.00    +0.000 C 
ATOM      2  C   UNL     1      47.109   5.836  14.229  0.00  0.00    +0.000 C 
ENDROOT
BRANCH   2   3
ATOM      3  C   UNL     1      46.358   5.452  12.964  0.00  0.00    +0.000 A 
ATOM      4  C   UNL     1      45.586   4.283  12.944  0.00  0.00    +0.000 A 
ATOM      5  C   UNL     1      44.974   3.858  11.763  0.00  0.00    +0.000 A 
ATOM      6  C   UNL     1      45.097   4.607  10.583  0.00  0.00    +0.000 A 
ATOM      7  C   UNL     1      45.850   5.784  10.606  0.00  0.00    +0.000 A 
ATOM      8  C   UNL     1      46.489   6.191  11.777  0.00  0.00    +0.000 A 
BRANCH   6   9
ATOM      9  C   UNL     1      44.452   4.156   9.293  0.00  0.00    +0.000 C 
BRANCH   9  10
ATOM     10  C   UNL     1      45.310   3.306   8.383  0.00  0.00    +0.000 A 
ATOM     11  C   UNL     1      45.559   1.970   8.693  0.00  0.00    +0.000 A 
ATOM     12  C   UNL     1      46.528   1.277   7.974  0.00  0.00    +0.000 A 
ATOM     13  C   UNL     1      47.206   1.922   6.950  0.00  0.00    +0.000 A 
ATOM     14  C   UNL     1      46.866   3.233   6.667  0.00  0.00    +0.000 A 
ATOM     15  N   UNL     1      45.944   3.939   7.360  0.00  0.00    +0.000 NA
ENDBRANCH   9  10
ENDBRANCH   6   9
ENDBRANCH   2   3
BRANCH   2  16
ATOM     16  N   UNL     1      48.409   6.402  13.911  0.00  0.00    +0.000 N 
ATOM     17  C   UNL     1      48.969   7.409  14.657  0.00  0.00    +0.000 C 
ATOM     18  O   UNL     1      48.426   7.877  15.650  0.00  0.00    +0.000 OA
ATOM     19  H   UNL     1      48.710   6.315  12.943  0.00  0.00    +0.000 HD
BRANCH  17  20
ATOM     20  C   UNL     1      50.296   7.868  14.242  0.00  0.00    +0.000 A 
ATOM     21  C   UNL     1      51.365   7.728  15.115  0.00  0.00    +0.000 A 
ATOM     22  S   UNL     1      52.826   8.363  14.509  0.00  0.00    +0.000 S 
ATOM     23  C   UNL     1      52.070   8.866  13.070  0.00  0.00    +0.000 A 
ATOM     24  N   UNL     1      52.759   9.554  12.119  0.00  0.00    +0.000 NA
ATOM     25  C   UNL     1      52.052   9.901  11.099  0.00  0.00    +0.000 A 
ATOM     26  N   UNL     1      50.724   9.602  10.923  0.00  0.00    +0.000 N 
ATOM     27  C   UNL     1      50.000   8.867  11.835  0.00  0.00    +0.000 A 
ATOM     28  O   UNL     1      48.841   8.541  11.620  0.00  0.00    +0.000 OA
ATOM     29  C   UNL     1      50.736   8.506  13.030  0.00  0.00    +0.000 A 
ATOM     30  H   UNL     1      50.239   9.875  10.084  0.00  0.00    +0.000 HD
ENDBRANCH  17  20
ENDBRANCH   2  16
TORSDOF 5
ENDMDL
MODEL 6
REMARK VINA RESULT:    -7.461      3.286      7.983
REMARK INTER + INTRA:         -10.409
REMARK INTER:                  -9.225
REMARK INTRA:                  -1.183
REMARK UNBOUND:                -0.767
REMARK  Name = 
REMARK  6 active torsions:
REMARK  status: ('A' for Active; 'I' for Inactive)
REMARK    1  A    between atoms: C_1  and  C_2
REMARK    2  A    between atoms: C_2  and  N_3
REMARK    3  A    between atoms: C_2  and  C_16
REMARK    4  A    between atoms: C_4  and  C_6
REMARK    5  A    between atoms: C_19  and  C_20
REMARK    6  A    between atoms: C_20  and  C_21
REMARK                            x       y       z     vdW  Elec       q    Type
REMARK                         _______ _______ _______ _____ _____    ______ ____
ROOT
ATOM      1  C   UNL     1      49.394   8.150  12.721  0.00  0.00    +0.000 C 
ATOM      2  C   UNL     1      48.228   7.509  13.484  0.00  0.00    +0.000 C 
ENDROOT
BRANCH   2   3
ATOM      3  C   UNL     1      48.773   6.894  14.763  0.00  0.00    +0.000 A 
ATOM      4  C   UNL     1      50.055   7.242  15.208  0.00  0.00    +0.000 A 
ATOM      5  C   UNL     1      50.616   6.611  16.321  0.00  0.00    +0.000 A 
ATOM      6  C   UNL     1      49.895   5.638  17.031  0.00  0.00    +0.000 A 
ATOM      7  C   UNL     1      48.608   5.303  16.600  0.00  0.00    +0.000 A 
ATOM      8  C   UNL     1      48.062   5.910  15.469  0.00  0.00    +0.000 A 
BRANCH   6   9
ATOM      9  C   UNL     1      50.489   4.935  18.229  0.00  0.00    +0.000 C 
BRANCH   9  10
ATOM     10  C   UNL     1      51.293   3.688  17.937  0.00  0.00    +0.000 A 
ATOM     11  C   UNL     1      50.667   2.545  17.441  0.00  0.00    +0.000 A 
ATOM     12  C   UNL     1      51.377   1.349  17.397  0.00  0.00    +0.000 A 
ATOM     13  C   UNL     1      52.697   1.326  17.825  0.00  0.00    +0.000 A 
ATOM     14  C   UNL     1      53.264   2.512  18.255  0.00  0.00    +0.000 A 
ATOM     15  N   UNL     1      52.594   3.685  18.327  0.00  0.00    +0.000 NA
ENDBRANCH   9  10
ENDBRANCH   6   9
ENDBRANCH   2   3
BRANCH   2  16
ATOM     16  N   UNL     1      47.512   6.521  12.696  0.00  0.00    +0.000 N 
ATOM     17  C   UNL     1      46.447   6.857  11.899  0.00  0.00    +0.000 C 
ATOM     18  O   UNL     1      46.046   8.008  11.779  0.00  0.00    +0.000 OA
ATOM     19  H   UNL     1      47.562   5.561  13.029  0.00  0.00    +0.000 HD
BRANCH  17  20
ATOM     20  C   UNL     1      45.834   5.767  11.136  0.00  0.00    +0.000 A 
ATOM     21  C   UNL     1      45.948   5.759   9.754  0.00  0.00    +0.000 A 
ATOM     22  S   UNL     1      45.133   4.461   9.010  0.00  0.00    +0.000 S 
ATOM     23  C   UNL     1      44.580   3.881  10.512  0.00  0.00    +0.000 A 
ATOM     24  N   UNL     1      43.754   2.802  10.587  0.00  0.00    +0.000 NA
ATOM     25  C   UNL     1      43.388   2.496  11.784  0.00  0.00    +0.000 A 
ATOM     26  N   UNL     1      43.793   3.150  12.921  0.00  0.00    +0.000 N 
ATOM     27  C   UNL     1      44.666   4.214  12.897  0.00  0.00    +0.000 A 
ATOM     28  O   UNL     1      45.078   4.728  13.928  0.00  0.00    +0.000 OA
ATOM     29  C   UNL     1      45.058   4.635  11.568  0.00  0.00    +0.000 A 
ATOM     30  H   UNL     1      43.495   2.836  13.831  0.00  0.00    +0.000 HD
ENDBRANCH  17  20
ENDBRANCH   2  16
TORSDOF 5
ENDMDL
MODEL 7
REMARK VINA RESULT:    -7.138      3.021      8.243
REMARK INTER + INTRA:          -9.991
REMARK INTER:                  -9.363
REMARK INTRA:                  -0.628
REMARK UNBOUND:                -0.767
REMARK  Name = 
REMARK  6 active torsions:
REMARK  status: ('A' for Active; 'I' for Inactive)
REMARK    1  A    between atoms: C_1  and  C_2
REMARK    2  A    between atoms: C_2  and  N_3
REMARK    3  A    between atoms: C_2  and  C_16
REMARK    4  A    between atoms: C_4  and  C_6
REMARK    5  A    between atoms: C_19  and  C_20
REMARK    6  A    between atoms: C_20  and  C_21
REMARK                            x       y       z     vdW  Elec       q    Type
REMARK                         _______ _______ _______ _____ _____    ______ ____
ROOT
ATOM      1  C   UNL     1      48.781   7.508  12.152  0.00  0.00    +0.000 C 
ATOM      2  C   UNL     1      47.719   7.036  13.153  0.00  0.00    +0.000 C 
ENDROOT
BRANCH   2   3
ATOM      3  C   UNL     1      48.417   6.656  14.450  0.00  0.00    +0.000 A 
ATOM      4  C   UNL     1      49.708   7.135  14.707  0.00  0.00    +0.000 A 
ATOM      5  C   UNL     1      50.408   6.714  15.841  0.00  0.00    +0.000 A 
ATOM      6  C   UNL     1      49.820   5.828  16.756  0.00  0.00    +0.000 A 
ATOM      7  C   UNL     1      48.525   5.364  16.511  0.00  0.00    +0.000 A 
ATOM      8  C   UNL     1      47.840   5.759  15.362  0.00  0.00    +0.000 A 
BRANCH   6   9
ATOM      9  C   UNL     1      50.566   5.351  17.981  0.00  0.00    +0.000 C 
BRANCH   9  10
ATOM     10  C   UNL     1      51.028   3.912  17.960  0.00  0.00    +0.000 A 
ATOM     11  C   UNL     1      52.312   3.576  18.386  0.00  0.00    +0.000 A 
ATOM     12  C   UNL     1      52.791   2.292  18.146  0.00  0.00    +0.000 A 
ATOM     13  C   UNL     1      51.974   1.369  17.509  0.00  0.00    +0.000 A 
ATOM     14  C   UNL     1      50.693   1.761  17.164  0.00  0.00    +0.000 A 
ATOM     15  N   UNL     1      50.206   3.006  17.367  0.00  0.00    +0.000 NA
ENDBRANCH   9  10
ENDBRANCH   6   9
ENDBRANCH   2   3
BRANCH   2  16
ATOM     16  N   UNL     1      46.920   5.932  12.650  0.00  0.00    +0.000 N 
ATOM     17  C   UNL     1      45.601   6.085  12.303  0.00  0.00    +0.000 C 
ATOM     18  O   UNL     1      45.019   7.160  12.370  0.00  0.00    +0.000 OA
ATOM     19  H   UNL     1      47.229   4.999  12.915  0.00  0.00    +0.000 HD
BRANCH  17  20
ATOM     20  C   UNL     1      44.921   4.896  11.784  0.00  0.00    +0.000 A 
ATOM     21  C   UNL     1      44.154   4.124  12.643  0.00  0.00    +0.000 A 
ATOM     22  S   UNL     1      43.477   2.747  11.901  0.00  0.00    +0.000 S 
ATOM     23  C   UNL     1      44.209   3.127  10.413  0.00  0.00    +0.000 A 
ATOM     24  N   UNL     1      44.085   2.300   9.339  0.00  0.00    +0.000 NA
ATOM     25  C   UNL     1      44.719   2.695   8.289  0.00  0.00    +0.000 A 
ATOM     26  N   UNL     1      45.445   3.857   8.200  0.00  0.00    +0.000 N 
ATOM     27  C   UNL     1      45.557   4.746   9.244  0.00  0.00    +0.000 A 
ATOM     28  O   UNL     1      46.141   5.814   9.116  0.00  0.00    +0.000 OA
ATOM     29  C   UNL     1      44.912   4.316  10.467  0.00  0.00    +0.000 A 
ATOM     30  H   UNL     1      45.889   4.124   7.336  0.00  0.00    +0.000 HD
ENDBRANCH  17  20
ENDBRANCH   2  16
TORSDOF 5
ENDMDL
MODEL 8
REMARK VINA RESULT:    -7.134      2.940      8.691
REMARK INTER + INTRA:          -9.986
REMARK INTER:                  -8.823
REMARK INTRA:                  -1.163
REMARK UNBOUND:                -0.767
REMARK  Name = 
REMARK  6 active torsions:
REMARK  status: ('A' for Active; 'I' for Inactive)
REMARK    1  A    between atoms: C_1  and  C_2
REMARK    2  A    between atoms: C_2  and  N_3
REMARK    3  A    between atoms: C_2  and  C_16
REMARK    4  A    between atoms: C_4  and  C_6
REMARK    5  A    between atoms: C_19  and  C_20
REMARK    6  A    between atoms: C_20  and  C_21
REMARK                            x       y       z     vdW  Elec       q    Type
REMARK                         _______ _______ _______ _____ _____    ______ ____
ROOT
ATOM      1  C   UNL     1      49.023   7.640  11.392  0.00  0.00    +0.000 C 
ATOM      2  C   UNL     1      47.695   7.603  12.158  0.00  0.00    +0.000 C 
ENDROOT
BRANCH   2   3
ATOM      3  C   UNL     1      47.994   7.730  13.644  0.00  0.00    +0.000 A 
ATOM      4  C   UNL     1      47.935   8.988  14.257  0.00  0.00    +0.000 A 
ATOM      5  C   UNL     1      48.308   9.144  15.594  0.00  0.00    +0.000 A 
ATOM      6  C   UNL     1      48.721   8.039  16.355  0.00  0.00    +0.000 A 
ATOM      7  C   UNL     1      48.763   6.780  15.750  0.00  0.00    +0.000 A 
ATOM      8  C   UNL     1      48.421   6.631  14.406  0.00  0.00    +0.000 A 
BRANCH   6   9
ATOM      9  C   UNL     1      49.141   8.190  17.799  0.00  0.00    +0.000 C 
BRANCH   9  10
ATOM     10  C   UNL     1      48.808   7.031  18.712  0.00  0.00    +0.000 A 
ATOM     11  C   UNL     1      47.551   6.941  19.308  0.00  0.00    +0.000 A 
ATOM     12  C   UNL     1      47.345   6.002  20.314  0.00  0.00    +0.000 A 
ATOM     13  C   UNL     1      48.385   5.162  20.684  0.00  0.00    +0.000 A 
ATOM     14  C   UNL     1      49.588   5.277  20.010  0.00  0.00    +0.000 A 
ATOM     15  N   UNL     1      49.824   6.191  19.042  0.00  0.00    +0.000 NA
ENDBRANCH   9  10
ENDBRANCH   6   9
ENDBRANCH   2   3
BRANCH   2  16
ATOM     16  N   UNL     1      46.919   6.405  11.886  0.00  0.00    +0.000 N 
ATOM     17  C   UNL     1      45.546   6.408  11.889  0.00  0.00    +0.000 C 
ATOM     18  O   UNL     1      44.887   7.420  12.095  0.00  0.00    +0.000 OA
ATOM     19  H   UNL     1      47.384   5.519  12.069  0.00  0.00    +0.000 HD
BRANCH  17  20
ATOM     20  C   UNL     1      44.889   5.139  11.571  0.00  0.00    +0.000 A 
ATOM     21  C   UNL     1      44.116   4.514  12.539  0.00  0.00    +0.000 A 
ATOM     22  S   UNL     1      43.469   3.021  12.034  0.00  0.00    +0.000 S 
ATOM     23  C   UNL     1      44.222   3.151  10.513  0.00  0.00    +0.000 A 
ATOM     24  N   UNL     1      44.127   2.150   9.595  0.00  0.00    +0.000 NA
ATOM     25  C   UNL     1      44.774   2.369   8.503  0.00  0.00    +0.000 A 
ATOM     26  N   UNL     1      45.488   3.509   8.227  0.00  0.00    +0.000 N 
ATOM     27  C   UNL     1      45.571   4.566   9.105  0.00  0.00    +0.000 A 
ATOM     28  O   UNL     1      46.144   5.604   8.804  0.00  0.00    +0.000 OA
ATOM     29  C   UNL     1      44.910   4.342  10.373  0.00  0.00    +0.000 A 
ATOM     30  H   UNL     1      45.944   3.630   7.337  0.00  0.00    +0.000 HD
ENDBRANCH  17  20
ENDBRANCH   2  16
TORSDOF 5
ENDMDL
MODEL 9
REMARK VINA RESULT:    -6.914      3.636      5.532
REMARK INTER + INTRA:          -9.701
REMARK INTER:                  -8.536
REMARK INTRA:                  -1.165
REMARK UNBOUND:                -0.767
REMARK  Name = 
REMARK  6 active torsions:
REMARK  status: ('A' for Active; 'I' for Inactive)
REMARK    1  A    between atoms: C_1  and  C_2
REMARK    2  A    between atoms: C_2  and  N_3
REMARK    3  A    between atoms: C_2  and  C_16
REMARK    4  A    between atoms: C_4  and  C_6
REMARK    5  A    between atoms: C_19  and  C_20
REMARK    6  A    between atoms: C_20  and  C_21
REMARK                            x       y       z     vdW  Elec       q    Type
REMARK                         _______ _______ _______ _____ _____    ______ ____
ROOT
ATOM      1  C   UNL     1      47.539   3.046  17.583  0.00  0.00    +0.000 C 
ATOM      2  C   UNL     1      48.422   4.275  17.334  0.00  0.00    +0.000 C 
ENDROOT
BRANCH   2   3
ATOM      3  C   UNL     1      47.994   4.916  16.023  0.00  0.00    +0.000 A 
ATOM      4  C   UNL     1      47.097   4.242  15.184  0.00  0.00    +0.000 A 
ATOM      5  C   UNL     1      46.772   4.763  13.929  0.00  0.00    +0.000 A 
ATOM      6  C   UNL     1      47.315   5.983  13.499  0.00  0.00    +0.000 A 
ATOM      7  C   UNL     1      48.195   6.667  14.343  0.00  0.00    +0.000 A 
ATOM      8  C   UNL     1      48.544   6.130  15.582  0.00  0.00    +0.000 A 
BRANCH   6   9
ATOM      9  C   UNL     1      46.985   6.557  12.140  0.00  0.00    +0.000 C 
BRANCH   9  10
ATOM     10  C   UNL     1      45.681   6.101  11.524  0.00  0.00    +0.000 A 
ATOM     11  C   UNL     1      44.464   6.526  12.055  0.00  0.00    +0.000 A 
ATOM     12  C   UNL     1      43.288   5.919  11.624  0.00  0.00    +0.000 A 
ATOM     13  C   UNL     1      43.351   4.924  10.659  0.00  0.00    +0.000 A 
ATOM     14  C   UNL     1      44.591   4.594  10.142  0.00  0.00    +0.000 A 
ATOM     15  N   UNL     1      45.752   5.152  10.555  0.00  0.00    +0.000 NA
ENDBRANCH   9  10
ENDBRANCH   6   9
ENDBRANCH   2   3
BRANCH   2  16
ATOM     16  N   UNL     1      49.840   3.959  17.319  0.00  0.00    +0.000 N 
ATOM     17  C   UNL     1      50.646   4.170  18.410  0.00  0.00    +0.000 C 
ATOM     18  O   UNL     1      50.223   4.613  19.470  0.00  0.00    +0.000 OA
ATOM     19  H   UNL     1      50.285   3.944  16.405  0.00  0.00    +0.000 HD
BRANCH  17  20
ATOM     20  C   UNL     1      52.050   3.781  18.268  0.00  0.00    +0.000 A 
ATOM     21  C   UNL     1      53.042   4.715  18.524  0.00  0.00    +0.000 A 
ATOM     22  S   UNL     1      54.619   4.125  18.259  0.00  0.00    +0.000 S 
ATOM     23  C   UNL     1      54.024   2.608  17.770  0.00  0.00    +0.000 A 
ATOM     24  N   UNL     1      54.866   1.630  17.337  0.00  0.00    +0.000 NA
ATOM     25  C   UNL     1      54.275   0.547  16.967  0.00  0.00    +0.000 A 
ATOM     26  N   UNL     1      52.919   0.334  17.014  0.00  0.00    +0.000 N 
ATOM     27  C   UNL     1      52.035   1.276  17.491  0.00  0.00    +0.000 A 
ATOM     28  O   UNL     1      50.841   1.035  17.602  0.00  0.00    +0.000 OA
ATOM     29  C   UNL     1      52.646   2.535  17.862  0.00  0.00    +0.000 A 
ATOM     30  H   UNL     1      52.525  -0.551  16.741  0.00  0.00    +0.000 HD
ENDBRANCH  17  20
ENDBRANCH   2  16
TORSDOF 5
ENDMDL
