MODEL 1
REMARK VINA RESULT:    -7.375      0.000      0.000
REMARK INTER + INTRA:         -10.005
REMARK INTER:                  -9.315
REMARK INTRA:                  -0.690
REMARK UNBOUND:                -0.690
REMARK  Name = 
REMARK  5 active torsions:
REMARK  status: ('A' for Active; 'I' for Inactive)
REMARK    1  A    between atoms: N_1  and  C_2
REMARK    2  A    between atoms: C_2  and  C_3
REMARK    3  A    between atoms: C_6  and  O_7
REMARK    4  A    between atoms: O_7  and  C_8
REMARK    5  A    between atoms: C_8  and  C_9
REMARK                            x       y       z     vdW  Elec       q    Type
REMARK                         _______ _______ _______ _____ _____    ______ ____
ROOT
ATOM      1  C   UNL     1      46.578   2.222   7.609  0.00  0.00    +0.000 A 
ATOM      2  C   UNL     1      45.756   1.406   8.400  0.00  0.00    +0.000 A 
ATOM      3  C   UNL     1      44.735   1.963   9.175  0.00  0.00    +0.000 A 
ATOM      4  C   UNL     1      44.534   3.343   9.181  0.00  0.00    +0.000 A 
ATOM      5  C   UNL     1      45.305   4.153   8.347  0.00  0.00    +0.000 A 
ATOM      6  C   UNL     1      46.328   3.599   7.577  0.00  0.00    +0.000 A 
ENDROOT
BRANCH   1   7
ATOM      7  C   UNL     1      47.728   1.643   6.827  0.00  0.00    +0.000 C 
BRANCH   7   8
ATOM      8  N   UNL     1      48.611   2.683   6.317  0.00  0.00    +0.000 NA
ATOM      9  H   UNL     1      49.255   2.267   5.648  0.00  0.00    +0.000 HD
ATOM     10  H   UNL     1      49.179   3.034   7.085  0.00  0.00    +0.000 HD
ENDBRANCH   7   8
ENDBRANCH   1   7
BRANCH   4  11
ATOM     11  O   UNL     1      43.569   3.803  10.037  0.00  0.00    +0.000 OA
BRANCH  11  12
ATOM     12  C   UNL     1      43.655   3.278  11.363  0.00  0.00    +0.000 C 
BRANCH  12  13
ATOM     13  C   UNL     1      44.700   4.031  12.145  0.00  0.00    +0.000 A 
ATOM     14  C   UNL     1      45.758   3.340  12.755  0.00  0.00    +0.000 A 
ATOM     15  C   UNL     1      46.769   4.033  13.420  0.00  0.00    +0.000 A 
ATOM     16  C   UNL     1      46.733   5.426  13.480  0.00  0.00    +0.000 A 
ATOM     17  C   UNL     1      45.685   6.119  12.878  0.00  0.00    +0.000 A 
ATOM     18 CL   UNL     1      45.650   7.837  12.938  0.00  0.00    +0.000 Cl
ATOM     19  C   UNL     1      44.672   5.431  12.209  0.00  0.00    +0.000 A 
ENDBRANCH  12  13
ENDBRANCH  11  12
ENDBRANCH   4  11
TORSDOF 5
ENDMDL
MODEL 2
REMARK VINA RESULT:    -7.168      1.625      1.944
REMARK INTER + INTRA:          -9.744
REMARK INTER:                  -9.227
REMARK INTRA:                  -0.517
REMARK UNBOUND:                -0.690
REMARK  Name = 
REMARK  5 active torsions:
REMARK  status: ('A' for Active; 'I' for Inactive)
REMARK    1  A    between atoms: N_1  and  C_2
REMARK    2  A    between atoms: C_2  and  C_3
REMARK    3  A    between atoms: C_6  and  O_7
REMARK    4  A    between atoms: O_7  and  C_8
REMARK    5  A    between atoms: C_8  and  C_9
REMARK                            x       y       z     vdW  Elec       q    Type
REMARK                         _______ _______ _______ _____ _____    ______ ____
ROOT
ATOM      1  C   UNL     1      46.233   1.965   7.910  0.00  0.00    +0.000 A 
ATOM      2  C   UNL     1      45.255   1.549   8.826  0.00  0.00    +0.000 A 
ATOM      3  C   UNL     1      44.400   2.479   9.423  0.00  0.00    +0.000 A 
ATOM      4  C   UNL     1      44.522   3.835   9.125  0.00  0.00    +0.000 A 
ATOM      5  C   UNL     1      45.448   4.248   8.167  0.00  0.00    +0.000 A 
ATOM      6  C   UNL     1      46.306   3.322   7.574  0.00  0.00    +0.000 A 
ENDROOT
BRANCH   1   7
ATOM      7  C   UNL     1      47.209   0.985   7.315  0.00  0.00    +0.000 C 
BRANCH   7   8
ATOM      8  N   UNL     1      46.893  -0.387   7.689  0.00  0.00    +0.000 NA
ATOM      9  H   UNL     1      46.732  -0.424   8.694  0.00  0.00    +0.000 HD
ATOM     10  H   UNL     1      47.706  -0.971   7.506  0.00  0.00    +0.000 HD
ENDBRANCH   7   8
ENDBRANCH   1   7
BRANCH   4  11
ATOM     11  O   UNL     1      43.699   4.677   9.825  0.00  0.00    +0.000 OA
BRANCH  11  12
ATOM     12  C   UNL     1      43.657   4.431  11.232  0.00  0.00    +0.000 C 
BRANCH  12  13
ATOM     13  C   UNL     1      44.884   5.008  11.890  0.00  0.00    +0.000 A 
ATOM     14  C   UNL     1      45.479   6.170  11.376  0.00  0.00    +0.000 A 
ATOM     15  C   UNL     1      46.572   6.752  12.019  0.00  0.00    +0.000 A 
ATOM     16  C   UNL     1      47.077   6.178  13.186  0.00  0.00    +0.000 A 
ATOM     17  C   UNL     1      46.492   5.024  13.702  0.00  0.00    +0.000 A 
ATOM     18 CL   UNL     1      47.105   4.326  15.149  0.00  0.00    +0.000 Cl
ATOM     19  C   UNL     1      45.398   4.439  13.063  0.00  0.00    +0.000 A 
ENDBRANCH  12  13
ENDBRANCH  11  12
ENDBRANCH   4  11
TORSDOF 5
ENDMDL
MODEL 3
REMARK VINA RESULT:    -6.826      3.399      6.085
REMARK INTER + INTRA:          -9.311
REMARK INTER:                  -8.786
REMARK INTRA:                  -0.526
REMARK UNBOUND:                -0.690
REMARK  Name = 
REMARK  5 active torsions:
REMARK  status: ('A' for Active; 'I' for Inactive)
REMARK    1  A    between atoms: N_1  and  C_2
REMARK    2  A    between atoms: C_2  and  C_3
REMARK    3  A    between atoms: C_6  and  O_7
REMARK    4  A    between atoms: O_7  and  C_8
REMARK    5  A    between atoms: C_8  and  C_9
REMARK                            x       y       z     vdW  Elec       q    Type
REMARK                         _______ _______ _______ _____ _____    ______ ____
ROOT
ATOM      1  C   UNL     1      46.950   5.547  13.366  0.00  0.00    +0.000 A 
ATOM      2  C   UNL     1      46.144   6.075  12.347  0.00  0.00    +0.000 A 
ATOM      3  C   UNL     1      45.256   5.254  11.646  0.00  0.00    +0.000 A 
ATOM      4  C   UNL     1      45.175   3.895  11.944  0.00  0.00    +0.000 A 
ATOM      5  C   UNL     1      45.926   3.376  12.999  0.00  0.00    +0.000 A 
ATOM      6  C   UNL     1      46.817   4.193  13.696  0.00  0.00    +0.000 A 
ENDROOT
BRANCH   1   7
ATOM      7  C   UNL     1      47.964   6.403  14.079  0.00  0.00    +0.000 C 
BRANCH   7   8
ATOM      8  N   UNL     1      48.267   5.888  15.406  0.00  0.00    +0.000 NA
ATOM      9  H   UNL     1      49.259   6.022  15.592  0.00  0.00    +0.000 HD
ATOM     10  H   UNL     1      48.106   4.883  15.412  0.00  0.00    +0.000 HD
ENDBRANCH   7   8
ENDBRANCH   1   7
BRANCH   4  11
ATOM     11  O   UNL     1      44.342   3.156  11.146  0.00  0.00    +0.000 OA
BRANCH  11  12
ATOM     12  C   UNL     1      44.073   3.740   9.870  0.00  0.00    +0.000 C 
BRANCH  12  13
ATOM     13  C   UNL     1      45.087   3.259   8.863  0.00  0.00    +0.000 A 
ATOM     14  C   UNL     1      45.799   4.182   8.083  0.00  0.00    +0.000 A 
ATOM     15  C   UNL     1      46.788   3.751   7.200  0.00  0.00    +0.000 A 
ATOM     16  C   UNL     1      47.078   2.391   7.091  0.00  0.00    +0.000 A 
ATOM     17  C   UNL     1      46.374   1.468   7.861  0.00  0.00    +0.000 A 
ATOM     18 CL   UNL     1      46.742  -0.207   7.739  0.00  0.00    +0.000 Cl
ATOM     19  C   UNL     1      45.384   1.894   8.748  0.00  0.00    +0.000 A 
ENDBRANCH  12  13
ENDBRANCH  11  12
ENDBRANCH   4  11
TORSDOF 5
ENDMDL
MODEL 4
REMARK VINA RESULT:    -6.679      3.265      5.857
REMARK INTER + INTRA:          -9.126
REMARK INTER:                  -8.761
REMARK INTRA:                  -0.365
REMARK UNBOUND:                -0.690
REMARK  Name = 
REMARK  5 active torsions:
REMARK  status: ('A' for Active; 'I' for Inactive)
REMARK    1  A    between atoms: N_1  and  C_2
REMARK    2  A    between atoms: C_2  and  C_3
REMARK    3  A    between atoms: C_6  and  O_7
REMARK    4  A    between atoms: O_7  and  C_8
REMARK    5  A    between atoms: C_8  and  C_9
REMARK                            x       y       z     vdW  Elec       q    Type
REMARK                         _______ _______ _______ _____ _____    ______ ____
ROOT
ATOM      1  C   UNL     1      47.294   6.081  13.080  0.00  0.00    +0.000 A 
ATOM      2  C   UNL     1      46.422   5.023  13.376  0.00  0.00    +0.000 A 
ATOM      3  C   UNL     1      45.418   4.657  12.476  0.00  0.00    +0.000 A 
ATOM      4  C   UNL     1      45.263   5.353  11.278  0.00  0.00    +0.000 A 
ATOM      5  C   UNL     1      46.167   6.363  10.948  0.00  0.00    +0.000 A 
ATOM      6  C   UNL     1      47.167   6.733  11.848  0.00  0.00    +0.000 A 
ENDROOT
BRANCH   1   7
ATOM      7  C   UNL     1      48.332   6.534  14.072  0.00  0.00    +0.000 C 
BRANCH   7   8
ATOM      8  N   UNL     1      49.591   6.870  13.421  0.00  0.00    +0.000 NA
ATOM      9  H   UNL     1      50.307   6.994  14.134  0.00  0.00    +0.000 HD
ATOM     10  H   UNL     1      49.488   7.769  12.957  0.00  0.00    +0.000 HD
ENDBRANCH   7   8
ENDBRANCH   1   7
BRANCH   4  11
ATOM     11  O   UNL     1      44.199   4.978  10.502  0.00  0.00    +0.000 OA
BRANCH  11  12
ATOM     12  C   UNL     1      44.101   3.571  10.270  0.00  0.00    +0.000 C 
BRANCH  12  13
ATOM     13  C   UNL     1      44.989   3.178   9.117  0.00  0.00    +0.000 A 
ATOM     14  C   UNL     1      45.482   4.157   8.241  0.00  0.00    +0.000 A 
ATOM     15  C   UNL     1      46.361   3.814   7.215  0.00  0.00    +0.000 A 
ATOM     16  C   UNL     1      46.760   2.486   7.057  0.00  0.00    +0.000 A 
ATOM     17  C   UNL     1      46.274   1.508   7.922  0.00  0.00    +0.000 A 
ATOM     18 CL   UNL     1      46.777  -0.126   7.737  0.00  0.00    +0.000 Cl
ATOM     19  C   UNL     1      45.395   1.847   8.952  0.00  0.00    +0.000 A 
ENDBRANCH  12  13
ENDBRANCH  11  12
ENDBRANCH   4  11
TORSDOF 5
ENDMDL
MODEL 5
REMARK VINA RESULT:    -6.468      3.512      6.223
REMARK INTER + INTRA:          -8.860
REMARK INTER:                  -8.349
REMARK INTRA:                  -0.511
REMARK UNBOUND:                -0.690
REMARK  Name = 
REMARK  5 active torsions:
REMARK  status: ('A' for Active; 'I' for Inactive)
REMARK    1  A    between atoms: N_1  and  C_2
REMARK    2  A    between atoms: C_2  and  C_3
REMARK    3  A    between atoms: C_6  and  O_7
REMARK    4  A    between atoms: O_7  and  C_8
REMARK    5  A    between atoms: C_8  and  C_9
REMARK                            x       y       z     vdW  Elec       q    Type
REMARK                         _______ _______ _______ _____ _____    ______ ____
ROOT
ATOM      1  C   UNL     1      46.549   6.540  12.770  0.00  0.00    +0.000 A 
ATOM      2  C   UNL     1      45.902   6.975  11.605  0.00  0.00    +0.000 A 
ATOM      3  C   UNL     1      45.149   6.084  10.835  0.00  0.00    +0.000 A 
ATOM      4  C   UNL     1      45.047   4.746  11.213  0.00  0.00    +0.000 A 
ATOM      5  C   UNL     1      45.634   4.321  12.405  0.00  0.00    +0.000 A 
ATOM      6  C   UNL     1      46.390   5.208  13.171  0.00  0.00    +0.000 A 
ENDROOT
BRANCH   1   7
ATOM      7  C   UNL     1      47.424   7.471  13.568  0.00  0.00    +0.000 C 
BRANCH   7   8
ATOM      8  N   UNL     1      46.698   8.659  13.997  0.00  0.00    +0.000 NA
ATOM      9  H   UNL     1      46.879   8.815  14.986  0.00  0.00    +0.000 HD
ATOM     10  H   UNL     1      45.700   8.480  13.911  0.00  0.00    +0.000 HD
ENDBRANCH   7   8
ENDBRANCH   1   7
BRANCH   4  11
ATOM     11  O   UNL     1      44.361   3.932  10.351  0.00  0.00    +0.000 OA
BRANCH  11  12
ATOM     12  C   UNL     1      44.559   4.233   8.968  0.00  0.00    +0.000 C 
BRANCH  12  13
ATOM     13  C   UNL     1      45.411   3.167   8.328  0.00  0.00    +0.000 A 
ATOM     14  C   UNL     1      45.436   1.870   8.861  0.00  0.00    +0.000 A 
ATOM     15  C   UNL     1      46.164   0.858   8.235  0.00  0.00    +0.000 A 
ATOM     16  C   UNL     1      46.873   1.135   7.066  0.00  0.00    +0.000 A 
ATOM     17  C   UNL     1      46.855   2.422   6.531  0.00  0.00    +0.000 A 
ATOM     18 CL   UNL     1      47.716   2.759   5.081  0.00  0.00    +0.000 Cl
ATOM     19  C   UNL     1      46.126   3.436   7.153  0.00  0.00    +0.000 A 
ENDBRANCH  12  13
ENDBRANCH  11  12
ENDBRANCH   4  11
TORSDOF 5
ENDMDL
MODEL 6
REMARK VINA RESULT:    -5.979      2.901      5.714
REMARK INTER + INTRA:          -8.241
REMARK INTER:                  -7.549
REMARK INTRA:                  -0.692
REMARK UNBOUND:                -0.690
REMARK  Name = 
REMARK  5 active torsions:
REMARK  status: ('A' for Active; 'I' for Inactive)
REMARK    1  A    between atoms: N_1  and  C_2
REMARK    2  A    between atoms: C_2  and  C_3
REMARK    3  A    between atoms: C_6  and  O_7
REMARK    4  A    between atoms: O_7  and  C_8
REMARK    5  A    between atoms: C_8  and  C_9
REMARK                            x       y       z     vdW  Elec       q    Type
REMARK                         _______ _______ _______ _____ _____    ______ ____
ROOT
ATOM      1  C   UNL     1      47.189   6.651  13.416  0.00  0.00    +0.000 A 
ATOM      2  C   UNL     1      46.128   7.362  12.837  0.00  0.00    +0.000 A 
ATOM      3  C   UNL     1      44.973   6.697  12.416  0.00  0.00    +0.000 A 
ATOM      4  C   UNL     1      44.872   5.313  12.555  0.00  0.00    +0.000 A 
ATOM      5  C   UNL     1      45.895   4.610  13.189  0.00  0.00    +0.000 A 
ATOM      6  C   UNL     1      47.051   5.271  13.605  0.00  0.00    +0.000 A 
ENDROOT
BRANCH   1   7
ATOM      7  C   UNL     1      48.468   7.344  13.806  0.00  0.00    +0.000 C 
BRANCH   7   8
ATOM      8  N   UNL     1      49.613   6.811  13.081  0.00  0.00    +0.000 NA
ATOM      9  H   UNL     1      49.405   6.823  12.084  0.00  0.00    +0.000 HD
ATOM     10  H   UNL     1      49.737   5.834  13.338  0.00  0.00    +0.000 HD
ENDBRANCH   7   8
ENDBRANCH   1   7
BRANCH   4  11
ATOM     11  O   UNL     1      43.741   4.742  12.035  0.00  0.00    +0.000 OA
BRANCH  11  12
ATOM     12  C   UNL     1      43.542   4.983  10.641  0.00  0.00    +0.000 C 
BRANCH  12  13
ATOM     13  C   UNL     1      44.331   3.986   9.831  0.00  0.00    +0.000 A 
ATOM     14  C   UNL     1      44.166   2.610  10.051  0.00  0.00    +0.000 A 
ATOM     15  C   UNL     1      44.838   1.679   9.260  0.00  0.00    +0.000 A 
ATOM     16  C   UNL     1      45.679   2.115   8.236  0.00  0.00    +0.000 A 
ATOM     17  C   UNL     1      45.849   3.480   8.012  0.00  0.00    +0.000 A 
ATOM     18 CL   UNL     1      46.874   4.017   6.740  0.00  0.00    +0.000 Cl
ATOM     19  C   UNL     1      45.178   4.415   8.800  0.00  0.00    +0.000 A 
ENDBRANCH  12  13
ENDBRANCH  11  12
ENDBRANCH   4  11
TORSDOF 5
ENDMDL
MODEL 7
REMARK VINA RESULT:    -5.329      5.083      7.902
REMARK INTER + INTRA:          -7.421
REMARK INTER:                  -7.095
REMARK INTRA:                  -0.327
REMARK UNBOUND:                -0.690
REMARK  Name = 
REMARK  5 active torsions:
REMARK  status: ('A' for Active; 'I' for Inactive)
REMARK    1  A    between atoms: N_1  and  C_2
REMARK    2  A    between atoms: C_2  and  C_3
REMARK    3  A    between atoms: C_6  and  O_7
REMARK    4  A    between atoms: O_7  and  C_8
REMARK    5  A    between atoms: C_8  and  C_9
REMARK                            x       y       z     vdW  Elec       q    Type
REMARK                         _______ _______ _______ _____ _____    ______ ____
ROOT
ATOM      1  C   UNL     1      48.659   4.408  18.382  0.00  0.00    +0.000 A 
ATOM      2  C   UNL     1      48.338   3.100  17.991  0.00  0.00    +0.000 A 
ATOM      3  C   UNL     1      47.755   2.855  16.744  0.00  0.00    +0.000 A 
ATOM      4  C   UNL     1      47.472   3.914  15.883  0.00  0.00    +0.000 A 
ATOM      5  C   UNL     1      47.849   5.209  16.238  0.00  0.00    +0.000 A 
ATOM      6  C   UNL     1      48.426   5.456  17.484  0.00  0.00    +0.000 A 
ENDROOT
BRANCH   1   7
ATOM      7  C   UNL     1      49.219   4.695  19.751  0.00  0.00    +0.000 C 
BRANCH   7   8
ATOM      8  N   UNL     1      48.541   3.926  20.784  0.00  0.00    +0.000 NA
ATOM      9  H   UNL     1      48.976   3.008  20.849  0.00  0.00    +0.000 HD
ATOM     10  H   UNL     1      47.578   3.768  20.494  0.00  0.00    +0.000 HD
ENDBRANCH   7   8
ENDBRANCH   1   7
BRANCH   4  11
ATOM     11  O   UNL     1      46.823   3.584  14.723  0.00  0.00    +0.000 OA
BRANCH  11  12
ATOM     12  C   UNL     1      46.709   4.653  13.783  0.00  0.00    +0.000 C 
BRANCH  12  13
ATOM     13  C   UNL     1      45.451   4.488  12.968  0.00  0.00    +0.000 A 
ATOM     14  C   UNL     1      44.329   5.288  13.233  0.00  0.00    +0.000 A 
ATOM     15  C   UNL     1      43.186   5.192  12.440  0.00  0.00    +0.000 A 
ATOM     16  C   UNL     1      43.155   4.298  11.370  0.00  0.00    +0.000 A 
ATOM     17  C   UNL     1      44.265   3.500  11.101  0.00  0.00    +0.000 A 
ATOM     18 CL   UNL     1      44.233   2.408   9.773  0.00  0.00    +0.000 Cl
ATOM     19  C   UNL     1      45.412   3.593  11.891  0.00  0.00    +0.000 A 
ENDBRANCH  12  13
ENDBRANCH  11  12
ENDBRANCH   4  11
TORSDOF 5
ENDMDL
MODEL 8
REMARK VINA RESULT:    -5.080      5.037      7.576
REMARK INTER + INTRA:          -7.106
REMARK INTER:                  -6.694
REMARK INTRA:                  -0.412
REMARK UNBOUND:                -0.690
REMARK  Name = 
REMARK  5 active torsions:
REMARK  status: ('A' for Active; 'I' for Inactive)
REMARK    1  A    between atoms: N_1  and  C_2
REMARK    2  A    between atoms: C_2  and  C_3
REMARK    3  A    between atoms: C_6  and  O_7
REMARK    4  A    between atoms: O_7  and  C_8
REMARK    5  A    between atoms: C_8  and  C_9
REMARK                            x       y       z     vdW  Elec       q    Type
REMARK                         _______ _______ _______ _____ _____    ______ ____
ROOT
ATOM      1  C   UNL     1      49.851   4.321  17.776  0.00  0.00    +0.000 A 
ATOM      2  C   UNL     1      49.338   5.424  17.078  0.00  0.00    +0.000 A 
ATOM      3  C   UNL     1      48.196   5.293  16.283  0.00  0.00    +0.000 A 
ATOM      4  C   UNL     1      47.564   4.056  16.164  0.00  0.00    +0.000 A 
ATOM      5  C   UNL     1      48.031   2.971  16.907  0.00  0.00    +0.000 A 
ATOM      6  C   UNL     1      49.174   3.099  17.696  0.00  0.00    +0.000 A 
ENDROOT
BRANCH   1   7
ATOM      7  C   UNL     1      51.122   4.430  18.577  0.00  0.00    +0.000 C 
BRANCH   7   8
ATOM      8  N   UNL     1      51.852   3.171  18.606  0.00  0.00    +0.000 NA
ATOM      9  H   UNL     1      51.235   2.426  18.287  0.00  0.00    +0.000 HD
ATOM     10  H   UNL     1      52.090   2.953  19.571  0.00  0.00    +0.000 HD
ENDBRANCH   7   8
ENDBRANCH   1   7
BRANCH   4  11
ATOM     11  O   UNL     1      46.506   4.006  15.296  0.00  0.00    +0.000 OA
BRANCH  11  12
ATOM     12  C   UNL     1      46.874   3.913  13.919  0.00  0.00    +0.000 C 
BRANCH  12  13
ATOM     13  C   UNL     1      46.112   4.936  13.114  0.00  0.00    +0.000 A 
ATOM     14  C   UNL     1      46.786   6.019  12.530  0.00  0.00    +0.000 A 
ATOM     15  C   UNL     1      46.103   6.930  11.725  0.00  0.00    +0.000 A 
ATOM     16  C   UNL     1      44.738   6.764  11.493  0.00  0.00    +0.000 A 
ATOM     17  C   UNL     1      44.061   5.691  12.070  0.00  0.00    +0.000 A 
ATOM     18 CL   UNL     1      42.381   5.478  11.771  0.00  0.00    +0.000 Cl
ATOM     19  C   UNL     1      44.741   4.776  12.875  0.00  0.00    +0.000 A 
ENDBRANCH  12  13
ENDBRANCH  11  12
ENDBRANCH   4  11
TORSDOF 5
ENDMDL
MODEL 9
REMARK VINA RESULT:    -4.971      3.200      4.589
REMARK INTER + INTRA:          -6.969
REMARK INTER:                  -6.457
REMARK INTRA:                  -0.512
REMARK UNBOUND:                -0.690
REMARK  Name = 
REMARK  5 active torsions:
REMARK  status: ('A' for Active; 'I' for Inactive)
REMARK    1  A    between atoms: N_1  and  C_2
REMARK    2  A    between atoms: C_2  and  C_3
REMARK    3  A    between atoms: C_6  and  O_7
REMARK    4  A    between atoms: O_7  and  C_8
REMARK    5  A    between atoms: C_8  and  C_9
REMARK                            x       y       z     vdW  Elec       q    Type
REMARK                         _______ _______ _______ _____ _____    ______ ____
ROOT
ATOM      1  C   UNL     1      44.935   3.335  10.045  0.00  0.00    +0.000 A 
ATOM      2  C   UNL     1      45.268   4.598   9.534  0.00  0.00    +0.000 A 
ATOM      3  C   UNL     1      45.456   5.684  10.394  0.00  0.00    +0.000 A 
ATOM      4  C   UNL     1      45.299   5.524  11.770  0.00  0.00    +0.000 A 
ATOM      5  C   UNL     1      45.032   4.257  12.288  0.00  0.00    +0.000 A 
ATOM      6  C   UNL     1      44.838   3.173  11.432  0.00  0.00    +0.000 A 
ENDROOT
BRANCH   1   7
ATOM      7  C   UNL     1      44.656   2.173   9.127  0.00  0.00    +0.000 C 
BRANCH   7   8
ATOM      8  N   UNL     1      45.871   1.684   8.491  0.00  0.00    +0.000 NA
ATOM      9  H   UNL     1      46.075   2.265   7.681  0.00  0.00    +0.000 HD
ATOM     10  H   UNL     1      45.700   0.746   8.138  0.00  0.00    +0.000 HD
ENDBRANCH   7   8
ENDBRANCH   1   7
BRANCH   4  11
ATOM     11  O   UNL     1      45.418   6.663  12.521  0.00  0.00    +0.000 OA
BRANCH  11  12
ATOM     12  C   UNL     1      46.648   6.772  13.240  0.00  0.00    +0.000 C 
BRANCH  12  13
ATOM     13  C   UNL     1      47.556   7.763  12.557  0.00  0.00    +0.000 A 
ATOM     14  C   UNL     1      47.176   9.109  12.449  0.00  0.00    +0.000 A 
ATOM     15  C   UNL     1      48.039  10.047  11.882  0.00  0.00    +0.000 A 
ATOM     16  C   UNL     1      49.293   9.647  11.420  0.00  0.00    +0.000 A 
ATOM     17  C   UNL     1      49.677   8.311  11.522  0.00  0.00    +0.000 A 
ATOM     18 CL   UNL     1      51.228   7.821  10.967  0.00  0.00    +0.000 Cl
ATOM     19  C   UNL     1      48.817   7.369  12.090  0.00  0.00    +0.000 A 
ENDBRANCH  12  13
ENDBRANCH  11  12
ENDBRANCH   4  11
TORSDOF 5
ENDMDL
