MODEL 1
REMARK VINA RESULT:    -7.599      0.000      0.000
REMARK INTER + INTRA:         -10.285
REMARK INTER:                  -9.598
REMARK INTRA:                  -0.686
REMARK UNBOUND:                -0.686
REMARK  Name = 
REMARK  5 active torsions:
REMARK  status: ('A' for Active; 'I' for Inactive)
REMARK    1  A    between atoms: N_1  and  C_2
REMARK    2  A    between atoms: C_2  and  C_3
REMARK    3  A    between atoms: C_3  and  C_4
REMARK    4  A    between atoms: C_7  and  C_8
REMARK    5  A    between atoms: C_8  and  N_9
REMARK                            x       y       z     vdW  Elec       q    Type
REMARK                         _______ _______ _______ _____ _____    ______ ____
ROOT
ATOM      1  C   UNL     1      46.128   2.446   7.819  0.00  0.00    +0.000 A 
ATOM      2  C   UNL     1      46.270   3.840   7.773  0.00  0.00    +0.000 A 
ATOM      3  C   UNL     1      45.628   4.651   8.713  0.00  0.00    +0.000 A 
ATOM      4  C   UNL     1      44.816   4.090   9.708  0.00  0.00    +0.000 A 
ATOM      5  C   UNL     1      44.635   2.705   9.705  0.00  0.00    +0.000 A 
ATOM      6  F   UNL     1      43.803   2.135  10.588  0.00  0.00    +0.000 F 
ATOM      7  C   UNL     1      45.282   1.887   8.781  0.00  0.00    +0.000 A 
ENDROOT
BRANCH   1   8
ATOM      8  C   UNL     1      46.873   1.565   6.846  0.00  0.00    +0.000 C 
BRANCH   8   9
ATOM      9  C   UNL     1      48.232   2.151   6.453  0.00  0.00    +0.000 C 
BRANCH   9  10
ATOM     10  N   UNL     1      48.269   2.473   5.028  0.00  0.00    +0.000 NA
ATOM     11  H   UNL     1      47.726   3.319   4.860  0.00  0.00    +0.000 HD
ATOM     12  H   UNL     1      47.809   1.733   4.496  0.00  0.00    +0.000 HD
ENDBRANCH   9  10
ENDBRANCH   8   9
ENDBRANCH   1   8
BRANCH   4  13
ATOM     13  C   UNL     1      44.157   4.955  10.745  0.00  0.00    +0.000 C 
BRANCH  13  14
ATOM     14  N   UNL     1      45.116   5.705  11.559  0.00  0.00    +0.000 N 
ATOM     15  C   UNL     1      45.180   7.079  11.610  0.00  0.00    +0.000 A 
ATOM     16  C   UNL     1      46.010   7.431  12.649  0.00  0.00    +0.000 A 
ATOM     17  C   UNL     1      46.481   6.235  13.254  0.00  0.00    +0.000 A 
ATOM     18  C   UNL     1      47.304   5.957  14.354  0.00  0.00    +0.000 A 
ATOM     19  N   UNL     1      47.579   4.681  14.709  0.00  0.00    +0.000 NA
ATOM     20  C   UNL     1      47.054   3.677  13.975  0.00  0.00    +0.000 A 
ATOM     21  C   UNL     1      46.230   3.844  12.874  0.00  0.00    +0.000 A 
ATOM     22  C   UNL     1      45.935   5.171  12.535  0.00  0.00    +0.000 A 
ENDBRANCH  13  14
ENDBRANCH   4  13
TORSDOF 5
ENDMDL
MODEL 2
REMARK VINA RESULT:    -7.562      1.211      2.138
REMARK INTER + INTRA:         -10.238
REMARK INTER:                  -9.567
REMARK INTRA:                  -0.670
REMARK UNBOUND:                -0.686
REMARK  Name = 
REMARK  5 active torsions:
REMARK  status: ('A' for Active; 'I' for Inactive)
REMARK    1  A    between atoms: N_1  and  C_2
REMARK    2  A    between atoms: C_2  and  C_3
REMARK    3  A    between atoms: C_3  and  C_4
REMARK    4  A    between atoms: C_7  and  C_8
REMARK    5  A    between atoms: C_8  and  N_9
REMARK                            x       y       z     vdW  Elec       q    Type
REMARK                         _______ _______ _______ _____ _____    ______ ____
ROOT
ATOM      1  C   UNL     1      45.838   3.370   7.822  0.00  0.00    +0.000 A 
ATOM      2  C   UNL     1      46.041   4.699   8.217  0.00  0.00    +0.000 A 
ATOM      3  C   UNL     1      45.517   5.170   9.425  0.00  0.00    +0.000 A 
ATOM      4  C   UNL     1      44.764   4.327  10.256  0.00  0.00    +0.000 A 
ATOM      5  C   UNL     1      44.518   3.024   9.820  0.00  0.00    +0.000 A 
ATOM      6  F   UNL     1      43.735   2.211  10.544  0.00  0.00    +0.000 F 
ATOM      7  C   UNL     1      45.048   2.542   8.625  0.00  0.00    +0.000 A 
ENDROOT
BRANCH   1   8
ATOM      8  C   UNL     1      46.457   2.843   6.551  0.00  0.00    +0.000 C 
BRANCH   8   9
ATOM      9  C   UNL     1      47.565   1.821   6.825  0.00  0.00    +0.000 C 
BRANCH   9  10
ATOM     10  N   UNL     1      48.547   1.813   5.743  0.00  0.00    +0.000 NA
ATOM     11  H   UNL     1      48.199   1.235   4.978  0.00  0.00    +0.000 HD
ATOM     12  H   UNL     1      49.408   1.370   6.063  0.00  0.00    +0.000 HD
ENDBRANCH   9  10
ENDBRANCH   8   9
ENDBRANCH   1   8
BRANCH   4  13
ATOM     13  C   UNL     1      44.234   4.818  11.574  0.00  0.00    +0.000 C 
BRANCH  13  14
ATOM     14  N   UNL     1      45.289   5.065  12.559  0.00  0.00    +0.000 N 
ATOM     15  C   UNL     1      46.045   4.077  13.147  0.00  0.00    +0.000 A 
ATOM     16  C   UNL     1      47.089   4.675  13.814  0.00  0.00    +0.000 A 
ATOM     17  C   UNL     1      46.969   6.080  13.638  0.00  0.00    +0.000 A 
ATOM     18  C   UNL     1      47.737   7.181  14.038  0.00  0.00    +0.000 A 
ATOM     19  N   UNL     1      47.368   8.441  13.708  0.00  0.00    +0.000 NA
ATOM     20  C   UNL     1      46.236   8.617  12.993  0.00  0.00    +0.000 A 
ATOM     21  C   UNL     1      45.409   7.598  12.550  0.00  0.00    +0.000 A 
ATOM     22  C   UNL     1      45.818   6.300  12.879  0.00  0.00    +0.000 A 
ENDBRANCH  13  14
ENDBRANCH   4  13
TORSDOF 5
ENDMDL
MODEL 3
REMARK VINA RESULT:    -6.669      1.781      6.407
REMARK INTER + INTRA:          -9.110
REMARK INTER:                  -8.412
REMARK INTRA:                  -0.697
REMARK UNBOUND:                -0.686
REMARK  Name = 
REMARK  5 active torsions:
REMARK  status: ('A' for Active; 'I' for Inactive)
REMARK    1  A    between atoms: N_1  and  C_2
REMARK    2  A    between atoms: C_2  and  C_3
REMARK    3  A    between atoms: C_3  and  C_4
REMARK    4  A    between atoms: C_7  and  C_8
REMARK    5  A    between atoms: C_8  and  N_9
REMARK                            x       y       z     vdW  Elec       q    Type
REMARK                         _______ _______ _______ _____ _____    ______ ____
ROOT
ATOM      1  C   UNL     1      46.428   4.627  13.722  0.00  0.00    +0.000 A 
ATOM      2  C   UNL     1      46.242   3.306  13.296  0.00  0.00    +0.000 A 
ATOM      3  C   UNL     1      45.558   3.031  12.107  0.00  0.00    +0.000 A 
ATOM      4  C   UNL     1      45.030   4.071  11.329  0.00  0.00    +0.000 A 
ATOM      5  C   UNL     1      45.170   5.379  11.797  0.00  0.00    +0.000 A 
ATOM      6  F   UNL     1      44.610   6.395  11.125  0.00  0.00    +0.000 F 
ATOM      7  C   UNL     1      45.862   5.663  12.972  0.00  0.00    +0.000 A 
ENDROOT
BRANCH   1   8
ATOM      8  C   UNL     1      47.222   4.929  14.969  0.00  0.00    +0.000 C 
BRANCH   8   9
ATOM      9  C   UNL     1      47.490   3.674  15.805  0.00  0.00    +0.000 C 
BRANCH   9  10
ATOM     10  N   UNL     1      46.735   3.710  17.056  0.00  0.00    +0.000 NA
ATOM     11  H   UNL     1      46.816   4.638  17.471  0.00  0.00    +0.000 HD
ATOM     12  H   UNL     1      47.150   3.063  17.727  0.00  0.00    +0.000 HD
ENDBRANCH   9  10
ENDBRANCH   8   9
ENDBRANCH   1   8
BRANCH   4  13
ATOM     13  C   UNL     1      44.330   3.783  10.031  0.00  0.00    +0.000 C 
BRANCH  13  14
ATOM     14  N   UNL     1      45.239   3.757   8.883  0.00  0.00    +0.000 N 
ATOM     15  C   UNL     1      45.815   4.876   8.326  0.00  0.00    +0.000 A 
ATOM     16  C   UNL     1      46.790   4.464   7.447  0.00  0.00    +0.000 A 
ATOM     17  C   UNL     1      46.812   3.044   7.456  0.00  0.00    +0.000 A 
ATOM     18  C   UNL     1      47.597   2.077   6.814  0.00  0.00    +0.000 A 
ATOM     19  N   UNL     1      47.385   0.758   7.027  0.00  0.00    +0.000 NA
ATOM     20  C   UNL     1      46.393   0.389   7.865  0.00  0.00    +0.000 A 
ATOM     21  C   UNL     1      45.563   1.263   8.548  0.00  0.00    +0.000 A 
ATOM     22  C   UNL     1      45.812   2.625   8.334  0.00  0.00    +0.000 A 
ENDBRANCH  13  14
ENDBRANCH   4  13
TORSDOF 5
ENDMDL
MODEL 4
REMARK VINA RESULT:    -6.022      1.921      6.543
REMARK INTER + INTRA:          -8.292
REMARK INTER:                  -7.850
REMARK INTRA:                  -0.441
REMARK UNBOUND:                -0.686
REMARK  Name = 
REMARK  5 active torsions:
REMARK  status: ('A' for Active; 'I' for Inactive)
REMARK    1  A    between atoms: N_1  and  C_2
REMARK    2  A    between atoms: C_2  and  C_3
REMARK    3  A    between atoms: C_3  and  C_4
REMARK    4  A    between atoms: C_7  and  C_8
REMARK    5  A    between atoms: C_8  and  N_9
REMARK                            x       y       z     vdW  Elec       q    Type
REMARK                         _______ _______ _______ _____ _____    ______ ____
ROOT
ATOM      1  C   UNL     1      45.694   7.206  12.545  0.00  0.00    +0.000 A 
ATOM      2  C   UNL     1      46.563   6.107  12.544  0.00  0.00    +0.000 A 
ATOM      3  C   UNL     1      46.249   4.953  11.818  0.00  0.00    +0.000 A 
ATOM      4  C   UNL     1      45.052   4.866  11.093  0.00  0.00    +0.000 A 
ATOM      5  C   UNL     1      44.168   5.946  11.152  0.00  0.00    +0.000 A 
ATOM      6  F   UNL     1      42.978   5.873  10.540  0.00  0.00    +0.000 F 
ATOM      7  C   UNL     1      44.479   7.105  11.861  0.00  0.00    +0.000 A 
ENDROOT
BRANCH   1   8
ATOM      8  C   UNL     1      46.062   8.476  13.272  0.00  0.00    +0.000 C 
BRANCH   8   9
ATOM      9  C   UNL     1      47.428   8.379  13.957  0.00  0.00    +0.000 C 
BRANCH   9  10
ATOM     10  N   UNL     1      47.422   9.088  15.235  0.00  0.00    +0.000 NA
ATOM     11  H   UNL     1      48.355   9.457  15.419  0.00  0.00    +0.000 HD
ATOM     12  H   UNL     1      47.224   8.433  15.992  0.00  0.00    +0.000 HD
ENDBRANCH   9  10
ENDBRANCH   8   9
ENDBRANCH   1   8
BRANCH   4  13
ATOM     13  C   UNL     1      44.730   3.645  10.280  0.00  0.00    +0.000 C 
BRANCH  13  14
ATOM     14  N   UNL     1      45.409   3.625   8.982  0.00  0.00    +0.000 N 
ATOM     15  C   UNL     1      45.834   4.750   8.314  0.00  0.00    +0.000 A 
ATOM     16  C   UNL     1      46.641   4.352   7.273  0.00  0.00    +0.000 A 
ATOM     17  C   UNL     1      46.710   2.933   7.295  0.00  0.00    +0.000 A 
ATOM     18  C   UNL     1      47.393   1.979   6.529  0.00  0.00    +0.000 A 
ATOM     19  N   UNL     1      47.267   0.658   6.795  0.00  0.00    +0.000 NA
ATOM     20  C   UNL     1      46.462   0.275   7.808  0.00  0.00    +0.000 A 
ATOM     21  C   UNL     1      45.746   1.136   8.623  0.00  0.00    +0.000 A 
ATOM     22  C   UNL     1      45.906   2.501   8.350  0.00  0.00    +0.000 A 
ENDBRANCH  13  14
ENDBRANCH   4  13
TORSDOF 5
ENDMDL
MODEL 5
REMARK VINA RESULT:    -5.987      2.503      6.410
REMARK INTER + INTRA:          -8.248
REMARK INTER:                  -7.745
REMARK INTRA:                  -0.503
REMARK UNBOUND:                -0.686
REMARK  Name = 
REMARK  5 active torsions:
REMARK  status: ('A' for Active; 'I' for Inactive)
REMARK    1  A    between atoms: N_1  and  C_2
REMARK    2  A    between atoms: C_2  and  C_3
REMARK    3  A    between atoms: C_3  and  C_4
REMARK    4  A    between atoms: C_7  and  C_8
REMARK    5  A    between atoms: C_8  and  N_9
REMARK                            x       y       z     vdW  Elec       q    Type
REMARK                         _______ _______ _______ _____ _____    ______ ____
ROOT
ATOM      1  C   UNL     1      47.392   8.000  13.195  0.00  0.00    +0.000 A 
ATOM      2  C   UNL     1      47.164   6.619  13.270  0.00  0.00    +0.000 A 
ATOM      3  C   UNL     1      46.011   6.057  12.712  0.00  0.00    +0.000 A 
ATOM      4  C   UNL     1      45.053   6.865  12.083  0.00  0.00    +0.000 A 
ATOM      5  C   UNL     1      45.264   8.245  12.069  0.00  0.00    +0.000 A 
ATOM      6  F   UNL     1      44.335   9.061  11.550  0.00  0.00    +0.000 F 
ATOM      7  C   UNL     1      46.416   8.813  12.610  0.00  0.00    +0.000 A 
ENDROOT
BRANCH   1   8
ATOM      8  C   UNL     1      48.665   8.599  13.738  0.00  0.00    +0.000 C 
BRANCH   8   9
ATOM      9  C   UNL     1      49.876   7.688  13.520  0.00  0.00    +0.000 C 
BRANCH   9  10
ATOM     10  N   UNL     1      50.275   7.042  14.770  0.00  0.00    +0.000 NA
ATOM     11  H   UNL     1      50.035   7.649  15.553  0.00  0.00    +0.000 HD
ATOM     12  H   UNL     1      51.289   6.937  14.795  0.00  0.00    +0.000 HD
ENDBRANCH   9  10
ENDBRANCH   8   9
ENDBRANCH   1   8
BRANCH   4  13
ATOM     13  C   UNL     1      43.834   6.261  11.446  0.00  0.00    +0.000 C 
BRANCH  13  14
ATOM     14  N   UNL     1      43.953   4.816  11.238  0.00  0.00    +0.000 N 
ATOM     15  C   UNL     1      43.288   3.869  11.983  0.00  0.00    +0.000 A 
ATOM     16  C   UNL     1      43.434   2.652  11.359  0.00  0.00    +0.000 A 
ATOM     17  C   UNL     1      44.221   2.852  10.194  0.00  0.00    +0.000 A 
ATOM     18  C   UNL     1      44.662   2.016   9.159  0.00  0.00    +0.000 A 
ATOM     19  N   UNL     1      45.415   2.504   8.146  0.00  0.00    +0.000 NA
ATOM     20  C   UNL     1      45.745   3.812   8.157  0.00  0.00    +0.000 A 
ATOM     21  C   UNL     1      45.361   4.721   9.130  0.00  0.00    +0.000 A 
ATOM     22  C   UNL     1      44.561   4.205  10.158  0.00  0.00    +0.000 A 
ENDBRANCH  13  14
ENDBRANCH   4  13
TORSDOF 5
ENDMDL
MODEL 6
REMARK VINA RESULT:    -5.512      2.370      3.311
REMARK INTER + INTRA:          -7.648
REMARK INTER:                  -7.148
REMARK INTRA:                  -0.500
REMARK UNBOUND:                -0.686
REMARK  Name = 
REMARK  5 active torsions:
REMARK  status: ('A' for Active; 'I' for Inactive)
REMARK    1  A    between atoms: N_1  and  C_2
REMARK    2  A    between atoms: C_2  and  C_3
REMARK    3  A    between atoms: C_3  and  C_4
REMARK    4  A    between atoms: C_7  and  C_8
REMARK    5  A    between atoms: C_8  and  N_9
REMARK                            x       y       z     vdW  Elec       q    Type
REMARK                         _______ _______ _______ _____ _____    ______ ____
ROOT
ATOM      1  C   UNL     1      44.629   3.996   9.550  0.00  0.00    +0.000 A 
ATOM      2  C   UNL     1      45.618   4.988   9.515  0.00  0.00    +0.000 A 
ATOM      3  C   UNL     1      45.738   5.909  10.560  0.00  0.00    +0.000 A 
ATOM      4  C   UNL     1      44.860   5.871  11.653  0.00  0.00    +0.000 A 
ATOM      5  C   UNL     1      43.841   4.916  11.645  0.00  0.00    +0.000 A 
ATOM      6  F   UNL     1      42.932   4.897  12.629  0.00  0.00    +0.000 F 
ATOM      7  C   UNL     1      43.723   3.985  10.615  0.00  0.00    +0.000 A 
ENDROOT
BRANCH   1   8
ATOM      8  C   UNL     1      44.540   2.961   8.456  0.00  0.00    +0.000 C 
BRANCH   8   9
ATOM      9  C   UNL     1      45.319   1.687   8.797  0.00  0.00    +0.000 C 
BRANCH   9  10
ATOM     10  N   UNL     1      46.499   1.554   7.945  0.00  0.00    +0.000 NA
ATOM     11  H   UNL     1      47.114   2.353   8.096  0.00  0.00    +0.000 HD
ATOM     12  H   UNL     1      46.222   1.592   6.964  0.00  0.00    +0.000 HD
ENDBRANCH   9  10
ENDBRANCH   8   9
ENDBRANCH   1   8
BRANCH   4  13
ATOM     13  C   UNL     1      45.011   6.834  12.797  0.00  0.00    +0.000 C 
BRANCH  13  14
ATOM     14  N   UNL     1      45.894   7.960  12.485  0.00  0.00    +0.000 N 
ATOM     15  C   UNL     1      45.453   9.198  12.075  0.00  0.00    +0.000 A 
ATOM     16  C   UNL     1      46.518  10.068  12.119  0.00  0.00    +0.000 A 
ATOM     17  C   UNL     1      47.655   9.342  12.563  0.00  0.00    +0.000 A 
ATOM     18  C   UNL     1      48.985   9.687  12.838  0.00  0.00    +0.000 A 
ATOM     19  N   UNL     1      49.868   8.755  13.267  0.00  0.00    +0.000 NA
ATOM     20  C   UNL     1      49.445   7.482  13.416  0.00  0.00    +0.000 A 
ATOM     21  C   UNL     1      48.155   7.040  13.173  0.00  0.00    +0.000 A 
ATOM     22  C   UNL     1      47.248   8.021  12.753  0.00  0.00    +0.000 A 
ENDBRANCH  13  14
ENDBRANCH   4  13
TORSDOF 5
ENDMDL
MODEL 7
REMARK VINA RESULT:    -5.392      2.792      4.070
REMARK INTER + INTRA:          -7.497
REMARK INTER:                  -6.869
REMARK INTRA:                  -0.628
REMARK UNBOUND:                -0.686
REMARK  Name = 
REMARK  5 active torsions:
REMARK  status: ('A' for Active; 'I' for Inactive)
REMARK    1  A    between atoms: N_1  and  C_2
REMARK    2  A    between atoms: C_2  and  C_3
REMARK    3  A    between atoms: C_3  and  C_4
REMARK    4  A    between atoms: C_7  and  C_8
REMARK    5  A    between atoms: C_8  and  N_9
REMARK                            x       y       z     vdW  Elec       q    Type
REMARK                         _______ _______ _______ _____ _____    ______ ____
ROOT
ATOM      1  C   UNL     1      44.737   3.839  11.065  0.00  0.00    +0.000 A 
ATOM      2  C   UNL     1      44.672   5.113  10.485  0.00  0.00    +0.000 A 
ATOM      3  C   UNL     1      45.185   6.227  11.155  0.00  0.00    +0.000 A 
ATOM      4  C   UNL     1      45.758   6.096  12.428  0.00  0.00    +0.000 A 
ATOM      5  C   UNL     1      45.761   4.831  13.020  0.00  0.00    +0.000 A 
ATOM      6  F   UNL     1      46.226   4.676  14.268  0.00  0.00    +0.000 F 
ATOM      7  C   UNL     1      45.265   3.713  12.354  0.00  0.00    +0.000 A 
ENDROOT
BRANCH   1   8
ATOM      8  C   UNL     1      44.244   2.626  10.316  0.00  0.00    +0.000 C 
BRANCH   8   9
ATOM      9  C   UNL     1      44.863   2.514   8.920  0.00  0.00    +0.000 C 
BRANCH   9  10
ATOM     10  N   UNL     1      45.619   1.270   8.783  0.00  0.00    +0.000 NA
ATOM     11  H   UNL     1      46.578   1.487   8.517  0.00  0.00    +0.000 HD
ATOM     12  H   UNL     1      45.233   0.715   8.019  0.00  0.00    +0.000 HD
ENDBRANCH   9  10
ENDBRANCH   8   9
ENDBRANCH   1   8
BRANCH   4  13
ATOM     13  C   UNL     1      46.347   7.284  13.134  0.00  0.00    +0.000 C 
BRANCH  13  14
ATOM     14  N   UNL     1      47.788   7.428  12.910  0.00  0.00    +0.000 N 
ATOM     15  C   UNL     1      48.347   7.877  11.735  0.00  0.00    +0.000 A 
ATOM     16  C   UNL     1      49.681   8.123  11.962  0.00  0.00    +0.000 A 
ATOM     17  C   UNL     1      49.956   7.809  13.319  0.00  0.00    +0.000 A 
ATOM     18  C   UNL     1      51.099   7.892  14.126  0.00  0.00    +0.000 A 
ATOM     19  N   UNL     1      51.059   7.517  15.426  0.00  0.00    +0.000 NA
ATOM     20  C   UNL     1      49.897   7.050  15.929  0.00  0.00    +0.000 A 
ATOM     21  C   UNL     1      48.714   6.930  15.218  0.00  0.00    +0.000 A 
ATOM     22  C   UNL     1      48.766   7.346  13.882  0.00  0.00    +0.000 A 
ENDBRANCH  13  14
ENDBRANCH   4  13
TORSDOF 5
ENDMDL
MODEL 8
REMARK VINA RESULT:    -5.373      3.654      7.433
REMARK INTER + INTRA:          -7.473
REMARK INTER:                  -6.919
REMARK INTRA:                  -0.555
REMARK UNBOUND:                -0.686
REMARK  Name = 
REMARK  5 active torsions:
REMARK  status: ('A' for Active; 'I' for Inactive)
REMARK    1  A    between atoms: N_1  and  C_2
REMARK    2  A    between atoms: C_2  and  C_3
REMARK    3  A    between atoms: C_3  and  C_4
REMARK    4  A    between atoms: C_7  and  C_8
REMARK    5  A    between atoms: C_8  and  N_9
REMARK                            x       y       z     vdW  Elec       q    Type
REMARK                         _______ _______ _______ _____ _____    ______ ____
ROOT
ATOM      1  C   UNL     1      48.251   5.485  17.229  0.00  0.00    +0.000 A 
ATOM      2  C   UNL     1      48.653   6.595  16.476  0.00  0.00    +0.000 A 
ATOM      3  C   UNL     1      48.445   6.631  15.094  0.00  0.00    +0.000 A 
ATOM      4  C   UNL     1      47.845   5.549  14.432  0.00  0.00    +0.000 A 
ATOM      5  C   UNL     1      47.505   4.424  15.186  0.00  0.00    +0.000 A 
ATOM      6  F   UNL     1      47.005   3.338  14.581  0.00  0.00    +0.000 F 
ATOM      7  C   UNL     1      47.696   4.386  16.566  0.00  0.00    +0.000 A 
ENDROOT
BRANCH   1   8
ATOM      8  C   UNL     1      48.415   5.472  18.729  0.00  0.00    +0.000 C 
BRANCH   8   9
ATOM      9  C   UNL     1      48.770   4.082  19.263  0.00  0.00    +0.000 C 
BRANCH   9  10
ATOM     10  N   UNL     1      48.472   3.979  20.691  0.00  0.00    +0.000 NA
ATOM     11  H   UNL     1      47.791   3.236  20.840  0.00  0.00    +0.000 HD
ATOM     12  H   UNL     1      48.027   4.839  21.012  0.00  0.00    +0.000 HD
ENDBRANCH   9  10
ENDBRANCH   8   9
ENDBRANCH   1   8
BRANCH   4  13
ATOM     13  C   UNL     1      47.582   5.600  12.954  0.00  0.00    +0.000 C 
BRANCH  13  14
ATOM     14  N   UNL     1      46.197   5.950  12.630  0.00  0.00    +0.000 N 
ATOM     15  C   UNL     1      45.741   7.238  12.473  0.00  0.00    +0.000 A 
ATOM     16  C   UNL     1      44.477   7.183  11.934  0.00  0.00    +0.000 A 
ATOM     17  C   UNL     1      44.139   5.815  11.758  0.00  0.00    +0.000 A 
ATOM     18  C   UNL     1      43.028   5.145  11.226  0.00  0.00    +0.000 A 
ATOM     19  N   UNL     1      42.989   3.793  11.182  0.00  0.00    +0.000 NA
ATOM     20  C   UNL     1      44.038   3.099  11.672  0.00  0.00    +0.000 A 
ATOM     21  C   UNL     1      45.180   3.663  12.216  0.00  0.00    +0.000 A 
ATOM     22  C   UNL     1      45.215   5.063  12.231  0.00  0.00    +0.000 A 
ENDBRANCH  13  14
ENDBRANCH   4  13
TORSDOF 5
ENDMDL
MODEL 9
REMARK VINA RESULT:    -5.363      3.103      4.806
REMARK INTER + INTRA:          -7.460
REMARK INTER:                  -6.746
REMARK INTRA:                  -0.714
REMARK UNBOUND:                -0.686
REMARK  Name = 
REMARK  5 active torsions:
REMARK  status: ('A' for Active; 'I' for Inactive)
REMARK    1  A    between atoms: N_1  and  C_2
REMARK    2  A    between atoms: C_2  and  C_3
REMARK    3  A    between atoms: C_3  and  C_4
REMARK    4  A    between atoms: C_7  and  C_8
REMARK    5  A    between atoms: C_8  and  N_9
REMARK                            x       y       z     vdW  Elec       q    Type
REMARK                         _______ _______ _______ _____ _____    ______ ____
ROOT
ATOM      1  C   UNL     1      44.781   3.781  11.085  0.00  0.00    +0.000 A 
ATOM      2  C   UNL     1      45.459   3.471  12.271  0.00  0.00    +0.000 A 
ATOM      3  C   UNL     1      46.027   4.483  13.051  0.00  0.00    +0.000 A 
ATOM      4  C   UNL     1      45.946   5.825  12.653  0.00  0.00    +0.000 A 
ATOM      5  C   UNL     1      45.321   6.114  11.438  0.00  0.00    +0.000 A 
ATOM      6  F   UNL     1      45.292   7.373  10.981  0.00  0.00    +0.000 F 
ATOM      7  C   UNL     1      44.739   5.113  10.662  0.00  0.00    +0.000 A 
ENDROOT
BRANCH   1   8
ATOM      8  C   UNL     1      44.111   2.698  10.277  0.00  0.00    +0.000 C 
BRANCH   8   9
ATOM      9  C   UNL     1      44.751   2.521   8.897  0.00  0.00    +0.000 C 
BRANCH   9  10
ATOM     10  N   UNL     1      45.534   1.287   8.840  0.00  0.00    +0.000 NA
ATOM     11  H   UNL     1      45.076   0.572   9.404  0.00  0.00    +0.000 HD
ATOM     12  H   UNL     1      46.448   1.440   9.265  0.00  0.00    +0.000 HD
ENDBRANCH   9  10
ENDBRANCH   8   9
ENDBRANCH   1   8
BRANCH   4  13
ATOM     13  C   UNL     1      46.520   6.919  13.508  0.00  0.00    +0.000 C 
BRANCH  13  14
ATOM     14  N   UNL     1      47.743   7.500  12.951  0.00  0.00    +0.000 N 
ATOM     15  C   UNL     1      48.897   6.790  12.710  0.00  0.00    +0.000 A 
ATOM     16  C   UNL     1      49.739   7.581  11.963  0.00  0.00    +0.000 A 
ATOM     17  C   UNL     1      49.087   8.823  11.742  0.00  0.00    +0.000 A 
ATOM     18  C   UNL     1      49.419   9.986  11.034  0.00  0.00    +0.000 A 
ATOM     19  N   UNL     1      48.570  11.040  10.994  0.00  0.00    +0.000 NA
ATOM     20  C   UNL     1      47.398  10.953  11.659  0.00  0.00    +0.000 A 
ATOM     21  C   UNL     1      46.977   9.851  12.386  0.00  0.00    +0.000 A 
ATOM     22  C   UNL     1      47.856   8.761  12.397  0.00  0.00    +0.000 A 
ENDBRANCH  13  14
ENDBRANCH   4  13
TORSDOF 5
ENDMDL
