MODEL 1
REMARK VINA RESULT:    -7.331      0.000      0.000
REMARK INTER + INTRA:         -11.458
REMARK INTER:                 -10.331
REMARK INTRA:                  -1.126
REMARK UNBOUND:                -1.126
REMARK  Name = 
REMARK  8 active torsions:
REMARK  status: ('A' for Active; 'I' for Inactive)
REMARK    1  A    between atoms: C_1  and  O_2
REMARK    2  A    between atoms: O_2  and  C_3
REMARK    3  A    between atoms: C_8  and  C_9
REMARK    4  A    between atoms: N_11  and  C_12
REMARK    5  A    between atoms: C_12  and  C_13
REMARK    6  A    between atoms: C_16  and  C_17
REMARK    7  A    between atoms: C_17  and  N_18
REMARK    8  A    between atoms: C_19  and  C_21
REMARK                            x       y       z     vdW  Elec       q    Type
REMARK                         _______ _______ _______ _____ _____    ______ ____
ROOT
ATOM      1  C   UNL     1      51.362   2.979  17.715  0.00  0.00    +0.000 A 
ATOM      2  C   UNL     1      50.699   4.152  18.103  0.00  0.00    +0.000 A 
ATOM      3  C   UNL     1      49.329   4.316  17.857  0.00  0.00    +0.000 A 
ATOM      4  C   UNL     1      48.589   3.301  17.234  0.00  0.00    +0.000 A 
ATOM      5  C   UNL     1      49.258   2.137  16.831  0.00  0.00    +0.000 A 
ATOM      6  C   UNL     1      50.625   1.972  17.080  0.00  0.00    +0.000 A 
ENDROOT
BRANCH   1   7
ATOM      7  C   UNL     1      52.834   2.791  17.990  0.00  0.00    +0.000 C 
BRANCH   7  10
ATOM      8  C   UNL     1      54.329   0.967  17.282  0.00  0.00    +0.000 C 
ATOM      9  O   UNL     1      55.016   1.734  16.616  0.00  0.00    +0.000 OA
ATOM     10  N   UNL     1      53.215   1.399  17.967  0.00  0.00    +0.000 N 
ATOM     11  H   UNL     1      52.670   0.723  18.490  0.00  0.00    +0.000 HD
BRANCH   8  17
ATOM     12  C   UNL     1      54.893  -1.183  18.609  0.00  0.00    +0.000 A 
ATOM     13  C   UNL     1      55.343  -2.514  18.571  0.00  0.00    +0.000 A 
ATOM     14  C   UNL     1      55.578  -3.162  17.356  0.00  0.00    +0.000 A 
ATOM     15  C   UNL     1      55.354  -2.495  16.160  0.00  0.00    +0.000 A 
ATOM     16  C   UNL     1      54.926  -1.166  16.181  0.00  0.00    +0.000 A 
ATOM     17  C   UNL     1      54.710  -0.486  17.396  0.00  0.00    +0.000 A 
BRANCH  12  19
ATOM     18  C   UNL     1      55.732   0.014  20.501  0.00  0.00    +0.000 C 
ATOM     19  O   UNL     1      54.626  -0.522  19.783  0.00  0.00    +0.000 OA
ENDBRANCH  12  19
ENDBRANCH   8  17
ENDBRANCH   7  10
ENDBRANCH   1   7
BRANCH   4  20
ATOM     20  C   UNL     1      47.109   3.452  16.973  0.00  0.00    +0.000 C 
BRANCH  20  21
ATOM     21  N   UNL     1      46.849   4.442  15.959  0.00  0.00    +0.000 N 
ATOM     22  C   UNL     1      46.962   4.147  14.623  0.00  0.00    +0.000 C 
ATOM     23  O   UNL     1      47.262   3.024  14.224  0.00  0.00    +0.000 OA
ATOM     24  H   UNL     1      46.866   5.411  16.252  0.00  0.00    +0.000 HD
BRANCH  22  25
ATOM     25  C   UNL     1      46.634   5.230  13.687  0.00  0.00    +0.000 A 
ATOM     26  C   UNL     1      47.571   6.213  13.405  0.00  0.00    +0.000 A 
ATOM     27  S   UNL     1      47.040   7.355  12.251  0.00  0.00    +0.000 S 
ATOM     28  C   UNL     1      45.518   6.606  12.130  0.00  0.00    +0.000 A 
ATOM     29  N   UNL     1      44.553   7.109  11.314  0.00  0.00    +0.000 NA
ATOM     30  C   UNL     1      43.438   6.456  11.344  0.00  0.00    +0.000 A 
ATOM     31  N   UNL     1      43.202   5.346  12.113  0.00  0.00    +0.000 N 
ATOM     32  C   UNL     1      44.155   4.787  12.929  0.00  0.00    +0.000 A 
ATOM     33  O   UNL     1      43.925   3.765  13.571  0.00  0.00    +0.000 OA
ATOM     34  C   UNL     1      45.425   5.488  12.943  0.00  0.00    +0.000 A 
ATOM     35  H   UNL     1      42.310   4.876  12.086  0.00  0.00    +0.000 HD
ENDBRANCH  22  25
ENDBRANCH  20  21
ENDBRANCH   4  20
TORSDOF 7
ENDMDL
MODEL 2
REMARK VINA RESULT:    -7.282      3.332      5.402
REMARK INTER + INTRA:         -11.388
REMARK INTER:                 -10.154
REMARK INTRA:                  -1.234
REMARK UNBOUND:                -1.126
REMARK  Name = 
REMARK  8 active torsions:
REMARK  status: ('A' for Active; 'I' for Inactive)
REMARK    1  A    between atoms: C_1  and  O_2
REMARK    2  A    between atoms: O_2  and  C_3
REMARK    3  A    between atoms: C_8  and  C_9
REMARK    4  A    between atoms: N_11  and  C_12
REMARK    5  A    between atoms: C_12  and  C_13
REMARK    6  A    between atoms: C_16  and  C_17
REMARK    7  A    between atoms: C_17  and  N_18
REMARK    8  A    between atoms: C_19  and  C_21
REMARK                            x       y       z     vdW  Elec       q    Type
REMARK                         _______ _______ _______ _____ _____    ______ ____
ROOT
ATOM      1  C   UNL     1      50.208   7.424  15.269  0.00  0.00    +0.000 A 
ATOM      2  C   UNL     1      50.574   8.100  14.096  0.00  0.00    +0.000 A 
ATOM      3  C   UNL     1      49.683   8.199  13.019  0.00  0.00    +0.000 A 
ATOM      4  C   UNL     1      48.399   7.641  13.100  0.00  0.00    +0.000 A 
ATOM      5  C   UNL     1      48.043   6.951  14.267  0.00  0.00    +0.000 A 
ATOM      6  C   UNL     1      48.932   6.855  15.343  0.00  0.00    +0.000 A 
ENDROOT
BRANCH   1   7
ATOM      7  C   UNL     1      51.159   7.327  16.437  0.00  0.00    +0.000 C 
BRANCH   7  10
ATOM      8  C   UNL     1      51.220   5.182  17.646  0.00  0.00    +0.000 C 
ATOM      9  O   UNL     1      50.425   5.589  18.488  0.00  0.00    +0.000 OA
ATOM     10  N   UNL     1      51.659   5.985  16.617  0.00  0.00    +0.000 N 
ATOM     11  H   UNL     1      52.328   5.609  15.956  0.00  0.00    +0.000 HD
BRANCH   8  17
ATOM     12  C   UNL     1      50.993   2.632  17.265  0.00  0.00    +0.000 A 
ATOM     13  C   UNL     1      51.541   1.353  17.460  0.00  0.00    +0.000 A 
ATOM     14  C   UNL     1      52.799   1.187  18.044  0.00  0.00    +0.000 A 
ATOM     15  C   UNL     1      53.535   2.298  18.429  0.00  0.00    +0.000 A 
ATOM     16  C   UNL     1      52.998   3.576  18.260  0.00  0.00    +0.000 A 
ATOM     17  C   UNL     1      51.718   3.762  17.698  0.00  0.00    +0.000 A 
BRANCH  12  19
ATOM     18  C   UNL     1      48.615   2.723  17.493  0.00  0.00    +0.000 C 
ATOM     19  O   UNL     1      49.772   2.835  16.670  0.00  0.00    +0.000 OA
ENDBRANCH  12  19
ENDBRANCH   8  17
ENDBRANCH   7  10
ENDBRANCH   1   7
BRANCH   4  20
ATOM     20  C   UNL     1      47.418   7.750  11.956  0.00  0.00    +0.000 C 
BRANCH  20  21
ATOM     21  N   UNL     1      46.749   6.498  11.713  0.00  0.00    +0.000 N 
ATOM     22  C   UNL     1      45.379   6.411  11.681  0.00  0.00    +0.000 C 
ATOM     23  O   UNL     1      44.658   7.395  11.832  0.00  0.00    +0.000 OA
ATOM     24  H   UNL     1      47.292   5.655  11.853  0.00  0.00    +0.000 HD
BRANCH  22  25
ATOM     25  C   UNL     1      44.817   5.087  11.386  0.00  0.00    +0.000 A 
ATOM     26  C   UNL     1      44.061   4.424  12.342  0.00  0.00    +0.000 A 
ATOM     27  S   UNL     1      43.438   2.927  11.804  0.00  0.00    +0.000 S 
ATOM     28  C   UNL     1      44.205   3.088  10.295  0.00  0.00    +0.000 A 
ATOM     29  N   UNL     1      44.100   2.117   9.349  0.00  0.00    +0.000 NA
ATOM     30  C   UNL     1      44.757   2.358   8.263  0.00  0.00    +0.000 A 
ATOM     31  N   UNL     1      45.507   3.484   8.036  0.00  0.00    +0.000 N 
ATOM     32  C   UNL     1      45.617   4.503   8.951  0.00  0.00    +0.000 A 
ATOM     33  O   UNL     1      46.261   5.518   8.699  0.00  0.00    +0.000 OA
ATOM     34  C   UNL     1      44.908   4.278  10.195  0.00  0.00    +0.000 A 
ATOM     35  H   UNL     1      45.991   3.617   7.162  0.00  0.00    +0.000 HD
ENDBRANCH  22  25
ENDBRANCH  20  21
ENDBRANCH   4  20
TORSDOF 7
ENDMDL
MODEL 3
REMARK VINA RESULT:    -7.201      3.354     10.544
REMARK INTER + INTRA:         -11.274
REMARK INTER:                 -10.260
REMARK INTRA:                  -1.013
REMARK UNBOUND:                -1.126
REMARK  Name = 
REMARK  8 active torsions:
REMARK  status: ('A' for Active; 'I' for Inactive)
REMARK    1  A    between atoms: C_1  and  O_2
REMARK    2  A    between atoms: O_2  and  C_3
REMARK    3  A    between atoms: C_8  and  C_9
REMARK    4  A    between atoms: N_11  and  C_12
REMARK    5  A    between atoms: C_12  and  C_13
REMARK    6  A    between atoms: C_16  and  C_17
REMARK    7  A    between atoms: C_17  and  N_18
REMARK    8  A    between atoms: C_19  and  C_21
REMARK                            x       y       z     vdW  Elec       q    Type
REMARK                         _______ _______ _______ _____ _____    ______ ____
ROOT
ATOM      1  C   UNL     1      47.243   6.069  14.032  0.00  0.00    +0.000 A 
ATOM      2  C   UNL     1      46.772   4.825  14.476  0.00  0.00    +0.000 A 
ATOM      3  C   UNL     1      47.273   4.246  15.650  0.00  0.00    +0.000 A 
ATOM      4  C   UNL     1      48.243   4.909  16.415  0.00  0.00    +0.000 A 
ATOM      5  C   UNL     1      48.725   6.144  15.959  0.00  0.00    +0.000 A 
ATOM      6  C   UNL     1      48.222   6.723  14.789  0.00  0.00    +0.000 A 
ENDROOT
BRANCH   1   7
ATOM      7  C   UNL     1      46.697   6.704  12.777  0.00  0.00    +0.000 C 
BRANCH   7  10
ATOM      8  C   UNL     1      45.327   5.771  10.955  0.00  0.00    +0.000 C 
ATOM      9  O   UNL     1      44.442   6.600  11.142  0.00  0.00    +0.000 OA
ATOM     10  N   UNL     1      46.460   5.731  11.738  0.00  0.00    +0.000 N 
ATOM     11  H   UNL     1      47.154   5.016  11.555  0.00  0.00    +0.000 HD
BRANCH   8  17
ATOM     12  C   UNL     1      44.281   3.718   9.775  0.00  0.00    +0.000 A 
ATOM     13  C   UNL     1      44.345   2.807   8.707  0.00  0.00    +0.000 A 
ATOM     14  C   UNL     1      45.288   2.955   7.687  0.00  0.00    +0.000 A 
ATOM     15  C   UNL     1      46.173   4.023   7.711  0.00  0.00    +0.000 A 
ATOM     16  C   UNL     1      46.136   4.927   8.776  0.00  0.00    +0.000 A 
ATOM     17  C   UNL     1      45.210   4.779   9.828  0.00  0.00    +0.000 A 
BRANCH  12  19
ATOM     18  C   UNL     1      43.645   2.746  11.865  0.00  0.00    +0.000 C 
ATOM     19  O   UNL     1      43.351   3.621  10.781  0.00  0.00    +0.000 OA
ENDBRANCH  12  19
ENDBRANCH   8  17
ENDBRANCH   7  10
ENDBRANCH   1   7
BRANCH   4  20
ATOM     20  C   UNL     1      48.786   4.309  17.691  0.00  0.00    +0.000 C 
BRANCH  20  21
ATOM     21  N   UNL     1      50.170   3.936  17.553  0.00  0.00    +0.000 N 
ATOM     22  C   UNL     1      51.074   4.146  18.566  0.00  0.00    +0.000 C 
ATOM     23  O   UNL     1      50.745   4.634  19.645  0.00  0.00    +0.000 OA
ATOM     24  H   UNL     1      50.512   3.790  16.611  0.00  0.00    +0.000 HD
BRANCH  22  25
ATOM     25  C   UNL     1      52.447   3.688  18.319  0.00  0.00    +0.000 A 
ATOM     26  C   UNL     1      53.515   4.549  18.527  0.00  0.00    +0.000 A 
ATOM     27  S   UNL     1      55.039   3.829  18.249  0.00  0.00    +0.000 S 
ATOM     28  C   UNL     1      54.320   2.359  17.785  0.00  0.00    +0.000 A 
ATOM     29  N   UNL     1      55.080   1.302  17.390  0.00  0.00    +0.000 NA
ATOM     30  C   UNL     1      54.401   0.261  17.038  0.00  0.00    +0.000 A 
ATOM     31  N   UNL     1      53.032   0.179  17.050  0.00  0.00    +0.000 N 
ATOM     32  C   UNL     1      52.227   1.209  17.469  0.00  0.00    +0.000 A 
ATOM     33  O   UNL     1      51.005   1.088  17.509  0.00  0.00    +0.000 OA
ATOM     34  C   UNL     1      52.938   2.410  17.864  0.00  0.00    +0.000 A 
ATOM     35  H   UNL     1      52.561  -0.668  16.770  0.00  0.00    +0.000 HD
ENDBRANCH  22  25
ENDBRANCH  20  21
ENDBRANCH   4  20
TORSDOF 7
ENDMDL
MODEL 4
REMARK VINA RESULT:    -7.090      3.510     10.368
REMARK INTER + INTRA:         -11.117
REMARK INTER:                 -10.167
REMARK INTRA:                  -0.950
REMARK UNBOUND:                -1.126
REMARK  Name = 
REMARK  8 active torsions:
REMARK  status: ('A' for Active; 'I' for Inactive)
REMARK    1  A    between atoms: C_1  and  O_2
REMARK    2  A    between atoms: O_2  and  C_3
REMARK    3  A    between atoms: C_8  and  C_9
REMARK    4  A    between atoms: N_11  and  C_12
REMARK    5  A    between atoms: C_12  and  C_13
REMARK    6  A    between atoms: C_16  and  C_17
REMARK    7  A    between atoms: C_17  and  N_18
REMARK    8  A    between atoms: C_19  and  C_21
REMARK                            x       y       z     vdW  Elec       q    Type
REMARK                         _______ _______ _______ _____ _____    ______ ____
ROOT
ATOM      1  C   UNL     1      47.442   5.706  14.468  0.00  0.00    +0.000 A 
ATOM      2  C   UNL     1      46.873   4.442  14.680  0.00  0.00    +0.000 A 
ATOM      3  C   UNL     1      47.164   3.711  15.840  0.00  0.00    +0.000 A 
ATOM      4  C   UNL     1      48.015   4.237  16.821  0.00  0.00    +0.000 A 
ATOM      5  C   UNL     1      48.597   5.493  16.598  0.00  0.00    +0.000 A 
ATOM      6  C   UNL     1      48.303   6.224  15.441  0.00  0.00    +0.000 A 
ENDROOT
BRANCH   1   7
ATOM      7  C   UNL     1      47.120   6.504  13.228  0.00  0.00    +0.000 C 
BRANCH   7  10
ATOM      8  C   UNL     1      45.557   5.917  11.418  0.00  0.00    +0.000 C 
ATOM      9  O   UNL     1      44.807   6.842  11.711  0.00  0.00    +0.000 OA
ATOM     10  N   UNL     1      46.705   5.660  12.134  0.00  0.00    +0.000 N 
ATOM     11  H   UNL     1      47.284   4.873  11.862  0.00  0.00    +0.000 HD
BRANCH   8  17
ATOM     12  C   UNL     1      44.242   4.063  10.179  0.00  0.00    +0.000 A 
ATOM     13  C   UNL     1      44.131   3.253   9.037  0.00  0.00    +0.000 A 
ATOM     14  C   UNL     1      44.982   3.425   7.943  0.00  0.00    +0.000 A 
ATOM     15  C   UNL     1      45.949   4.420   7.968  0.00  0.00    +0.000 A 
ATOM     16  C   UNL     1      46.086   5.221   9.103  0.00  0.00    +0.000 A 
ATOM     17  C   UNL     1      45.255   5.044  10.228  0.00  0.00    +0.000 A 
BRANCH  12  19
ATOM     18  C   UNL     1      43.700   2.917  12.206  0.00  0.00    +0.000 C 
ATOM     19  O   UNL     1      43.406   3.941  11.262  0.00  0.00    +0.000 OA
ENDBRANCH  12  19
ENDBRANCH   8  17
ENDBRANCH   7  10
ENDBRANCH   1   7
BRANCH   4  20
ATOM     20  C   UNL     1      48.330   3.472  18.085  0.00  0.00    +0.000 C 
BRANCH  20  21
ATOM     21  N   UNL     1      49.740   3.202  18.202  0.00  0.00    +0.000 N 
ATOM     22  C   UNL     1      50.373   2.319  17.363  0.00  0.00    +0.000 C 
ATOM     23  O   UNL     1      49.780   1.738  16.457  0.00  0.00    +0.000 OA
ATOM     24  H   UNL     1      50.180   3.449  19.080  0.00  0.00    +0.000 HD
BRANCH  22  25
ATOM     25  C   UNL     1      51.820   2.157  17.559  0.00  0.00    +0.000 A 
ATOM     26  C   UNL     1      52.369   0.889  17.671  0.00  0.00    +0.000 A 
ATOM     27  S   UNL     1      54.069   0.890  17.833  0.00  0.00    +0.000 S 
ATOM     28  C   UNL     1      54.124   2.590  17.815  0.00  0.00    +0.000 A 
ATOM     29  N   UNL     1      55.304   3.254  17.944  0.00  0.00    +0.000 NA
ATOM     30  C   UNL     1      55.192   4.542  17.943  0.00  0.00    +0.000 A 
ATOM     31  N   UNL     1      54.009   5.224  17.821  0.00  0.00    +0.000 N 
ATOM     32  C   UNL     1      52.799   4.596  17.659  0.00  0.00    +0.000 A 
ATOM     33  O   UNL     1      51.763   5.238  17.507  0.00  0.00    +0.000 OA
ATOM     34  C   UNL     1      52.864   3.147  17.666  0.00  0.00    +0.000 A 
ATOM     35  H   UNL     1      53.990   6.232  17.819  0.00  0.00    +0.000 HD
ENDBRANCH  22  25
ENDBRANCH  20  21
ENDBRANCH   4  20
TORSDOF 7
ENDMDL
MODEL 5
REMARK VINA RESULT:    -7.001      3.655     10.167
REMARK INTER + INTRA:         -10.992
REMARK INTER:                  -9.893
REMARK INTRA:                  -1.098
REMARK UNBOUND:                -1.126
REMARK  Name = 
REMARK  8 active torsions:
REMARK  status: ('A' for Active; 'I' for Inactive)
REMARK    1  A    between atoms: C_1  and  O_2
REMARK    2  A    between atoms: O_2  and  C_3
REMARK    3  A    between atoms: C_8  and  C_9
REMARK    4  A    between atoms: N_11  and  C_12
REMARK    5  A    between atoms: C_12  and  C_13
REMARK    6  A    between atoms: C_16  and  C_17
REMARK    7  A    between atoms: C_17  and  N_18
REMARK    8  A    between atoms: C_19  and  C_21
REMARK                            x       y       z     vdW  Elec       q    Type
REMARK                         _______ _______ _______ _____ _____    ______ ____
ROOT
ATOM      1  C   UNL     1      47.907   7.840  13.431  0.00  0.00    +0.000 A 
ATOM      2  C   UNL     1      48.240   6.608  14.012  0.00  0.00    +0.000 A 
ATOM      3  C   UNL     1      48.635   6.532  15.355  0.00  0.00    +0.000 A 
ATOM      4  C   UNL     1      48.686   7.685  16.150  0.00  0.00    +0.000 A 
ATOM      5  C   UNL     1      48.370   8.917  15.563  0.00  0.00    +0.000 A 
ATOM      6  C   UNL     1      47.972   8.993  14.223  0.00  0.00    +0.000 A 
ENDROOT
BRANCH   1   7
ATOM      7  C   UNL     1      47.467   7.927  11.990  0.00  0.00    +0.000 C 
BRANCH   7  10
ATOM      8  C   UNL     1      45.654   6.476  11.169  0.00  0.00    +0.000 C 
ATOM      9  O   UNL     1      44.819   7.360  11.332  0.00  0.00    +0.000 OA
ATOM     10  N   UNL     1      46.979   6.661  11.497  0.00  0.00    +0.000 N 
ATOM     11  H   UNL     1      47.628   5.895  11.359  0.00  0.00    +0.000 HD
BRANCH   8  17
ATOM     12  C   UNL     1      44.654   4.091  11.271  0.00  0.00    +0.000 A 
ATOM     13  C   UNL     1      44.418   2.877  10.604  0.00  0.00    +0.000 A 
ATOM     14  C   UNL     1      44.735   2.721   9.253  0.00  0.00    +0.000 A 
ATOM     15  C   UNL     1      45.281   3.781   8.544  0.00  0.00    +0.000 A 
ATOM     16  C   UNL     1      45.540   4.988   9.196  0.00  0.00    +0.000 A 
ATOM     17  C   UNL     1      45.253   5.156  10.565  0.00  0.00    +0.000 A 
BRANCH  12  19
ATOM     18  C   UNL     1      43.020   4.771  12.880  0.00  0.00    +0.000 C 
ATOM     19  O   UNL     1      44.329   4.290  12.591  0.00  0.00    +0.000 OA
ENDBRANCH  12  19
ENDBRANCH   8  17
ENDBRANCH   7  10
ENDBRANCH   1   7
BRANCH   4  20
ATOM     20  C   UNL     1      49.094   7.622  17.603  0.00  0.00    +0.000 C 
BRANCH  20  21
ATOM     21  N   UNL     1      50.153   6.669  17.814  0.00  0.00    +0.000 N 
ATOM     22  C   UNL     1      50.016   5.628  18.700  0.00  0.00    +0.000 C 
ATOM     23  O   UNL     1      48.981   5.442  19.335  0.00  0.00    +0.000 OA
ATOM     24  H   UNL     1      51.082   6.946  17.520  0.00  0.00    +0.000 HD
BRANCH  22  25
ATOM     25  C   UNL     1      51.153   4.703  18.798  0.00  0.00    +0.000 A 
ATOM     26  C   UNL     1      52.274   5.055  19.534  0.00  0.00    +0.000 A 
ATOM     27  S   UNL     1      53.468   3.834  19.589  0.00  0.00    +0.000 S 
ATOM     28  C   UNL     1      52.549   2.815  18.583  0.00  0.00    +0.000 A 
ATOM     29  N   UNL     1      53.018   1.595  18.207  0.00  0.00    +0.000 NA
ATOM     30  C   UNL     1      52.229   0.942  17.419  0.00  0.00    +0.000 A 
ATOM     31  N   UNL     1      51.014   1.397  16.977  0.00  0.00    +0.000 N 
ATOM     32  C   UNL     1      50.488   2.608  17.353  0.00  0.00    +0.000 A 
ATOM     33  O   UNL     1      49.376   2.967  16.974  0.00  0.00    +0.000 OA
ATOM     34  C   UNL     1      51.340   3.390  18.229  0.00  0.00    +0.000 A 
ATOM     35  H   UNL     1      50.440   0.834  16.368  0.00  0.00    +0.000 HD
ENDBRANCH  22  25
ENDBRANCH  20  21
ENDBRANCH   4  20
TORSDOF 7
ENDMDL
MODEL 6
REMARK VINA RESULT:    -6.886      5.577     10.195
REMARK INTER + INTRA:         -10.831
REMARK INTER:                 -10.387
REMARK INTRA:                  -0.443
REMARK UNBOUND:                -1.126
REMARK  Name = 
REMARK  8 active torsions:
REMARK  status: ('A' for Active; 'I' for Inactive)
REMARK    1  A    between atoms: C_1  and  O_2
REMARK    2  A    between atoms: O_2  and  C_3
REMARK    3  A    between atoms: C_8  and  C_9
REMARK    4  A    between atoms: N_11  and  C_12
REMARK    5  A    between atoms: C_12  and  C_13
REMARK    6  A    between atoms: C_16  and  C_17
REMARK    7  A    between atoms: C_17  and  N_18
REMARK    8  A    between atoms: C_19  and  C_21
REMARK                            x       y       z     vdW  Elec       q    Type
REMARK                         _______ _______ _______ _____ _____    ______ ____
ROOT
ATOM      1  C   UNL     1      45.158   5.822  11.467  0.00  0.00    +0.000 A 
ATOM      2  C   UNL     1      45.895   4.950  12.281  0.00  0.00    +0.000 A 
ATOM      3  C   UNL     1      46.897   5.438  13.131  0.00  0.00    +0.000 A 
ATOM      4  C   UNL     1      47.169   6.811  13.200  0.00  0.00    +0.000 A 
ATOM      5  C   UNL     1      46.443   7.679  12.372  0.00  0.00    +0.000 A 
ATOM      6  C   UNL     1      45.441   7.192  11.525  0.00  0.00    +0.000 A 
ENDROOT
BRANCH   1   7
ATOM      7  C   UNL     1      44.068   5.304  10.560  0.00  0.00    +0.000 C 
BRANCH   7  10
ATOM      8  C   UNL     1      45.584   4.593   8.754  0.00  0.00    +0.000 C 
ATOM      9  O   UNL     1      46.085   5.710   8.680  0.00  0.00    +0.000 OA
ATOM     10  N   UNL     1      44.561   4.314   9.633  0.00  0.00    +0.000 N 
ATOM     11  H   UNL     1      44.168   3.380   9.645  0.00  0.00    +0.000 HD
BRANCH   8  17
ATOM     12  C   UNL     1      46.088   2.105   8.247  0.00  0.00    +0.000 A 
ATOM     13  C   UNL     1      46.695   1.172   7.390  0.00  0.00    +0.000 A 
ATOM     14  C   UNL     1      47.280   1.569   6.186  0.00  0.00    +0.000 A 
ATOM     15  C   UNL     1      47.256   2.906   5.813  0.00  0.00    +0.000 A 
ATOM     16  C   UNL     1      46.675   3.850   6.662  0.00  0.00    +0.000 A 
ATOM     17  C   UNL     1      46.104   3.471   7.894  0.00  0.00    +0.000 A 
BRANCH  12  19
ATOM     18  C   UNL     1      44.118   1.335   9.362  0.00  0.00    +0.000 C 
ATOM     19  O   UNL     1      45.479   1.748   9.425  0.00  0.00    +0.000 OA
ENDBRANCH  12  19
ENDBRANCH   8  17
ENDBRANCH   7  10
ENDBRANCH   1   7
BRANCH   4  20
ATOM     20  C   UNL     1      48.234   7.359  14.120  0.00  0.00    +0.000 C 
BRANCH  20  21
ATOM     21  N   UNL     1      48.077   6.863  15.464  0.00  0.00    +0.000 N 
ATOM     22  C   UNL     1      49.150   6.406  16.189  0.00  0.00    +0.000 C 
ATOM     23  O   UNL     1      50.295   6.420  15.744  0.00  0.00    +0.000 OA
ATOM     24  H   UNL     1      47.142   6.595  15.745  0.00  0.00    +0.000 HD
BRANCH  22  25
ATOM     25  C   UNL     1      48.866   5.962  17.561  0.00  0.00    +0.000 A 
ATOM     26  C   UNL     1      49.098   4.644  17.926  0.00  0.00    +0.000 A 
ATOM     27  S   UNL     1      48.771   4.323  19.572  0.00  0.00    +0.000 S 
ATOM     28  C   UNL     1      48.255   5.922  19.838  0.00  0.00    +0.000 A 
ATOM     29  N   UNL     1      47.806   6.319  21.058  0.00  0.00    +0.000 NA
ATOM     30  C   UNL     1      47.418   7.551  21.108  0.00  0.00    +0.000 A 
ATOM     31  N   UNL     1      47.443   8.421  20.049  0.00  0.00    +0.000 N 
ATOM     32  C   UNL     1      47.915   8.073  18.807  0.00  0.00    +0.000 A 
ATOM     33  O   UNL     1      47.965   8.890  17.892  0.00  0.00    +0.000 OA
ATOM     34  C   UNL     1      48.352   6.695  18.692  0.00  0.00    +0.000 A 
ATOM     35  H   UNL     1      47.134   9.375  20.155  0.00  0.00    +0.000 HD
ENDBRANCH  22  25
ENDBRANCH  20  21
ENDBRANCH   4  20
TORSDOF 7
ENDMDL
MODEL 7
REMARK VINA RESULT:    -6.859      1.603      2.594
REMARK INTER + INTRA:         -10.792
REMARK INTER:                  -9.424
REMARK INTRA:                  -1.368
REMARK UNBOUND:                -1.126
REMARK  Name = 
REMARK  8 active torsions:
REMARK  status: ('A' for Active; 'I' for Inactive)
REMARK    1  A    between atoms: C_1  and  O_2
REMARK    2  A    between atoms: O_2  and  C_3
REMARK    3  A    between atoms: C_8  and  C_9
REMARK    4  A    between atoms: N_11  and  C_12
REMARK    5  A    between atoms: C_12  and  C_13
REMARK    6  A    between atoms: C_16  and  C_17
REMARK    7  A    between atoms: C_17  and  N_18
REMARK    8  A    between atoms: C_19  and  C_21
REMARK                            x       y       z     vdW  Elec       q    Type
REMARK                         _______ _______ _______ _____ _____    ______ ____
ROOT
ATOM      1  C   UNL     1      51.389   2.807  17.697  0.00  0.00    +0.000 A 
ATOM      2  C   UNL     1      50.558   1.872  17.064  0.00  0.00    +0.000 A 
ATOM      3  C   UNL     1      49.207   2.160  16.826  0.00  0.00    +0.000 A 
ATOM      4  C   UNL     1      48.664   3.397  17.199  0.00  0.00    +0.000 A 
ATOM      5  C   UNL     1      49.493   4.323  17.848  0.00  0.00    +0.000 A 
ATOM      6  C   UNL     1      50.843   4.036  18.083  0.00  0.00    +0.000 A 
ENDROOT
BRANCH   1   7
ATOM      7  C   UNL     1      52.848   2.508  17.943  0.00  0.00    +0.000 C 
BRANCH   7  10
ATOM      8  C   UNL     1      54.441   0.688  17.480  0.00  0.00    +0.000 C 
ATOM      9  O   UNL     1      55.371   1.478  17.360  0.00  0.00    +0.000 OA
ATOM     10  N   UNL     1      53.157   1.113  17.737  0.00  0.00    +0.000 N 
ATOM     11  H   UNL     1      52.419   0.422  17.811  0.00  0.00    +0.000 HD
BRANCH   8  17
ATOM     12  C   UNL     1      54.685  -1.692  18.469  0.00  0.00    +0.000 A 
ATOM     13  C   UNL     1      55.027  -3.037  18.246  0.00  0.00    +0.000 A 
ATOM     14  C   UNL     1      55.337  -3.501  16.966  0.00  0.00    +0.000 A 
ATOM     15  C   UNL     1      55.296  -2.632  15.885  0.00  0.00    +0.000 A 
ATOM     16  C   UNL     1      54.977  -1.288  16.092  0.00  0.00    +0.000 A 
ATOM     17  C   UNL     1      54.689  -0.794  17.380  0.00  0.00    +0.000 A 
BRANCH  12  19
ATOM     18  C   UNL     1      55.392  -1.077  20.669  0.00  0.00    +0.000 C 
ATOM     19  O   UNL     1      54.348  -1.205  19.708  0.00  0.00    +0.000 OA
ENDBRANCH  12  19
ENDBRANCH   8  17
ENDBRANCH   7  10
ENDBRANCH   1   7
BRANCH   4  20
ATOM     20  C   UNL     1      47.215   3.733  16.938  0.00  0.00    +0.000 C 
BRANCH  20  21
ATOM     21  N   UNL     1      47.080   4.736  15.913  0.00  0.00    +0.000 N 
ATOM     22  C   UNL     1      47.102   4.406  14.580  0.00  0.00    +0.000 C 
ATOM     23  O   UNL     1      47.210   3.245  14.195  0.00  0.00    +0.000 OA
ATOM     24  H   UNL     1      47.259   5.695  16.186  0.00  0.00    +0.000 HD
BRANCH  22  25
ATOM     25  C   UNL     1      46.918   5.514  13.632  0.00  0.00    +0.000 A 
ATOM     26  C   UNL     1      45.835   5.514  12.766  0.00  0.00    +0.000 A 
ATOM     27  S   UNL     1      45.747   6.907  11.781  0.00  0.00    +0.000 S 
ATOM     28  C   UNL     1      47.186   7.531  12.440  0.00  0.00    +0.000 A 
ATOM     29  N   UNL     1      47.700   8.712  12.007  0.00  0.00    +0.000 NA
ATOM     30  C   UNL     1      48.812   9.049  12.573  0.00  0.00    +0.000 A 
ATOM     31  N   UNL     1      49.452   8.313  13.537  0.00  0.00    +0.000 N 
ATOM     32  C   UNL     1      48.955   7.130  14.025  0.00  0.00    +0.000 A 
ATOM     33  O   UNL     1      49.532   6.517  14.920  0.00  0.00    +0.000 OA
ATOM     34  C   UNL     1      47.713   6.697  13.414  0.00  0.00    +0.000 A 
ATOM     35  H   UNL     1      50.316   8.635  13.947  0.00  0.00    +0.000 HD
ENDBRANCH  22  25
ENDBRANCH  20  21
ENDBRANCH   4  20
TORSDOF 7
ENDMDL
MODEL 8
REMARK VINA RESULT:    -6.831      7.797      8.897
REMARK INTER + INTRA:         -10.753
REMARK INTER:                  -9.662
REMARK INTRA:                  -1.090
REMARK UNBOUND:                -1.126
REMARK  Name = 
REMARK  8 active torsions:
REMARK  status: ('A' for Active; 'I' for Inactive)
REMARK    1  A    between atoms: C_1  and  O_2
REMARK    2  A    between atoms: O_2  and  C_3
REMARK    3  A    between atoms: C_8  and  C_9
REMARK    4  A    between atoms: N_11  and  C_12
REMARK    5  A    between atoms: C_12  and  C_13
REMARK    6  A    between atoms: C_16  and  C_17
REMARK    7  A    between atoms: C_17  and  N_18
REMARK    8  A    between atoms: C_19  and  C_21
REMARK                            x       y       z     vdW  Elec       q    Type
REMARK                         _______ _______ _______ _____ _____    ______ ____
ROOT
ATOM      1  C   UNL     1      50.390   8.832  11.329  0.00  0.00    +0.000 A 
ATOM      2  C   UNL     1      50.000   7.549  11.738  0.00  0.00    +0.000 A 
ATOM      3  C   UNL     1      48.718   7.321  12.257  0.00  0.00    +0.000 A 
ATOM      4  C   UNL     1      47.792   8.369  12.358  0.00  0.00    +0.000 A 
ATOM      5  C   UNL     1      48.191   9.654  11.964  0.00  0.00    +0.000 A 
ATOM      6  C   UNL     1      49.470   9.880  11.444  0.00  0.00    +0.000 A 
ENDROOT
BRANCH   1   7
ATOM      7  C   UNL     1      51.764   9.080  10.756  0.00  0.00    +0.000 C 
BRANCH   7  10
ATOM      8  C   UNL     1      53.473   7.963   9.380  0.00  0.00    +0.000 C 
ATOM      9  O   UNL     1      54.264   8.888   9.539  0.00  0.00    +0.000 OA
ATOM     10  N   UNL     1      52.207   7.991   9.920  0.00  0.00    +0.000 N 
ATOM     11  H   UNL     1      51.585   7.210   9.746  0.00  0.00    +0.000 HD
BRANCH   8  17
ATOM     12  C   UNL     1      53.299   6.311   7.395  0.00  0.00    +0.000 A 
ATOM     13  C   UNL     1      53.716   5.096   6.825  0.00  0.00    +0.000 A 
ATOM     14  C   UNL     1      54.721   4.328   7.418  0.00  0.00    +0.000 A 
ATOM     15  C   UNL     1      55.333   4.769   8.583  0.00  0.00    +0.000 A 
ATOM     16  C   UNL     1      54.916   5.965   9.172  0.00  0.00    +0.000 A 
ATOM     17  C   UNL     1      53.885   6.740   8.604  0.00  0.00    +0.000 A 
BRANCH  12  19
ATOM     18  C   UNL     1      52.770   8.252   6.101  0.00  0.00    +0.000 C 
ATOM     19  O   UNL     1      52.333   7.106   6.826  0.00  0.00    +0.000 OA
ENDBRANCH  12  19
ENDBRANCH   8  17
ENDBRANCH   7  10
ENDBRANCH   1   7
BRANCH   4  20
ATOM     20  C   UNL     1      46.401   8.141  12.900  0.00  0.00    +0.000 C 
BRANCH  20  21
ATOM     21  N   UNL     1      45.927   6.815  12.599  0.00  0.00    +0.000 N 
ATOM     22  C   UNL     1      44.879   6.606  11.735  0.00  0.00    +0.000 C 
ATOM     23  O   UNL     1      44.314   7.531  11.157  0.00  0.00    +0.000 OA
ATOM     24  H   UNL     1      46.184   6.080  13.247  0.00  0.00    +0.000 HD
BRANCH  22  25
ATOM     25  C   UNL     1      44.514   5.206  11.482  0.00  0.00    +0.000 A 
ATOM     26  C   UNL     1      43.778   4.499  12.420  0.00  0.00    +0.000 A 
ATOM     27  S   UNL     1      43.392   2.908  11.932  0.00  0.00    +0.000 S 
ATOM     28  C   UNL     1      44.246   3.092  10.471  0.00  0.00    +0.000 A 
ATOM     29  N   UNL     1      44.336   2.069   9.580  0.00  0.00    +0.000 NA
ATOM     30  C   UNL     1      45.039   2.340   8.529  0.00  0.00    +0.000 A 
ATOM     31  N   UNL     1      45.654   3.541   8.289  0.00  0.00    +0.000 N 
ATOM     32  C   UNL     1      45.565   4.610   9.146  0.00  0.00    +0.000 A 
ATOM     33  O   UNL     1      46.092   5.687   8.879  0.00  0.00    +0.000 OA
ATOM     34  C   UNL     1      44.797   4.357  10.350  0.00  0.00    +0.000 A 
ATOM     35  H   UNL     1      46.183   3.692   7.443  0.00  0.00    +0.000 HD
ENDBRANCH  22  25
ENDBRANCH  20  21
ENDBRANCH   4  20
TORSDOF 7
ENDMDL
MODEL 9
REMARK VINA RESULT:    -6.805      7.704     11.113
REMARK INTER + INTRA:         -10.716
REMARK INTER:                  -9.508
REMARK INTRA:                  -1.208
REMARK UNBOUND:                -1.126
REMARK  Name = 
REMARK  8 active torsions:
REMARK  status: ('A' for Active; 'I' for Inactive)
REMARK    1  A    between atoms: C_1  and  O_2
REMARK    2  A    between atoms: O_2  and  C_3
REMARK    3  A    between atoms: C_8  and  C_9
REMARK    4  A    between atoms: N_11  and  C_12
REMARK    5  A    between atoms: C_12  and  C_13
REMARK    6  A    between atoms: C_16  and  C_17
REMARK    7  A    between atoms: C_17  and  N_18
REMARK    8  A    between atoms: C_19  and  C_21
REMARK                            x       y       z     vdW  Elec       q    Type
REMARK                         _______ _______ _______ _____ _____    ______ ____
ROOT
ATOM      1  C   UNL     1      48.233   7.992  12.499  0.00  0.00    +0.000 A 
ATOM      2  C   UNL     1      49.428   7.279  12.331  0.00  0.00    +0.000 A 
ATOM      3  C   UNL     1      50.549   7.885  11.748  0.00  0.00    +0.000 A 
ATOM      4  C   UNL     1      50.504   9.226  11.340  0.00  0.00    +0.000 A 
ATOM      5  C   UNL     1      49.303   9.931  11.493  0.00  0.00    +0.000 A 
ATOM      6  C   UNL     1      48.185   9.326  12.078  0.00  0.00    +0.000 A 
ENDROOT
BRANCH   1   7
ATOM      7  C   UNL     1      47.027   7.348  13.139  0.00  0.00    +0.000 C 
BRANCH   7  10
ATOM      8  C   UNL     1      45.611   6.330  11.401  0.00  0.00    +0.000 C 
ATOM      9  O   UNL     1      45.075   7.405  11.151  0.00  0.00    +0.000 OA
ATOM     10  N   UNL     1      46.562   6.206  12.389  0.00  0.00    +0.000 N 
ATOM     11  H   UNL     1      46.963   5.293  12.569  0.00  0.00    +0.000 HD
BRANCH   8  17
ATOM     12  C   UNL     1      44.661   3.938  11.123  0.00  0.00    +0.000 A 
ATOM     13  C   UNL     1      44.474   2.829  10.281  0.00  0.00    +0.000 A 
ATOM     14  C   UNL     1      44.840   2.876   8.933  0.00  0.00    +0.000 A 
ATOM     15  C   UNL     1      45.385   4.037   8.404  0.00  0.00    +0.000 A 
ATOM     16  C   UNL     1      45.595   5.142   9.232  0.00  0.00    +0.000 A 
ATOM     17  C   UNL     1      45.259   5.104  10.600  0.00  0.00    +0.000 A 
BRANCH  12  19
ATOM     18  C   UNL     1      43.009   4.473  12.767  0.00  0.00    +0.000 C 
ATOM     19  O   UNL     1      44.289   3.938  12.446  0.00  0.00    +0.000 OA
ENDBRANCH  12  19
ENDBRANCH   8  17
ENDBRANCH   7  10
ENDBRANCH   1   7
BRANCH   4  20
ATOM     20  C   UNL     1      51.706   9.903  10.724  0.00  0.00    +0.000 C 
BRANCH  20  21
ATOM     21  N   UNL     1      52.070   9.295   9.470  0.00  0.00    +0.000 N 
ATOM     22  C   UNL     1      53.296   8.703   9.289  0.00  0.00    +0.000 C 
ATOM     23  O   UNL     1      54.130   8.637  10.188  0.00  0.00    +0.000 OA
ATOM     24  H   UNL     1      51.529   9.566   8.657  0.00  0.00    +0.000 HD
BRANCH  22  25
ATOM     25  C   UNL     1      53.533   8.086   7.977  0.00  0.00    +0.000 A 
ATOM     26  C   UNL     1      53.619   8.877   6.842  0.00  0.00    +0.000 A 
ATOM     27  S   UNL     1      53.959   7.998   5.417  0.00  0.00    +0.000 S 
ATOM     28  C   UNL     1      53.948   6.521   6.262  0.00  0.00    +0.000 A 
ATOM     29  N   UNL     1      54.151   5.343   5.615  0.00  0.00    +0.000 NA
ATOM     30  C   UNL     1      54.086   4.300   6.375  0.00  0.00    +0.000 A 
ATOM     31  N   UNL     1      53.841   4.330   7.724  0.00  0.00    +0.000 N 
ATOM     32  C   UNL     1      53.660   5.497   8.423  0.00  0.00    +0.000 A 
ATOM     33  O   UNL     1      53.486   5.492   9.640  0.00  0.00    +0.000 OA
ATOM     34  C   UNL     1      53.710   6.700   7.615  0.00  0.00    +0.000 A 
ATOM     35  H   UNL     1      53.810   3.479   8.264  0.00  0.00    +0.000 HD
ENDBRANCH  22  25
ENDBRANCH  20  21
ENDBRANCH   4  20
TORSDOF 7
ENDMDL
