MODEL 1
REMARK VINA RESULT:    -7.990      0.000      0.000
REMARK INTER + INTRA:         -11.839
REMARK INTER:                 -10.792
REMARK INTRA:                  -1.047
REMARK UNBOUND:                -1.047
REMARK  Name = 
REMARK  7 active torsions:
REMARK  status: ('A' for Active; 'I' for Inactive)
REMARK    1  A    between atoms: C_1  and  O_2
REMARK    2  A    between atoms: O_2  and  C_3
REMARK    3  A    between atoms: C_6  and  C_7
REMARK    4  A    between atoms: C_7  and  C_8
REMARK    5  A    between atoms: C_11  and  C_12
REMARK    6  A    between atoms: C_12  and  N_13
REMARK    7  A    between atoms: C_14  and  C_16
REMARK                            x       y       z     vdW  Elec       q    Type
REMARK                         _______ _______ _______ _____ _____    ______ ____
ROOT
ATOM      1  C   UNL     1      47.204   8.109  13.518  0.00  0.00    +0.000 C 
ENDROOT
BRANCH   1   5
ATOM      2  C   UNL     1      44.741   5.545  11.160  0.00  0.00    +0.000 A 
ATOM      3  C   UNL     1      44.467   6.913  11.192  0.00  0.00    +0.000 A 
ATOM      4  C   UNL     1      45.258   7.759  11.963  0.00  0.00    +0.000 A 
ATOM      5  C   UNL     1      46.301   7.215  12.705  0.00  0.00    +0.000 A 
ATOM      6  N   UNL     1      46.583   5.887  12.697  0.00  0.00    +0.000 NA
ATOM      7  C   UNL     1      45.809   5.091  11.927  0.00  0.00    +0.000 A 
BRANCH   2   8
ATOM      8  C   UNL     1      43.946   4.607  10.296  0.00  0.00    +0.000 C 
BRANCH   8  12
ATOM      9  C   UNL     1      46.303   2.203   7.708  0.00  0.00    +0.000 A 
ATOM     10  C   UNL     1      46.336   3.574   7.516  0.00  0.00    +0.000 A 
ATOM     11  C   UNL     1      45.572   4.379   8.359  0.00  0.00    +0.000 A 
ATOM     12  C   UNL     1      44.797   3.788   9.362  0.00  0.00    +0.000 A 
ATOM     13  C   UNL     1      44.855   2.403   9.480  0.00  0.00    +0.000 A 
ATOM     14  N   UNL     1      45.585   1.600   8.676  0.00  0.00    +0.000 NA
BRANCH   9  16
ATOM     15  C   UNL     1      47.836   2.233   5.948  0.00  0.00    +0.000 C 
ATOM     16  O   UNL     1      47.052   1.440   6.834  0.00  0.00    +0.000 OA
ENDBRANCH   9  16
ENDBRANCH   8  12
ENDBRANCH   2   8
ENDBRANCH   1   5
BRANCH   1  17
ATOM     17  N   UNL     1      47.682   7.457  14.718  0.00  0.00    +0.000 N 
ATOM     18  C   UNL     1      48.961   6.984  14.835  0.00  0.00    +0.000 C 
ATOM     19  O   UNL     1      49.776   7.081  13.920  0.00  0.00    +0.000 OA
ATOM     20  H   UNL     1      46.968   7.158  15.374  0.00  0.00    +0.000 HD
BRANCH  18  21
ATOM     21  C   UNL     1      49.340   6.417  16.137  0.00  0.00    +0.000 A 
ATOM     22  C   UNL     1      50.349   7.022  16.876  0.00  0.00    +0.000 A 
ATOM     23  S   UNL     1      50.640   6.278  18.382  0.00  0.00    +0.000 S 
ATOM     24  C   UNL     1      49.458   5.092  18.083  0.00  0.00    +0.000 A 
ATOM     25  N   UNL     1      49.217   4.105  18.988  0.00  0.00    +0.000 NA
ATOM     26  C   UNL     1      48.322   3.251  18.619  0.00  0.00    +0.000 A 
ATOM     27  N   UNL     1      47.635   3.302  17.433  0.00  0.00    +0.000 N 
ATOM     28  C   UNL     1      47.806   4.311  16.517  0.00  0.00    +0.000 A 
ATOM     29  O   UNL     1      47.110   4.382  15.510  0.00  0.00    +0.000 OA
ATOM     30  C   UNL     1      48.832   5.276  16.863  0.00  0.00    +0.000 A 
ATOM     31  H   UNL     1      46.930   2.615  17.212  0.00  0.00    +0.000 HD
ENDBRANCH  18  21
ENDBRANCH   1  17
TORSDOF 6
ENDMDL
MODEL 2
REMARK VINA RESULT:    -7.651      2.230      3.864
REMARK INTER + INTRA:         -11.381
REMARK INTER:                 -10.270
REMARK INTRA:                  -1.111
REMARK UNBOUND:                -1.047
REMARK  Name = 
REMARK  7 active torsions:
REMARK  status: ('A' for Active; 'I' for Inactive)
REMARK    1  A    between atoms: C_1  and  O_2
REMARK    2  A    between atoms: O_2  and  C_3
REMARK    3  A    between atoms: C_6  and  C_7
REMARK    4  A    between atoms: C_7  and  C_8
REMARK    5  A    between atoms: C_11  and  C_12
REMARK    6  A    between atoms: C_12  and  N_13
REMARK    7  A    between atoms: C_14  and  C_16
REMARK                            x       y       z     vdW  Elec       q    Type
REMARK                         _______ _______ _______ _____ _____    ______ ____
ROOT
ATOM      1  C   UNL     1      47.096   4.965  14.879  0.00  0.00    +0.000 C 
ENDROOT
BRANCH   1   5
ATOM      2  C   UNL     1      45.016   4.120  11.250  0.00  0.00    +0.000 A 
ATOM      3  C   UNL     1      45.481   5.415  11.484  0.00  0.00    +0.000 A 
ATOM      4  C   UNL     1      46.154   5.705  12.667  0.00  0.00    +0.000 A 
ATOM      5  C   UNL     1      46.333   4.694  13.606  0.00  0.00    +0.000 A 
ATOM      6  N   UNL     1      45.883   3.429  13.406  0.00  0.00    +0.000 NA
ATOM      7  C   UNL     1      45.247   3.172  12.242  0.00  0.00    +0.000 A 
BRANCH   2   8
ATOM      8  C   UNL     1      44.334   3.753   9.962  0.00  0.00    +0.000 C 
BRANCH   8  12
ATOM      9  C   UNL     1      46.940   1.977   7.118  0.00  0.00    +0.000 A 
ATOM     10  C   UNL     1      46.760   3.349   7.054  0.00  0.00    +0.000 A 
ATOM     11  C   UNL     1      45.913   3.949   7.982  0.00  0.00    +0.000 A 
ATOM     12  C   UNL     1      45.268   3.160   8.940  0.00  0.00    +0.000 A 
ATOM     13  C   UNL     1      45.537   1.795   8.927  0.00  0.00    +0.000 A 
ATOM     14  N   UNL     1      46.352   1.187   8.039  0.00  0.00    +0.000 NA
BRANCH   9  16
ATOM     15  C   UNL     1      47.993   2.288   5.059  0.00  0.00    +0.000 C 
ATOM     16  O   UNL     1      47.766   1.418   6.162  0.00  0.00    +0.000 OA
ENDBRANCH   9  16
ENDBRANCH   8  12
ENDBRANCH   2   8
ENDBRANCH   1   5
BRANCH   1  17
ATOM     17  N   UNL     1      47.793   6.232  14.838  0.00  0.00    +0.000 N 
ATOM     18  C   UNL     1      48.924   6.471  15.572  0.00  0.00    +0.000 C 
ATOM     19  O   UNL     1      49.408   5.620  16.314  0.00  0.00    +0.000 OA
ATOM     20  H   UNL     1      47.280   7.007  14.428  0.00  0.00    +0.000 HD
BRANCH  18  21
ATOM     21  C   UNL     1      49.578   7.772  15.374  0.00  0.00    +0.000 A 
ATOM     22  C   UNL     1      49.876   8.561  16.478  0.00  0.00    +0.000 A 
ATOM     23  S   UNL     1      50.676  10.015  16.089  0.00  0.00    +0.000 S 
ATOM     24  C   UNL     1      50.613   9.666  14.425  0.00  0.00    +0.000 A 
ATOM     25  N   UNL     1      51.114  10.540  13.511  0.00  0.00    +0.000 NA
ATOM     26  C   UNL     1      50.969  10.168  12.283  0.00  0.00    +0.000 A 
ATOM     27  N   UNL     1      50.382   8.994  11.887  0.00  0.00    +0.000 N 
ATOM     28  C   UNL     1      49.915   8.057  12.778  0.00  0.00    +0.000 A 
ATOM     29  O   UNL     1      49.482   6.975  12.396  0.00  0.00    +0.000 OA
ATOM     30  C   UNL     1      50.015   8.444  14.171  0.00  0.00    +0.000 A 
ATOM     31  H   UNL     1      50.318   8.749  10.910  0.00  0.00    +0.000 HD
ENDBRANCH  18  21
ENDBRANCH   1  17
TORSDOF 6
ENDMDL
MODEL 3
REMARK VINA RESULT:    -7.313      2.503      3.604
REMARK INTER + INTRA:         -10.925
REMARK INTER:                  -9.989
REMARK INTRA:                  -0.936
REMARK UNBOUND:                -1.047
REMARK  Name = 
REMARK  7 active torsions:
REMARK  status: ('A' for Active; 'I' for Inactive)
REMARK    1  A    between atoms: C_1  and  O_2
REMARK    2  A    between atoms: O_2  and  C_3
REMARK    3  A    between atoms: C_6  and  C_7
REMARK    4  A    between atoms: C_7  and  C_8
REMARK    5  A    between atoms: C_11  and  C_12
REMARK    6  A    between atoms: C_12  and  N_13
REMARK    7  A    between atoms: C_14  and  C_16
REMARK                            x       y       z     vdW  Elec       q    Type
REMARK                         _______ _______ _______ _____ _____    ______ ____
ROOT
ATOM      1  C   UNL     1      47.539   4.192  15.666  0.00  0.00    +0.000 C 
ENDROOT
BRANCH   1   5
ATOM      2  C   UNL     1      45.539   5.339  12.076  0.00  0.00    +0.000 A 
ATOM      3  C   UNL     1      46.749   5.949  12.406  0.00  0.00    +0.000 A 
ATOM      4  C   UNL     1      47.408   5.589  13.578  0.00  0.00    +0.000 A 
ATOM      5  C   UNL     1      46.830   4.635  14.410  0.00  0.00    +0.000 A 
ATOM      6  N   UNL     1      45.650   4.034  14.116  0.00  0.00    +0.000 NA
ATOM      7  C   UNL     1      45.040   4.391  12.964  0.00  0.00    +0.000 A 
BRANCH   2   8
ATOM      8  C   UNL     1      44.824   5.659  10.793  0.00  0.00    +0.000 C 
BRANCH   8  12
ATOM      9  C   UNL     1      46.082   3.270   7.515  0.00  0.00    +0.000 A 
ATOM     10  C   UNL     1      45.162   2.722   8.393  0.00  0.00    +0.000 A 
ATOM     11  C   UNL     1      44.734   3.493   9.471  0.00  0.00    +0.000 A 
ATOM     12  C   UNL     1      45.243   4.783   9.642  0.00  0.00    +0.000 A 
ATOM     13  C   UNL     1      46.147   5.244   8.688  0.00  0.00    +0.000 A 
ATOM     14  N   UNL     1      46.579   4.518   7.635  0.00  0.00    +0.000 NA
BRANCH   9  16
ATOM     15  C   UNL     1      47.703   1.761   6.778  0.00  0.00    +0.000 C 
ATOM     16  O   UNL     1      46.501   2.463   6.476  0.00  0.00    +0.000 OA
ENDBRANCH   9  16
ENDBRANCH   8  12
ENDBRANCH   2   8
ENDBRANCH   1   5
BRANCH   1  17
ATOM     17  N   UNL     1      47.521   5.212  16.691  0.00  0.00    +0.000 N 
ATOM     18  C   UNL     1      48.624   5.964  16.997  0.00  0.00    +0.000 C 
ATOM     19  O   UNL     1      49.697   5.808  16.418  0.00  0.00    +0.000 OA
ATOM     20  H   UNL     1      46.732   5.186  17.329  0.00  0.00    +0.000 HD
BRANCH  18  21
ATOM     21  C   UNL     1      48.446   7.022  18.002  0.00  0.00    +0.000 A 
ATOM     22  C   UNL     1      48.465   6.691  19.351  0.00  0.00    +0.000 A 
ATOM     23  S   UNL     1      48.293   8.031  20.390  0.00  0.00    +0.000 S 
ATOM     24  C   UNL     1      48.142   9.099  19.074  0.00  0.00    +0.000 A 
ATOM     25  N   UNL     1      47.940  10.429  19.276  0.00  0.00    +0.000 NA
ATOM     26  C   UNL     1      47.806  11.118  18.192  0.00  0.00    +0.000 A 
ATOM     27  N   UNL     1      47.872  10.600  16.924  0.00  0.00    +0.000 N 
ATOM     28  C   UNL     1      48.132   9.274  16.674  0.00  0.00    +0.000 A 
ATOM     29  O   UNL     1      48.279   8.859  15.530  0.00  0.00    +0.000 OA
ATOM     30  C   UNL     1      48.248   8.446  17.858  0.00  0.00    +0.000 A 
ATOM     31  H   UNL     1      47.781  11.196  16.115  0.00  0.00    +0.000 HD
ENDBRANCH  18  21
ENDBRANCH   1  17
TORSDOF 6
ENDMDL
MODEL 4
REMARK VINA RESULT:    -6.834      2.322      3.361
REMARK INTER + INTRA:         -10.278
REMARK INTER:                  -9.325
REMARK INTRA:                  -0.954
REMARK UNBOUND:                -1.047
REMARK  Name = 
REMARK  7 active torsions:
REMARK  status: ('A' for Active; 'I' for Inactive)
REMARK    1  A    between atoms: C_1  and  O_2
REMARK    2  A    between atoms: O_2  and  C_3
REMARK    3  A    between atoms: C_6  and  C_7
REMARK    4  A    between atoms: C_7  and  C_8
REMARK    5  A    between atoms: C_11  and  C_12
REMARK    6  A    between atoms: C_12  and  N_13
REMARK    7  A    between atoms: C_14  and  C_16
REMARK                            x       y       z     vdW  Elec       q    Type
REMARK                         _______ _______ _______ _____ _____    ______ ____
ROOT
ATOM      1  C   UNL     1      47.430   4.284  15.576  0.00  0.00    +0.000 C 
ENDROOT
BRANCH   1   5
ATOM      2  C   UNL     1      45.455   5.347  11.947  0.00  0.00    +0.000 A 
ATOM      3  C   UNL     1      46.626   6.015  12.307  0.00  0.00    +0.000 A 
ATOM      4  C   UNL     1      47.275   5.683  13.492  0.00  0.00    +0.000 A 
ATOM      5  C   UNL     1      46.728   4.697  14.307  0.00  0.00    +0.000 A 
ATOM      6  N   UNL     1      45.586   4.038  13.983  0.00  0.00    +0.000 NA
ATOM      7  C   UNL     1      44.985   4.370  12.820  0.00  0.00    +0.000 A 
BRANCH   2   8
ATOM      8  C   UNL     1      44.755   5.637  10.649  0.00  0.00    +0.000 C 
BRANCH   8  12
ATOM      9  C   UNL     1      46.105   3.226   7.425  0.00  0.00    +0.000 A 
ATOM     10  C   UNL     1      45.158   2.685   8.277  0.00  0.00    +0.000 A 
ATOM     11  C   UNL     1      44.700   3.463   9.338  0.00  0.00    +0.000 A 
ATOM     12  C   UNL     1      45.206   4.754   9.516  0.00  0.00    +0.000 A 
ATOM     13  C   UNL     1      46.139   5.206   8.588  0.00  0.00    +0.000 A 
ATOM     14  N   UNL     1      46.601   4.474   7.553  0.00  0.00    +0.000 NA
BRANCH   9  16
ATOM     15  C   UNL     1      47.838   1.857   6.670  0.00  0.00    +0.000 C 
ATOM     16  O   UNL     1      46.554   2.412   6.403  0.00  0.00    +0.000 OA
ENDBRANCH   9  16
ENDBRANCH   8  12
ENDBRANCH   2   8
ENDBRANCH   1   5
BRANCH   1  17
ATOM     17  N   UNL     1      47.984   5.415  16.287  0.00  0.00    +0.000 N 
ATOM     18  C   UNL     1      47.894   5.544  17.647  0.00  0.00    +0.000 C 
ATOM     19  O   UNL     1      47.329   4.702  18.343  0.00  0.00    +0.000 OA
ATOM     20  H   UNL     1      48.232   6.218  15.717  0.00  0.00    +0.000 HD
BRANCH  18  21
ATOM     21  C   UNL     1      48.572   6.700  18.249  0.00  0.00    +0.000 A 
ATOM     22  C   UNL     1      47.868   7.528  19.116  0.00  0.00    +0.000 A 
ATOM     23  S   UNL     1      48.804   8.795  19.768  0.00  0.00    +0.000 S 
ATOM     24  C   UNL     1      50.172   8.312  18.880  0.00  0.00    +0.000 A 
ATOM     25  N   UNL     1      51.338   9.009  18.962  0.00  0.00    +0.000 NA
ATOM     26  C   UNL     1      52.284   8.556  18.210  0.00  0.00    +0.000 A 
ATOM     27  N   UNL     1      52.175   7.459  17.394  0.00  0.00    +0.000 N 
ATOM     28  C   UNL     1      51.037   6.693  17.323  0.00  0.00    +0.000 A 
ATOM     29  O   UNL     1      51.002   5.665  16.657  0.00  0.00    +0.000 OA
ATOM     30  C   UNL     1      49.927   7.183  18.118  0.00  0.00    +0.000 A 
ATOM     31  H   UNL     1      52.960   7.141  16.845  0.00  0.00    +0.000 HD
ENDBRANCH  18  21
ENDBRANCH   1  17
TORSDOF 6
ENDMDL
MODEL 5
REMARK VINA RESULT:    -6.262      3.138      4.993
REMARK INTER + INTRA:          -9.504
REMARK INTER:                  -8.592
REMARK INTRA:                  -0.913
REMARK UNBOUND:                -1.047
REMARK  Name = 
REMARK  7 active torsions:
REMARK  status: ('A' for Active; 'I' for Inactive)
REMARK    1  A    between atoms: C_1  and  O_2
REMARK    2  A    between atoms: O_2  and  C_3
REMARK    3  A    between atoms: C_6  and  C_7
REMARK    4  A    between atoms: C_7  and  C_8
REMARK    5  A    between atoms: C_11  and  C_12
REMARK    6  A    between atoms: C_12  and  N_13
REMARK    7  A    between atoms: C_14  and  C_16
REMARK                            x       y       z     vdW  Elec       q    Type
REMARK                         _______ _______ _______ _____ _____    ______ ____
ROOT
ATOM      1  C   UNL     1      47.591   6.809  14.240  0.00  0.00    +0.000 C 
ENDROOT
BRANCH   1   5
ATOM      2  C   UNL     1      45.213   4.875  11.272  0.00  0.00    +0.000 A 
ATOM      3  C   UNL     1      45.155   4.425  12.591  0.00  0.00    +0.000 A 
ATOM      4  C   UNL     1      45.932   5.042  13.567  0.00  0.00    +0.000 A 
ATOM      5  C   UNL     1      46.769   6.091  13.199  0.00  0.00    +0.000 A 
ATOM      6  N   UNL     1      46.849   6.542  11.921  0.00  0.00    +0.000 NA
ATOM      7  C   UNL     1      46.073   5.934  10.997  0.00  0.00    +0.000 A 
BRANCH   2   8
ATOM      8  C   UNL     1      44.349   4.273  10.200  0.00  0.00    +0.000 C 
BRANCH   8  12
ATOM      9  C   UNL     1      46.519   2.005   7.338  0.00  0.00    +0.000 A 
ATOM     10  C   UNL     1      46.425   3.371   7.137  0.00  0.00    +0.000 A 
ATOM     11  C   UNL     1      45.722   4.132   8.068  0.00  0.00    +0.000 A 
ATOM     12  C   UNL     1      45.129   3.503   9.166  0.00  0.00    +0.000 A 
ATOM     13  C   UNL     1      45.303   2.127   9.284  0.00  0.00    +0.000 A 
ATOM     14  N   UNL     1      45.978   1.366   8.397  0.00  0.00    +0.000 NA
BRANCH   9  16
ATOM     15  C   UNL     1      47.870   2.119   5.439  0.00  0.00    +0.000 C 
ATOM     16  O   UNL     1      47.201   1.284   6.378  0.00  0.00    +0.000 OA
ENDBRANCH   9  16
ENDBRANCH   8  12
ENDBRANCH   2   8
ENDBRANCH   1   5
BRANCH   1  17
ATOM     17  N   UNL     1      48.667   7.577  13.651  0.00  0.00    +0.000 N 
ATOM     18  C   UNL     1      49.317   8.570  14.332  0.00  0.00    +0.000 C 
ATOM     19  O   UNL     1      49.017   8.871  15.486  0.00  0.00    +0.000 OA
ATOM     20  H   UNL     1      48.760   7.508  12.642  0.00  0.00    +0.000 HD
BRANCH  18  21
ATOM     21  C   UNL     1      50.446   9.215  13.645  0.00  0.00    +0.000 A 
ATOM     22  C   UNL     1      51.718   9.127  14.195  0.00  0.00    +0.000 A 
ATOM     23  S   UNL     1      52.926   9.883  13.258  0.00  0.00    +0.000 S 
ATOM     24  C   UNL     1      51.785  10.395  12.105  0.00  0.00    +0.000 A 
ATOM     25  N   UNL     1      52.165  11.135  11.029  0.00  0.00    +0.000 NA
ATOM     26  C   UNL     1      51.194  11.487  10.254  0.00  0.00    +0.000 A 
ATOM     27  N   UNL     1      49.879  11.153  10.450  0.00  0.00    +0.000 N 
ATOM     28  C   UNL     1      49.458  10.361  11.490  0.00  0.00    +0.000 A 
ATOM     29  O   UNL     1      48.290  10.002  11.585  0.00  0.00    +0.000 OA
ATOM     30  C   UNL     1      50.504   9.972  12.416  0.00  0.00    +0.000 A 
ATOM     31  H   UNL     1      49.168  11.441   9.794  0.00  0.00    +0.000 HD
ENDBRANCH  18  21
ENDBRANCH   1  17
TORSDOF 6
ENDMDL
MODEL 6
REMARK VINA RESULT:    -6.225      4.265      8.612
REMARK INTER + INTRA:          -9.455
REMARK INTER:                  -8.454
REMARK INTRA:                  -1.001
REMARK UNBOUND:                -1.047
REMARK  Name = 
REMARK  7 active torsions:
REMARK  status: ('A' for Active; 'I' for Inactive)
REMARK    1  A    between atoms: C_1  and  O_2
REMARK    2  A    between atoms: O_2  and  C_3
REMARK    3  A    between atoms: C_6  and  C_7
REMARK    4  A    between atoms: C_7  and  C_8
REMARK    5  A    between atoms: C_11  and  C_12
REMARK    6  A    between atoms: C_12  and  N_13
REMARK    7  A    between atoms: C_14  and  C_16
REMARK                            x       y       z     vdW  Elec       q    Type
REMARK                         _______ _______ _______ _____ _____    ______ ____
ROOT
ATOM      1  C   UNL     1      44.167   3.446  11.962  0.00  0.00    +0.000 C 
ENDROOT
BRANCH   1   5
ATOM      2  C   UNL     1      46.094   7.188  12.661  0.00  0.00    +0.000 A 
ATOM      3  C   UNL     1      46.558   6.049  13.319  0.00  0.00    +0.000 A 
ATOM      4  C   UNL     1      45.933   4.825  13.106  0.00  0.00    +0.000 A 
ATOM      5  C   UNL     1      44.839   4.766  12.248  0.00  0.00    +0.000 A 
ATOM      6  N   UNL     1      44.364   5.860  11.602  0.00  0.00    +0.000 NA
ATOM      7  C   UNL     1      44.999   7.034  11.815  0.00  0.00    +0.000 A 
BRANCH   2   8
ATOM      8  C   UNL     1      46.775   8.519  12.820  0.00  0.00    +0.000 C 
BRANCH   8  12
ATOM      9  C   UNL     1      51.003   8.353  12.453  0.00  0.00    +0.000 A 
ATOM     10  C   UNL     1      50.248   7.929  11.373  0.00  0.00    +0.000 A 
ATOM     11  C   UNL     1      48.860   7.980  11.474  0.00  0.00    +0.000 A 
ATOM     12  C   UNL     1      48.270   8.449  12.651  0.00  0.00    +0.000 A 
ATOM     13  C   UNL     1      49.122   8.871  13.667  0.00  0.00    +0.000 A 
ATOM     14  N   UNL     1      50.470   8.831  13.597  0.00  0.00    +0.000 NA
BRANCH   9  16
ATOM     15  C   UNL     1      53.061   8.593  13.526  0.00  0.00    +0.000 C 
ATOM     16  O   UNL     1      52.374   8.260  12.324  0.00  0.00    +0.000 OA
ENDBRANCH   9  16
ENDBRANCH   8  12
ENDBRANCH   2   8
ENDBRANCH   1   5
BRANCH   1  17
ATOM     17  N   UNL     1      44.875   2.678  10.962  0.00  0.00    +0.000 N 
ATOM     18  C   UNL     1      44.627   2.812   9.622  0.00  0.00    +0.000 C 
ATOM     19  O   UNL     1      43.780   3.593   9.193  0.00  0.00    +0.000 OA
ATOM     20  H   UNL     1      45.392   1.874  11.305  0.00  0.00    +0.000 HD
BRANCH  18  21
ATOM     21  C   UNL     1      45.476   2.032   8.711  0.00  0.00    +0.000 A 
ATOM     22  C   UNL     1      45.413   0.645   8.740  0.00  0.00    +0.000 A 
ATOM     23  S   UNL     1      46.420  -0.114   7.593  0.00  0.00    +0.000 S 
ATOM     24  C   UNL     1      47.012   1.383   7.044  0.00  0.00    +0.000 A 
ATOM     25  N   UNL     1      47.953   1.443   6.063  0.00  0.00    +0.000 NA
ATOM     26  C   UNL     1      48.340   2.639   5.769  0.00  0.00    +0.000 A 
ATOM     27  N   UNL     1      47.862   3.781   6.357  0.00  0.00    +0.000 N 
ATOM     28  C   UNL     1      46.873   3.770   7.310  0.00  0.00    +0.000 A 
ATOM     29  O   UNL     1      46.399   4.813   7.748  0.00  0.00    +0.000 OA
ATOM     30  C   UNL     1      46.431   2.449   7.709  0.00  0.00    +0.000 A 
ATOM     31  H   UNL     1      48.190   4.691   6.067  0.00  0.00    +0.000 HD
ENDBRANCH  18  21
ENDBRANCH   1  17
TORSDOF 6
ENDMDL
MODEL 7
REMARK VINA RESULT:    -6.141      3.069      4.511
REMARK INTER + INTRA:          -9.341
REMARK INTER:                  -8.680
REMARK INTRA:                  -0.661
REMARK UNBOUND:                -1.047
REMARK  Name = 
REMARK  7 active torsions:
REMARK  status: ('A' for Active; 'I' for Inactive)
REMARK    1  A    between atoms: C_1  and  O_2
REMARK    2  A    between atoms: O_2  and  C_3
REMARK    3  A    between atoms: C_6  and  C_7
REMARK    4  A    between atoms: C_7  and  C_8
REMARK    5  A    between atoms: C_11  and  C_12
REMARK    6  A    between atoms: C_12  and  N_13
REMARK    7  A    between atoms: C_14  and  C_16
REMARK                            x       y       z     vdW  Elec       q    Type
REMARK                         _______ _______ _______ _____ _____    ______ ____
ROOT
ATOM      1  C   UNL     1      46.655   6.219  14.380  0.00  0.00    +0.000 C 
ENDROOT
BRANCH   1   5
ATOM      2  C   UNL     1      44.869   4.202  11.072  0.00  0.00    +0.000 A 
ATOM      3  C   UNL     1      45.430   3.452  12.105  0.00  0.00    +0.000 A 
ATOM      4  C   UNL     1      46.022   4.097  13.186  0.00  0.00    +0.000 A 
ATOM      5  C   UNL     1      46.058   5.488  13.203  0.00  0.00    +0.000 A 
ATOM      6  N   UNL     1      45.527   6.241  12.207  0.00  0.00    +0.000 NA
ATOM      7  C   UNL     1      44.944   5.588  11.177  0.00  0.00    +0.000 A 
BRANCH   2   8
ATOM      8  C   UNL     1      44.170   3.545   9.915  0.00  0.00    +0.000 C 
BRANCH   8  12
ATOM      9  C   UNL     1      46.819   1.880   7.043  0.00  0.00    +0.000 A 
ATOM     10  C   UNL     1      46.552   3.235   6.959  0.00  0.00    +0.000 A 
ATOM     11  C   UNL     1      45.689   3.800   7.895  0.00  0.00    +0.000 A 
ATOM     12  C   UNL     1      45.117   2.992   8.882  0.00  0.00    +0.000 A 
ATOM     13  C   UNL     1      45.471   1.646   8.888  0.00  0.00    +0.000 A 
ATOM     14  N   UNL     1      46.303   1.073   7.992  0.00  0.00    +0.000 NA
BRANCH   9  16
ATOM     15  C   UNL     1      47.943   2.282   5.037  0.00  0.00    +0.000 C 
ATOM     16  O   UNL     1      47.658   1.354   6.079  0.00  0.00    +0.000 OA
ENDBRANCH   9  16
ENDBRANCH   8  12
ENDBRANCH   2   8
ENDBRANCH   1   5
BRANCH   1  17
ATOM     17  N   UNL     1      47.449   7.357  13.971  0.00  0.00    +0.000 N 
ATOM     18  C   UNL     1      48.598   7.224  13.238  0.00  0.00    +0.000 C 
ATOM     19  O   UNL     1      49.024   6.125  12.892  0.00  0.00    +0.000 OA
ATOM     20  H   UNL     1      47.247   8.231  14.445  0.00  0.00    +0.000 HD
BRANCH  18  21
ATOM     21  C   UNL     1      49.262   8.466  12.819  0.00  0.00    +0.000 A 
ATOM     22  C   UNL     1      48.722   9.211  11.778  0.00  0.00    +0.000 A 
ATOM     23  S   UNL     1      49.578  10.646  11.442  0.00  0.00    +0.000 S 
ATOM     24  C   UNL     1      50.730  10.303  12.646  0.00  0.00    +0.000 A 
ATOM     25  N   UNL     1      51.780  11.140  12.865  0.00  0.00    +0.000 NA
ATOM     26  C   UNL     1      52.597  10.742  13.782  0.00  0.00    +0.000 A 
ATOM     27  N   UNL     1      52.452   9.589  14.509  0.00  0.00    +0.000 N 
ATOM     28  C   UNL     1      51.379   8.744  14.360  0.00  0.00    +0.000 A 
ATOM     29  O   UNL     1      51.228   7.771  15.091  0.00  0.00    +0.000 OA
ATOM     30  C   UNL     1      50.451   9.123  13.314  0.00  0.00    +0.000 A 
ATOM     31  H   UNL     1      53.116   9.343  15.229  0.00  0.00    +0.000 HD
ENDBRANCH  18  21
ENDBRANCH   1  17
TORSDOF 6
ENDMDL
MODEL 8
REMARK VINA RESULT:    -6.140      3.865      4.717
REMARK INTER + INTRA:          -9.341
REMARK INTER:                  -8.398
REMARK INTRA:                  -0.942
REMARK UNBOUND:                -1.047
REMARK  Name = 
REMARK  7 active torsions:
REMARK  status: ('A' for Active; 'I' for Inactive)
REMARK    1  A    between atoms: C_1  and  O_2
REMARK    2  A    between atoms: O_2  and  C_3
REMARK    3  A    between atoms: C_6  and  C_7
REMARK    4  A    between atoms: C_7  and  C_8
REMARK    5  A    between atoms: C_11  and  C_12
REMARK    6  A    between atoms: C_12  and  N_13
REMARK    7  A    between atoms: C_14  and  C_16
REMARK                            x       y       z     vdW  Elec       q    Type
REMARK                         _______ _______ _______ _____ _____    ______ ____
ROOT
ATOM      1  C   UNL     1      44.841   7.178  13.160  0.00  0.00    +0.000 C 
ENDROOT
BRANCH   1   5
ATOM      2  C   UNL     1      44.406   3.805  10.584  0.00  0.00    +0.000 A 
ATOM      3  C   UNL     1      45.582   3.953  11.320  0.00  0.00    +0.000 A 
ATOM      4  C   UNL     1      45.740   5.053  12.157  0.00  0.00    +0.000 A 
ATOM      5  C   UNL     1      44.720   5.997  12.229  0.00  0.00    +0.000 A 
ATOM      6  N   UNL     1      43.570   5.880  11.518  0.00  0.00    +0.000 NA
ATOM      7  C   UNL     1      43.438   4.794  10.724  0.00  0.00    +0.000 A 
BRANCH   2   8
ATOM      8  C   UNL     1      44.174   2.603   9.711  0.00  0.00    +0.000 C 
BRANCH   8  12
ATOM      9  C   UNL     1      47.328   2.010   6.930  0.00  0.00    +0.000 A 
ATOM     10  C   UNL     1      46.841   0.897   7.595  0.00  0.00    +0.000 A 
ATOM     11  C   UNL     1      45.804   1.072   8.508  0.00  0.00    +0.000 A 
ATOM     12  C   UNL     1      45.289   2.353   8.731  0.00  0.00    +0.000 A 
ATOM     13  C   UNL     1      45.837   3.397   7.992  0.00  0.00    +0.000 A 
ATOM     14  N   UNL     1      46.843   3.256   7.103  0.00  0.00    +0.000 NA
BRANCH   9  16
ATOM     15  C   UNL     1      48.096   2.272   4.742  0.00  0.00    +0.000 C 
ATOM     16  O   UNL     1      48.375   1.798   6.055  0.00  0.00    +0.000 OA
ENDBRANCH   9  16
ENDBRANCH   8  12
ENDBRANCH   2   8
ENDBRANCH   1   5
BRANCH   1  17
ATOM     17  N   UNL     1      46.127   7.831  13.048  0.00  0.00    +0.000 N 
ATOM     18  C   UNL     1      46.280   9.053  12.448  0.00  0.00    +0.000 C 
ATOM     19  O   UNL     1      45.328   9.662  11.964  0.00  0.00    +0.000 OA
ATOM     20  H   UNL     1      46.938   7.246  13.220  0.00  0.00    +0.000 HD
BRANCH  18  21
ATOM     21  C   UNL     1      47.627   9.640  12.475  0.00  0.00    +0.000 A 
ATOM     22  C   UNL     1      47.777  10.987  12.781  0.00  0.00    +0.000 A 
ATOM     23  S   UNL     1      49.401  11.506  12.820  0.00  0.00    +0.000 S 
ATOM     24  C   UNL     1      49.961   9.960  12.385  0.00  0.00    +0.000 A 
ATOM     25  N   UNL     1      51.290   9.722  12.216  0.00  0.00    +0.000 NA
ATOM     26  C   UNL     1      51.573   8.516  11.851  0.00  0.00    +0.000 A 
ATOM     27  N   UNL     1      50.649   7.523  11.654  0.00  0.00    +0.000 N 
ATOM     28  C   UNL     1      49.304   7.703  11.867  0.00  0.00    +0.000 A 
ATOM     29  O   UNL     1      48.513   6.771  11.774  0.00  0.00    +0.000 OA
ATOM     30  C   UNL     1      48.926   9.053  12.238  0.00  0.00    +0.000 A 
ATOM     31  H   UNL     1      50.936   6.592  11.389  0.00  0.00    +0.000 HD
ENDBRANCH  18  21
ENDBRANCH   1  17
TORSDOF 6
ENDMDL
MODEL 9
REMARK VINA RESULT:    -6.031      3.240      4.290
REMARK INTER + INTRA:          -9.193
REMARK INTER:                  -8.452
REMARK INTRA:                  -0.742
REMARK UNBOUND:                -1.047
REMARK  Name = 
REMARK  7 active torsions:
REMARK  status: ('A' for Active; 'I' for Inactive)
REMARK    1  A    between atoms: C_1  and  O_2
REMARK    2  A    between atoms: O_2  and  C_3
REMARK    3  A    between atoms: C_6  and  C_7
REMARK    4  A    between atoms: C_7  and  C_8
REMARK    5  A    between atoms: C_11  and  C_12
REMARK    6  A    between atoms: C_12  and  N_13
REMARK    7  A    between atoms: C_14  and  C_16
REMARK                            x       y       z     vdW  Elec       q    Type
REMARK                         _______ _______ _______ _____ _____    ______ ____
ROOT
ATOM      1  C   UNL     1      48.023   6.840  14.389  0.00  0.00    +0.000 C 
ENDROOT
BRANCH   1   5
ATOM      2  C   UNL     1      45.437   5.103  11.473  0.00  0.00    +0.000 A 
ATOM      3  C   UNL     1      45.597   4.470  12.706  0.00  0.00    +0.000 A 
ATOM      4  C   UNL     1      46.444   5.022  13.662  0.00  0.00    +0.000 A 
ATOM      5  C   UNL     1      47.131   6.193  13.359  0.00  0.00    +0.000 A 
ATOM      6  N   UNL     1      46.999   6.824  12.165  0.00  0.00    +0.000 NA
ATOM      7  C   UNL     1      46.158   6.274  11.260  0.00  0.00    +0.000 A 
BRANCH   2   8
ATOM      8  C   UNL     1      44.490   4.570  10.435  0.00  0.00    +0.000 C 
BRANCH   8  12
ATOM      9  C   UNL     1      46.374   2.164   7.487  0.00  0.00    +0.000 A 
ATOM     10  C   UNL     1      46.370   3.534   7.289  0.00  0.00    +0.000 A 
ATOM     11  C   UNL     1      45.761   4.339   8.248  0.00  0.00    +0.000 A 
ATOM     12  C   UNL     1      45.170   3.751   9.370  0.00  0.00    +0.000 A 
ATOM     13  C   UNL     1      45.251   2.366   9.480  0.00  0.00    +0.000 A 
ATOM     14  N   UNL     1      45.834   1.561   8.566  0.00  0.00    +0.000 NA
BRANCH   9  16
ATOM     15  C   UNL     1      47.956   2.116   5.771  0.00  0.00    +0.000 C 
ATOM     16  O   UNL     1      46.964   1.399   6.499  0.00  0.00    +0.000 OA
ENDBRANCH   9  16
ENDBRANCH   8  12
ENDBRANCH   2   8
ENDBRANCH   1   5
BRANCH   1  17
ATOM     17  N   UNL     1      49.294   7.248  13.831  0.00  0.00    +0.000 N 
ATOM     18  C   UNL     1      50.057   8.238  14.391  0.00  0.00    +0.000 C 
ATOM     19  O   UNL     1      49.700   8.840  15.401  0.00  0.00    +0.000 OA
ATOM     20  H   UNL     1      49.482   6.938  12.883  0.00  0.00    +0.000 HD
BRANCH  18  21
ATOM     21  C   UNL     1      51.364   8.496  13.771  0.00  0.00    +0.000 A 
ATOM     22  C   UNL     1      51.424   9.212  12.581  0.00  0.00    +0.000 A 
ATOM     23  S   UNL     1      53.011   9.470  12.014  0.00  0.00    +0.000 S 
ATOM     24  C   UNL     1      53.675   8.596  13.314  0.00  0.00    +0.000 A 
ATOM     25  N   UNL     1      55.019   8.411  13.416  0.00  0.00    +0.000 NA
ATOM     26  C   UNL     1      55.383   7.699  14.430  0.00  0.00    +0.000 A 
ATOM     27  N   UNL     1      54.527   7.168  15.359  0.00  0.00    +0.000 N 
ATOM     28  C   UNL     1      53.169   7.377  15.327  0.00  0.00    +0.000 A 
ATOM     29  O   UNL     1      52.441   6.969  16.224  0.00  0.00    +0.000 OA
ATOM     30  C   UNL     1      52.701   8.136  14.184  0.00  0.00    +0.000 A 
ATOM     31  H   UNL     1      54.877   6.637  16.143  0.00  0.00    +0.000 HD
ENDBRANCH  18  21
ENDBRANCH   1  17
TORSDOF 6
ENDMDL
