MODEL 1
REMARK VINA RESULT:    -7.287      0.000      0.000
REMARK INTER + INTRA:          -9.084
REMARK INTER:                  -8.564
REMARK INTRA:                  -0.520
REMARK UNBOUND:                -0.520
REMARK  Name = 
REMARK  6 active torsions:
REMARK  status: ('A' for Active; 'I' for Inactive)
REMARK    1  A    between atoms: C_1  and  C_2
REMARK    2  A    between atoms: C_2  and  C_3
REMARK    3  A    between atoms: C_2  and  C_4
REMARK    4  A    between atoms: C_2  and  C_5
REMARK    5  A    between atoms: N_7  and  C_8
REMARK    6  A    between atoms: C_8  and  C_9
REMARK                            x       y       z     vdW  Elec       q    Type
REMARK                         _______ _______ _______ _____ _____    ______ ____
ROOT
ATOM      1  C   UNL     1      46.043   5.795  11.481  0.00  0.00    +0.000 A 
ATOM      2  C   UNL     1      45.999   5.687  10.100  0.00  0.00    +0.000 A 
ATOM      3  N   UNL     1      45.113   4.704   9.747  0.00  0.00    +0.000 N 
ATOM      4  C   UNL     1      44.540   4.164  10.874  0.00  0.00    +0.000 A 
ATOM      5  C   UNL     1      43.582   3.159  11.014  0.00  0.00    +0.000 A 
ATOM      6  N   UNL     1      43.173   2.794  12.249  0.00  0.00    +0.000 NA
ATOM      7  C   UNL     1      43.683   3.438  13.316  0.00  0.00    +0.000 A 
ATOM      8  C   UNL     1      44.622   4.457  13.249  0.00  0.00    +0.000 A 
ATOM      9  C   UNL     1      45.085   4.833  11.977  0.00  0.00    +0.000 A 
ENDROOT
BRANCH   1  11
ATOM     10  C   UNL     1      46.049   7.937  12.795  0.00  0.00    +0.000 C 
ATOM     11  C   UNL     1      46.920   6.784  12.257  0.00  0.00    +0.000 C 
ATOM     12  C   UNL     1      48.013   7.394  11.343  0.00  0.00    +0.000 C 
ATOM     13  C   UNL     1      47.660   6.120  13.434  0.00  0.00    +0.000 C 
ENDBRANCH   1  11
BRANCH   3  14
ATOM     14  C   UNL     1      44.858   4.290   8.371  0.00  0.00    +0.000 C 
BRANCH  14  15
ATOM     15  C   UNL     1      45.835   3.233   7.923  0.00  0.00    +0.000 A 
ATOM     16  C   UNL     1      46.881   3.545   7.056  0.00  0.00    +0.000 A 
ATOM     17  C   UNL     1      47.738   2.532   6.638  0.00  0.00    +0.000 A 
ATOM     18  C   UNL     1      47.540   1.238   7.104  0.00  0.00    +0.000 A 
ATOM     19  C   UNL     1      46.492   1.014   7.980  0.00  0.00    +0.000 A 
ATOM     20  N   UNL     1      45.642   1.977   8.401  0.00  0.00    +0.000 NA
ENDBRANCH  14  15
ENDBRANCH   3  14
TORSDOF 3
ENDMDL
MODEL 2
REMARK VINA RESULT:    -7.121      1.563      2.378
REMARK INTER + INTRA:          -8.889
REMARK INTER:                  -8.583
REMARK INTRA:                  -0.306
REMARK UNBOUND:                -0.520
REMARK  Name = 
REMARK  6 active torsions:
REMARK  status: ('A' for Active; 'I' for Inactive)
REMARK    1  A    between atoms: C_1  and  C_2
REMARK    2  A    between atoms: C_2  and  C_3
REMARK    3  A    between atoms: C_2  and  C_4
REMARK    4  A    between atoms: C_2  and  C_5
REMARK    5  A    between atoms: N_7  and  C_8
REMARK    6  A    between atoms: C_8  and  C_9
REMARK                            x       y       z     vdW  Elec       q    Type
REMARK                         _______ _______ _______ _____ _____    ______ ____
ROOT
ATOM      1  C   UNL     1      46.163   7.055  12.109  0.00  0.00    +0.000 A 
ATOM      2  C   UNL     1      45.281   6.723  11.092  0.00  0.00    +0.000 A 
ATOM      3  N   UNL     1      45.026   5.379  11.129  0.00  0.00    +0.000 N 
ATOM      4  C   UNL     1      45.706   4.802  12.176  0.00  0.00    +0.000 A 
ATOM      5  C   UNL     1      45.744   3.477  12.615  0.00  0.00    +0.000 A 
ATOM      6  N   UNL     1      46.502   3.151  13.685  0.00  0.00    +0.000 NA
ATOM      7  C   UNL     1      47.180   4.126  14.319  0.00  0.00    +0.000 A 
ATOM      8  C   UNL     1      47.172   5.463  13.950  0.00  0.00    +0.000 A 
ATOM      9  C   UNL     1      46.415   5.822  12.821  0.00  0.00    +0.000 A 
ENDROOT
BRANCH   1  11
ATOM     10  C   UNL     1      45.711   9.508  11.812  0.00  0.00    +0.000 C 
ATOM     11  C   UNL     1      46.689   8.467  12.391  0.00  0.00    +0.000 C 
ATOM     12  C   UNL     1      48.072   8.686  11.728  0.00  0.00    +0.000 C 
ATOM     13  C   UNL     1      46.881   8.737  13.895  0.00  0.00    +0.000 C 
ENDBRANCH   1  11
BRANCH   3  14
ATOM     14  C   UNL     1      44.178   4.682  10.168  0.00  0.00    +0.000 C 
BRANCH  14  15
ATOM     15  C   UNL     1      44.996   3.875   9.193  0.00  0.00    +0.000 A 
ATOM     16  C   UNL     1      45.040   2.483   9.273  0.00  0.00    +0.000 A 
ATOM     17  C   UNL     1      45.837   1.779   8.377  0.00  0.00    +0.000 A 
ATOM     18  C   UNL     1      46.559   2.476   7.416  0.00  0.00    +0.000 A 
ATOM     19  C   UNL     1      46.445   3.855   7.388  0.00  0.00    +0.000 A 
ATOM     20  N   UNL     1      45.681   4.567   8.246  0.00  0.00    +0.000 NA
ENDBRANCH  14  15
ENDBRANCH   3  14
TORSDOF 3
ENDMDL
MODEL 3
REMARK VINA RESULT:    -6.110      1.863      2.995
REMARK INTER + INTRA:          -7.701
REMARK INTER:                  -7.260
REMARK INTRA:                  -0.441
REMARK UNBOUND:                -0.520
REMARK  Name = 
REMARK  6 active torsions:
REMARK  status: ('A' for Active; 'I' for Inactive)
REMARK    1  A    between atoms: C_1  and  C_2
REMARK    2  A    between atoms: C_2  and  C_3
REMARK    3  A    between atoms: C_2  and  C_4
REMARK    4  A    between atoms: C_2  and  C_5
REMARK    5  A    between atoms: N_7  and  C_8
REMARK    6  A    between atoms: C_8  and  C_9
REMARK                            x       y       z     vdW  Elec       q    Type
REMARK                         _______ _______ _______ _____ _____    ______ ____
ROOT
ATOM      1  C   UNL     1      47.608   7.304  12.396  0.00  0.00    +0.000 A 
ATOM      2  C   UNL     1      46.591   7.195  11.460  0.00  0.00    +0.000 A 
ATOM      3  N   UNL     1      45.793   6.128  11.775  0.00  0.00    +0.000 N 
ATOM      4  C   UNL     1      46.245   5.529  12.927  0.00  0.00    +0.000 A 
ATOM      5  C   UNL     1      45.753   4.430  13.634  0.00  0.00    +0.000 A 
ATOM      6  N   UNL     1      46.384   4.023  14.756  0.00  0.00    +0.000 NA
ATOM      7  C   UNL     1      47.460   4.712  15.181  0.00  0.00    +0.000 A 
ATOM      8  C   UNL     1      47.990   5.822  14.540  0.00  0.00    +0.000 A 
ATOM      9  C   UNL     1      47.369   6.247  13.353  0.00  0.00    +0.000 A 
ENDROOT
BRANCH   1  11
ATOM     10  C   UNL     1      48.898   8.935  13.806  0.00  0.00    +0.000 C 
ATOM     11  C   UNL     1      48.704   8.375  12.382  0.00  0.00    +0.000 C 
ATOM     12  C   UNL     1      48.318   9.552  11.452  0.00  0.00    +0.000 C 
ATOM     13  C   UNL     1      50.051   7.836  11.864  0.00  0.00    +0.000 C 
ENDBRANCH   1  11
BRANCH   3  14
ATOM     14  C   UNL     1      44.656   5.694  10.970  0.00  0.00    +0.000 C 
BRANCH  14  15
ATOM     15  C   UNL     1      45.050   4.615   9.995  0.00  0.00    +0.000 A 
ATOM     16  C   UNL     1      45.754   4.922   8.830  0.00  0.00    +0.000 A 
ATOM     17  C   UNL     1      46.065   3.901   7.939  0.00  0.00    +0.000 A 
ATOM     18  C   UNL     1      45.682   2.599   8.235  0.00  0.00    +0.000 A 
ATOM     19  C   UNL     1      45.006   2.372   9.421  0.00  0.00    +0.000 A 
ATOM     20  N   UNL     1      44.687   3.343  10.305  0.00  0.00    +0.000 NA
ENDBRANCH  14  15
ENDBRANCH   3  14
TORSDOF 3
ENDMDL
MODEL 4
REMARK VINA RESULT:    -6.070      1.536      5.295
REMARK INTER + INTRA:          -7.654
REMARK INTER:                  -7.157
REMARK INTRA:                  -0.496
REMARK UNBOUND:                -0.520
REMARK  Name = 
REMARK  6 active torsions:
REMARK  status: ('A' for Active; 'I' for Inactive)
REMARK    1  A    between atoms: C_1  and  C_2
REMARK    2  A    between atoms: C_2  and  C_3
REMARK    3  A    between atoms: C_2  and  C_4
REMARK    4  A    between atoms: C_2  and  C_5
REMARK    5  A    between atoms: N_7  and  C_8
REMARK    6  A    between atoms: C_8  and  C_9
REMARK                            x       y       z     vdW  Elec       q    Type
REMARK                         _______ _______ _______ _____ _____    ______ ____
ROOT
ATOM      1  C   UNL     1      45.366   4.216   9.418  0.00  0.00    +0.000 A 
ATOM      2  C   UNL     1      45.857   5.492   9.647  0.00  0.00    +0.000 A 
ATOM      3  N   UNL     1      45.459   5.920  10.885  0.00  0.00    +0.000 N 
ATOM      4  C   UNL     1      44.725   4.937  11.506  0.00  0.00    +0.000 A 
ATOM      5  C   UNL     1      44.128   4.908  12.767  0.00  0.00    +0.000 A 
ATOM      6  N   UNL     1      43.445   3.810  13.157  0.00  0.00    +0.000 NA
ATOM      7  C   UNL     1      43.384   2.756  12.322  0.00  0.00    +0.000 A 
ATOM      8  C   UNL     1      43.969   2.708  11.065  0.00  0.00    +0.000 A 
ATOM      9  C   UNL     1      44.659   3.851  10.625  0.00  0.00    +0.000 A 
ENDROOT
BRANCH   1  11
ATOM     10  C   UNL     1      44.302   3.363   7.308  0.00  0.00    +0.000 C 
ATOM     11  C   UNL     1      45.598   3.401   8.141  0.00  0.00    +0.000 C 
ATOM     12  C   UNL     1      45.997   1.942   8.478  0.00  0.00    +0.000 C 
ATOM     13  C   UNL     1      46.737   3.972   7.275  0.00  0.00    +0.000 C 
ENDBRANCH   1  11
BRANCH   3  14
ATOM     14  C   UNL     1      45.758   7.241  11.427  0.00  0.00    +0.000 C 
BRANCH  14  15
ATOM     15  C   UNL     1      47.082   7.256  12.146  0.00  0.00    +0.000 A 
ATOM     16  C   UNL     1      48.250   7.648  11.492  0.00  0.00    +0.000 A 
ATOM     17  C   UNL     1      49.457   7.611  12.181  0.00  0.00    +0.000 A 
ATOM     18  C   UNL     1      49.470   7.199  13.508  0.00  0.00    +0.000 A 
ATOM     19  C   UNL     1      48.266   6.846  14.093  0.00  0.00    +0.000 A 
ATOM     20  N   UNL     1      47.078   6.869  13.448  0.00  0.00    +0.000 NA
ENDBRANCH  14  15
ENDBRANCH   3  14
TORSDOF 3
ENDMDL
MODEL 5
REMARK VINA RESULT:    -5.868      2.029      3.625
REMARK INTER + INTRA:          -7.416
REMARK INTER:                  -7.151
REMARK INTRA:                  -0.265
REMARK UNBOUND:                -0.520
REMARK  Name = 
REMARK  6 active torsions:
REMARK  status: ('A' for Active; 'I' for Inactive)
REMARK    1  A    between atoms: C_1  and  C_2
REMARK    2  A    between atoms: C_2  and  C_3
REMARK    3  A    between atoms: C_2  and  C_4
REMARK    4  A    between atoms: C_2  and  C_5
REMARK    5  A    between atoms: N_7  and  C_8
REMARK    6  A    between atoms: C_8  and  C_9
REMARK                            x       y       z     vdW  Elec       q    Type
REMARK                         _______ _______ _______ _____ _____    ______ ____
ROOT
ATOM      1  C   UNL     1      46.487   6.967  12.672  0.00  0.00    +0.000 A 
ATOM      2  C   UNL     1      45.857   5.805  12.254  0.00  0.00    +0.000 A 
ATOM      3  N   UNL     1      44.716   6.125  11.567  0.00  0.00    +0.000 N 
ATOM      4  C   UNL     1      44.582   7.492  11.494  0.00  0.00    +0.000 A 
ATOM      5  C   UNL     1      43.601   8.278  10.888  0.00  0.00    +0.000 A 
ATOM      6  N   UNL     1      43.688   9.624  10.956  0.00  0.00    +0.000 NA
ATOM      7  C   UNL     1      44.744  10.173  11.586  0.00  0.00    +0.000 A 
ATOM      8  C   UNL     1      45.764   9.454  12.192  0.00  0.00    +0.000 A 
ATOM      9  C   UNL     1      45.679   8.052  12.160  0.00  0.00    +0.000 A 
ENDROOT
BRANCH   1  11
ATOM     10  C   UNL     1      47.847   5.829  14.451  0.00  0.00    +0.000 C 
ATOM     11  C   UNL     1      47.792   7.019  13.473  0.00  0.00    +0.000 C 
ATOM     12  C   UNL     1      47.884   8.326  14.301  0.00  0.00    +0.000 C 
ATOM     13  C   UNL     1      49.041   6.990  12.571  0.00  0.00    +0.000 C 
ENDBRANCH   1  11
BRANCH   3  14
ATOM     14  C   UNL     1      43.784   5.141  11.029  0.00  0.00    +0.000 C 
BRANCH  14  15
ATOM     15  C   UNL     1      44.454   4.236  10.028  0.00  0.00    +0.000 A 
ATOM     16  C   UNL     1      45.265   4.757   9.019  0.00  0.00    +0.000 A 
ATOM     17  C   UNL     1      45.835   3.890   8.093  0.00  0.00    +0.000 A 
ATOM     18  C   UNL     1      45.595   2.526   8.202  0.00  0.00    +0.000 A 
ATOM     19  C   UNL     1      44.797   2.085   9.243  0.00  0.00    +0.000 A 
ATOM     20  N   UNL     1      44.227   2.903  10.156  0.00  0.00    +0.000 NA
ENDBRANCH  14  15
ENDBRANCH   3  14
TORSDOF 3
ENDMDL
MODEL 6
REMARK VINA RESULT:    -5.535      3.278      5.313
REMARK INTER + INTRA:          -7.025
REMARK INTER:                  -6.432
REMARK INTRA:                  -0.593
REMARK UNBOUND:                -0.520
REMARK  Name = 
REMARK  6 active torsions:
REMARK  status: ('A' for Active; 'I' for Inactive)
REMARK    1  A    between atoms: C_1  and  C_2
REMARK    2  A    between atoms: C_2  and  C_3
REMARK    3  A    between atoms: C_2  and  C_4
REMARK    4  A    between atoms: C_2  and  C_5
REMARK    5  A    between atoms: N_7  and  C_8
REMARK    6  A    between atoms: C_8  and  C_9
REMARK                            x       y       z     vdW  Elec       q    Type
REMARK                         _______ _______ _______ _____ _____    ______ ____
ROOT
ATOM      1  C   UNL     1      48.276   6.685  14.006  0.00  0.00    +0.000 A 
ATOM      2  C   UNL     1      47.553   5.848  13.171  0.00  0.00    +0.000 A 
ATOM      3  N   UNL     1      47.113   4.763  13.882  0.00  0.00    +0.000 N 
ATOM      4  C   UNL     1      47.510   4.871  15.194  0.00  0.00    +0.000 A 
ATOM      5  C   UNL     1      47.288   4.027  16.283  0.00  0.00    +0.000 A 
ATOM      6  N   UNL     1      47.791   4.353  17.493  0.00  0.00    +0.000 NA
ATOM      7  C   UNL     1      48.473   5.507  17.621  0.00  0.00    +0.000 A 
ATOM      8  C   UNL     1      48.715   6.401  16.588  0.00  0.00    +0.000 A 
ATOM      9  C   UNL     1      48.226   6.068  15.313  0.00  0.00    +0.000 A 
ENDROOT
BRANCH   1  11
ATOM     10  C   UNL     1      48.762   8.193  12.056  0.00  0.00    +0.000 C 
ATOM     11  C   UNL     1      48.933   8.002  13.576  0.00  0.00    +0.000 C 
ATOM     12  C   UNL     1      50.449   7.996  13.892  0.00  0.00    +0.000 C 
ATOM     13  C   UNL     1      48.342   9.223  14.307  0.00  0.00    +0.000 C 
ENDBRANCH   1  11
BRANCH   3  14
ATOM     14  C   UNL     1      46.362   3.656  13.300  0.00  0.00    +0.000 C 
BRANCH  14  15
ATOM     15  C   UNL     1      45.071   4.129  12.683  0.00  0.00    +0.000 A 
ATOM     16  C   UNL     1      44.857   4.036  11.308  0.00  0.00    +0.000 A 
ATOM     17  C   UNL     1      43.666   4.519  10.774  0.00  0.00    +0.000 A 
ATOM     18  C   UNL     1      42.714   5.068  11.623  0.00  0.00    +0.000 A 
ATOM     19  C   UNL     1      42.992   5.105  12.979  0.00  0.00    +0.000 A 
ATOM     20  N   UNL     1      44.141   4.647  13.526  0.00  0.00    +0.000 NA
ENDBRANCH  14  15
ENDBRANCH   3  14
TORSDOF 3
ENDMDL
MODEL 7
REMARK VINA RESULT:    -5.367      3.530      6.933
REMARK INTER + INTRA:          -6.828
REMARK INTER:                  -6.229
REMARK INTRA:                  -0.599
REMARK UNBOUND:                -0.520
REMARK  Name = 
REMARK  6 active torsions:
REMARK  status: ('A' for Active; 'I' for Inactive)
REMARK    1  A    between atoms: C_1  and  C_2
REMARK    2  A    between atoms: C_2  and  C_3
REMARK    3  A    between atoms: C_2  and  C_4
REMARK    4  A    between atoms: C_2  and  C_5
REMARK    5  A    between atoms: N_7  and  C_8
REMARK    6  A    between atoms: C_8  and  C_9
REMARK                            x       y       z     vdW  Elec       q    Type
REMARK                         _______ _______ _______ _____ _____    ______ ____
ROOT
ATOM      1  C   UNL     1      45.327   5.763  12.101  0.00  0.00    +0.000 A 
ATOM      2  C   UNL     1      46.571   5.500  12.654  0.00  0.00    +0.000 A 
ATOM      3  N   UNL     1      47.273   6.669  12.777  0.00  0.00    +0.000 N 
ATOM      4  C   UNL     1      46.508   7.723  12.336  0.00  0.00    +0.000 A 
ATOM      5  C   UNL     1      46.787   9.090  12.281  0.00  0.00    +0.000 A 
ATOM      6  N   UNL     1      45.859   9.942  11.795  0.00  0.00    +0.000 NA
ATOM      7  C   UNL     1      44.669   9.448  11.402  0.00  0.00    +0.000 A 
ATOM      8  C   UNL     1      44.317   8.106  11.447  0.00  0.00    +0.000 A 
ATOM      9  C   UNL     1      45.278   7.197  11.920  0.00  0.00    +0.000 A 
ENDROOT
BRANCH   1  11
ATOM     10  C   UNL     1      43.038   4.937  12.725  0.00  0.00    +0.000 C 
ATOM     11  C   UNL     1      44.256   4.708  11.807  0.00  0.00    +0.000 C 
ATOM     12  C   UNL     1      44.795   3.280  12.072  0.00  0.00    +0.000 C 
ATOM     13  C   UNL     1      43.791   4.730  10.339  0.00  0.00    +0.000 C 
ENDBRANCH   1  11
BRANCH   3  14
ATOM     14  C   UNL     1      48.642   6.752  13.276  0.00  0.00    +0.000 C 
BRANCH  14  15
ATOM     15  C   UNL     1      48.675   6.858  14.779  0.00  0.00    +0.000 A 
ATOM     16  C   UNL     1      48.702   8.102  15.409  0.00  0.00    +0.000 A 
ATOM     17  C   UNL     1      48.770   8.156  16.798  0.00  0.00    +0.000 A 
ATOM     18  C   UNL     1      48.794   6.971  17.523  0.00  0.00    +0.000 A 
ATOM     19  C   UNL     1      48.742   5.777  16.825  0.00  0.00    +0.000 A 
ATOM     20  N   UNL     1      48.679   5.694  15.477  0.00  0.00    +0.000 NA
ENDBRANCH  14  15
ENDBRANCH   3  14
TORSDOF 3
ENDMDL
MODEL 8
REMARK VINA RESULT:    -5.244      3.500      6.725
REMARK INTER + INTRA:          -6.684
REMARK INTER:                  -6.391
REMARK INTRA:                  -0.293
REMARK UNBOUND:                -0.520
REMARK  Name = 
REMARK  6 active torsions:
REMARK  status: ('A' for Active; 'I' for Inactive)
REMARK    1  A    between atoms: C_1  and  C_2
REMARK    2  A    between atoms: C_2  and  C_3
REMARK    3  A    between atoms: C_2  and  C_4
REMARK    4  A    between atoms: C_2  and  C_5
REMARK    5  A    between atoms: N_7  and  C_8
REMARK    6  A    between atoms: C_8  and  C_9
REMARK                            x       y       z     vdW  Elec       q    Type
REMARK                         _______ _______ _______ _____ _____    ______ ____
ROOT
ATOM      1  C   UNL     1      47.601   6.732  13.329  0.00  0.00    +0.000 A 
ATOM      2  C   UNL     1      47.899   5.959  14.441  0.00  0.00    +0.000 A 
ATOM      3  N   UNL     1      47.154   4.811  14.411  0.00  0.00    +0.000 N 
ATOM      4  C   UNL     1      46.375   4.787  13.278  0.00  0.00    +0.000 A 
ATOM      5  C   UNL     1      45.475   3.826  12.814  0.00  0.00    +0.000 A 
ATOM      6  N   UNL     1      44.815   4.036  11.654  0.00  0.00    +0.000 NA
ATOM      7  C   UNL     1      45.070   5.160  10.959  0.00  0.00    +0.000 A 
ATOM      8  C   UNL     1      45.964   6.146  11.351  0.00  0.00    +0.000 A 
ATOM      9  C   UNL     1      46.640   5.965  12.570  0.00  0.00    +0.000 A 
ENDROOT
BRANCH   1  11
ATOM     10  C   UNL     1      49.181   8.503  14.153  0.00  0.00    +0.000 C 
ATOM     11  C   UNL     1      48.231   8.093  13.011  0.00  0.00    +0.000 C 
ATOM     12  C   UNL     1      47.144   9.189  12.872  0.00  0.00    +0.000 C 
ATOM     13  C   UNL     1      49.012   8.086  11.683  0.00  0.00    +0.000 C 
ENDBRANCH   1  11
BRANCH   3  14
ATOM     14  C   UNL     1      47.181   3.793  15.457  0.00  0.00    +0.000 C 
BRANCH  14  15
ATOM     15  C   UNL     1      47.921   4.276  16.677  0.00  0.00    +0.000 A 
ATOM     16  C   UNL     1      47.240   4.855  17.748  0.00  0.00    +0.000 A 
ATOM     17  C   UNL     1      47.965   5.321  18.839  0.00  0.00    +0.000 A 
ATOM     18  C   UNL     1      49.348   5.187  18.845  0.00  0.00    +0.000 A 
ATOM     19  C   UNL     1      49.948   4.582  17.754  0.00  0.00    +0.000 A 
ATOM     20  N   UNL     1      49.271   4.122  16.679  0.00  0.00    +0.000 NA
ENDBRANCH  14  15
ENDBRANCH   3  14
TORSDOF 3
ENDMDL
MODEL 9
REMARK VINA RESULT:    -5.072      3.372      6.891
REMARK INTER + INTRA:          -6.481
REMARK INTER:                  -6.378
REMARK INTRA:                  -0.103
REMARK UNBOUND:                -0.520
REMARK  Name = 
REMARK  6 active torsions:
REMARK  status: ('A' for Active; 'I' for Inactive)
REMARK    1  A    between atoms: C_1  and  C_2
REMARK    2  A    between atoms: C_2  and  C_3
REMARK    3  A    between atoms: C_2  and  C_4
REMARK    4  A    between atoms: C_2  and  C_5
REMARK    5  A    between atoms: N_7  and  C_8
REMARK    6  A    between atoms: C_8  and  C_9
REMARK                            x       y       z     vdW  Elec       q    Type
REMARK                         _______ _______ _______ _____ _____    ______ ____
ROOT
ATOM      1  C   UNL     1      45.144   5.562  12.241  0.00  0.00    +0.000 A 
ATOM      2  C   UNL     1      46.224   5.103  12.980  0.00  0.00    +0.000 A 
ATOM      3  N   UNL     1      47.031   6.158  13.314  0.00  0.00    +0.000 N 
ATOM      4  C   UNL     1      46.495   7.329  12.830  0.00  0.00    +0.000 A 
ATOM      5  C   UNL     1      46.946   8.645  12.932  0.00  0.00    +0.000 A 
ATOM      6  N   UNL     1      46.235   9.641  12.360  0.00  0.00    +0.000 NA
ATOM      7  C   UNL     1      45.085   9.335  11.729  0.00  0.00    +0.000 A 
ATOM      8  C   UNL     1      44.568   8.053  11.607  0.00  0.00    +0.000 A 
ATOM      9  C   UNL     1      45.307   6.997  12.168  0.00  0.00    +0.000 A 
ENDROOT
BRANCH   1  11
ATOM     10  C   UNL     1      44.168   3.247  12.235  0.00  0.00    +0.000 C 
ATOM     11  C   UNL     1      44.023   4.680  11.684  0.00  0.00    +0.000 C 
ATOM     12  C   UNL     1      44.088   4.608  10.138  0.00  0.00    +0.000 C 
ATOM     13  C   UNL     1      42.621   5.214  12.034  0.00  0.00    +0.000 C 
ENDBRANCH   1  11
BRANCH   3  14
ATOM     14  C   UNL     1      48.285   6.027  14.048  0.00  0.00    +0.000 C 
BRANCH  14  15
ATOM     15  C   UNL     1      48.048   5.571  15.465  0.00  0.00    +0.000 A 
ATOM     16  C   UNL     1      47.345   4.397  15.734  0.00  0.00    +0.000 A 
ATOM     17  C   UNL     1      47.118   4.032  17.056  0.00  0.00    +0.000 A 
ATOM     18  C   UNL     1      47.607   4.837  18.078  0.00  0.00    +0.000 A 
ATOM     19  C   UNL     1      48.314   5.975  17.729  0.00  0.00    +0.000 A 
ATOM     20  N   UNL     1      48.549   6.356  16.454  0.00  0.00    +0.000 NA
ENDBRANCH  14  15
ENDBRANCH   3  14
TORSDOF 3
ENDMDL
