MODEL 1
REMARK VINA RESULT:    -8.090      0.000      0.000
REMARK INTER + INTRA:         -11.827
REMARK INTER:                 -10.928
REMARK INTRA:                  -0.899
REMARK UNBOUND:                -0.899
REMARK  Name = 
REMARK  6 active torsions:
REMARK  status: ('A' for Active; 'I' for Inactive)
REMARK    1  A    between atoms: C_2  and  C_25
REMARK    2  A    between atoms: N_3  and  C_4
REMARK    3  A    between atoms: C_4  and  C_5
REMARK    4  A    between atoms: C_8  and  C_9
REMARK    5  A    between atoms: C_9  and  N_10
REMARK    6  A    between atoms: C_11  and  C_13
REMARK                            x       y       z     vdW  Elec       q    Type
REMARK                         _______ _______ _______ _____ _____    ______ ____
ROOT
ATOM      1  C   UNL     1      44.863   5.952  11.096  0.00  0.00    +0.000 A 
ATOM      2  C   UNL     1      44.519   7.278  11.394  0.00  0.00    +0.000 A 
ATOM      3  C   UNL     1      45.302   8.043  12.268  0.00  0.00    +0.000 A 
ATOM      4  C   UNL     1      46.460   7.506  12.846  0.00  0.00    +0.000 A 
ATOM      5  C   UNL     1      46.800   6.179  12.552  0.00  0.00    +0.000 A 
ATOM      6  C   UNL     1      46.020   5.414  11.676  0.00  0.00    +0.000 A 
ENDROOT
BRANCH   1   7
ATOM      7  C   UNL     1      44.020   5.134  10.150  0.00  0.00    +0.000 C 
BRANCH   7  10
ATOM      8  O   UNL     1      44.555   2.392   9.903  0.00  0.00    +0.000 OA
ATOM      9  C   UNL     1      45.024   3.166   9.075  0.00  0.00    +0.000 C 
ATOM     10  N   UNL     1      44.822   4.524   9.118  0.00  0.00    +0.000 N 
ATOM     11  H   UNL     1      45.096   5.091   8.332  0.00  0.00    +0.000 HD
BRANCH   9  12
ATOM     12  C   UNL     1      45.835   2.714   7.958  0.00  0.00    +0.000 A 
ATOM     13  C   UNL     1      46.161   3.323   6.759  0.00  0.00    +0.000 A 
ATOM     14  C   UNL     1      47.004   2.447   6.031  0.00  0.00    +0.000 A 
ATOM     15  C   UNL     1      47.180   1.321   6.800  0.00  0.00    +0.000 A 
ATOM     16  N   UNL     1      46.474   1.490   7.962  0.00  0.00    +0.000 N 
ATOM     17  H   UNL     1      46.420   0.827   8.726  0.00  0.00    +0.000 HD
ENDBRANCH   9  12
ENDBRANCH   7  10
ENDBRANCH   1   7
BRANCH   4  18
ATOM     18  C   UNL     1      47.320   8.323  13.780  0.00  0.00    +0.000 C 
BRANCH  18  19
ATOM     19  N   UNL     1      47.721   7.567  14.939  0.00  0.00    +0.000 N 
ATOM     20  C   UNL     1      48.958   6.976  15.013  0.00  0.00    +0.000 C 
ATOM     21  O   UNL     1      49.791   7.094  14.118  0.00  0.00    +0.000 OA
ATOM     22  H   UNL     1      46.983   7.246  15.558  0.00  0.00    +0.000 HD
BRANCH  20  23
ATOM     23  C   UNL     1      49.264   6.248  16.252  0.00  0.00    +0.000 A 
ATOM     24  C   UNL     1      50.309   6.671  17.064  0.00  0.00    +0.000 A 
ATOM     25  S   UNL     1      50.487   5.745  18.486  0.00  0.00    +0.000 S 
ATOM     26  C   UNL     1      49.211   4.714  18.039  0.00  0.00    +0.000 A 
ATOM     27  N   UNL     1      48.852   3.662  18.825  0.00  0.00    +0.000 NA
ATOM     28  C   UNL     1      47.890   2.945  18.349  0.00  0.00    +0.000 A 
ATOM     29  N   UNL     1      47.248   3.188  17.163  0.00  0.00    +0.000 N 
ATOM     30  C   UNL     1      47.551   4.257  16.355  0.00  0.00    +0.000 A 
ATOM     31  O   UNL     1      46.922   4.477  15.325  0.00  0.00    +0.000 OA
ATOM     32  C   UNL     1      48.640   5.085  16.834  0.00  0.00    +0.000 A 
ATOM     33  H   UNL     1      46.493   2.595  16.851  0.00  0.00    +0.000 HD
ENDBRANCH  20  23
ENDBRANCH  18  19
ENDBRANCH   4  18
TORSDOF 6
ENDMDL
MODEL 2
REMARK VINA RESULT:    -7.588      4.562      9.512
REMARK INTER + INTRA:         -11.149
REMARK INTER:                 -10.382
REMARK INTRA:                  -0.767
REMARK UNBOUND:                -0.899
REMARK  Name = 
REMARK  6 active torsions:
REMARK  status: ('A' for Active; 'I' for Inactive)
REMARK    1  A    between atoms: C_2  and  C_25
REMARK    2  A    between atoms: N_3  and  C_4
REMARK    3  A    between atoms: C_4  and  C_5
REMARK    4  A    between atoms: C_8  and  C_9
REMARK    5  A    between atoms: C_9  and  N_10
REMARK    6  A    between atoms: C_11  and  C_13
REMARK                            x       y       z     vdW  Elec       q    Type
REMARK                         _______ _______ _______ _____ _____    ______ ____
ROOT
ATOM      1  C   UNL     1      51.368   2.933  17.724  0.00  0.00    +0.000 A 
ATOM      2  C   UNL     1      50.578   1.916  17.170  0.00  0.00    +0.000 A 
ATOM      3  C   UNL     1      49.217   2.124  16.916  0.00  0.00    +0.000 A 
ATOM      4  C   UNL     1      48.620   3.362  17.187  0.00  0.00    +0.000 A 
ATOM      5  C   UNL     1      49.408   4.376  17.746  0.00  0.00    +0.000 A 
ATOM      6  C   UNL     1      50.770   4.171  17.998  0.00  0.00    +0.000 A 
ENDROOT
BRANCH   1   7
ATOM      7  C   UNL     1      52.835   2.706  17.992  0.00  0.00    +0.000 C 
BRANCH   7  10
ATOM      8  O   UNL     1      54.447   0.755  16.784  0.00  0.00    +0.000 OA
ATOM      9  C   UNL     1      53.892   0.492  17.845  0.00  0.00    +0.000 C 
ATOM     10  N   UNL     1      53.079   1.380  18.507  0.00  0.00    +0.000 N 
ATOM     11  H   UNL     1      52.778   1.172  19.445  0.00  0.00    +0.000 HD
BRANCH   9  12
ATOM     12  C   UNL     1      54.051  -0.789  18.511  0.00  0.00    +0.000 A 
ATOM     13  C   UNL     1      55.182  -1.514  18.841  0.00  0.00    +0.000 A 
ATOM     14  C   UNL     1      54.774  -2.698  19.504  0.00  0.00    +0.000 A 
ATOM     15  C   UNL     1      53.401  -2.672  19.570  0.00  0.00    +0.000 A 
ATOM     16  N   UNL     1      52.972  -1.516  18.971  0.00  0.00    +0.000 N 
ATOM     17  H   UNL     1      52.008  -1.220  18.875  0.00  0.00    +0.000 HD
ENDBRANCH   9  12
ENDBRANCH   7  10
ENDBRANCH   1   7
BRANCH   4  18
ATOM     18  C   UNL     1      47.156   3.604  16.906  0.00  0.00    +0.000 C 
BRANCH  18  19
ATOM     19  N   UNL     1      46.964   4.591  15.874  0.00  0.00    +0.000 N 
ATOM     20  C   UNL     1      47.050   4.258  14.545  0.00  0.00    +0.000 C 
ATOM     21  O   UNL     1      47.256   3.106  14.173  0.00  0.00    +0.000 OA
ATOM     22  H   UNL     1      47.050   5.565  16.146  0.00  0.00    +0.000 HD
BRANCH  20  23
ATOM     23  C   UNL     1      46.816   5.343  13.581  0.00  0.00    +0.000 A 
ATOM     24  C   UNL     1      47.859   6.186  13.220  0.00  0.00    +0.000 A 
ATOM     25  S   UNL     1      47.423   7.351  12.053  0.00  0.00    +0.000 S 
ATOM     26  C   UNL     1      45.812   6.804  12.029  0.00  0.00    +0.000 A 
ATOM     27  N   UNL     1      44.880   7.405  11.240  0.00  0.00    +0.000 NA
ATOM     28  C   UNL     1      43.693   6.909  11.346  0.00  0.00    +0.000 A 
ATOM     29  N   UNL     1      43.355   5.861  12.163  0.00  0.00    +0.000 N 
ATOM     30  C   UNL     1      44.268   5.201  12.949  0.00  0.00    +0.000 A 
ATOM     31  O   UNL     1      43.944   4.233  13.628  0.00  0.00    +0.000 OA
ATOM     32  C   UNL     1      45.616   5.732  12.882  0.00  0.00    +0.000 A 
ATOM     33  H   UNL     1      42.409   5.511  12.191  0.00  0.00    +0.000 HD
ENDBRANCH  20  23
ENDBRANCH  18  19
ENDBRANCH   4  18
TORSDOF 6
ENDMDL
MODEL 3
REMARK VINA RESULT:    -7.063      2.536      3.229
REMARK INTER + INTRA:         -10.440
REMARK INTER:                  -9.450
REMARK INTRA:                  -0.990
REMARK UNBOUND:                -0.899
REMARK  Name = 
REMARK  6 active torsions:
REMARK  status: ('A' for Active; 'I' for Inactive)
REMARK    1  A    between atoms: C_2  and  C_25
REMARK    2  A    between atoms: N_3  and  C_4
REMARK    3  A    between atoms: C_4  and  C_5
REMARK    4  A    between atoms: C_8  and  C_9
REMARK    5  A    between atoms: C_9  and  N_10
REMARK    6  A    between atoms: C_11  and  C_13
REMARK                            x       y       z     vdW  Elec       q    Type
REMARK                         _______ _______ _______ _____ _____    ______ ____
ROOT
ATOM      1  C   UNL     1      45.758   5.638  11.621  0.00  0.00    +0.000 A 
ATOM      2  C   UNL     1      45.892   5.012  12.868  0.00  0.00    +0.000 A 
ATOM      3  C   UNL     1      46.894   5.406  13.764  0.00  0.00    +0.000 A 
ATOM      4  C   UNL     1      47.771   6.451  13.441  0.00  0.00    +0.000 A 
ATOM      5  C   UNL     1      47.640   7.071  12.192  0.00  0.00    +0.000 A 
ATOM      6  C   UNL     1      46.637   6.681  11.297  0.00  0.00    +0.000 A 
ENDROOT
BRANCH   1   7
ATOM      7  C   UNL     1      44.675   5.213  10.662  0.00  0.00    +0.000 C 
BRANCH   7  10
ATOM      8  O   UNL     1      45.243   2.494  10.270  0.00  0.00    +0.000 OA
ATOM      9  C   UNL     1      45.467   3.285   9.360  0.00  0.00    +0.000 C 
ATOM     10  N   UNL     1      45.228   4.634   9.462  0.00  0.00    +0.000 N 
ATOM     11  H   UNL     1      45.281   5.210   8.638  0.00  0.00    +0.000 HD
BRANCH   9  12
ATOM     12  C   UNL     1      46.002   2.864   8.077  0.00  0.00    +0.000 A 
ATOM     13  C   UNL     1      46.220   3.564   6.903  0.00  0.00    +0.000 A 
ATOM     14  C   UNL     1      46.783   2.675   5.954  0.00  0.00    +0.000 A 
ATOM     15  C   UNL     1      46.900   1.450   6.566  0.00  0.00    +0.000 A 
ATOM     16  N   UNL     1      46.431   1.573   7.847  0.00  0.00    +0.000 N 
ATOM     17  H   UNL     1      46.398   0.835   8.541  0.00  0.00    +0.000 HD
ENDBRANCH   9  12
ENDBRANCH   7  10
ENDBRANCH   1   7
BRANCH   4  18
ATOM     18  C   UNL     1      48.847   6.894  14.402  0.00  0.00    +0.000 C 
BRANCH  18  19
ATOM     19  N   UNL     1      48.350   7.011  15.749  0.00  0.00    +0.000 N 
ATOM     20  C   UNL     1      49.011   6.434  16.806  0.00  0.00    +0.000 C 
ATOM     21  O   UNL     1      50.070   5.828  16.660  0.00  0.00    +0.000 OA
ATOM     22  H   UNL     1      47.375   7.272  15.860  0.00  0.00    +0.000 HD
BRANCH  20  23
ATOM     23  C   UNL     1      48.421   6.635  18.136  0.00  0.00    +0.000 A 
ATOM     24  C   UNL     1      48.127   5.539  18.937  0.00  0.00    +0.000 A 
ATOM     25  S   UNL     1      47.500   5.959  20.467  0.00  0.00    +0.000 S 
ATOM     26  C   UNL     1      47.549   7.618  20.093  0.00  0.00    +0.000 A 
ATOM     27  N   UNL     1      47.114   8.550  20.984  0.00  0.00    +0.000 NA
ATOM     28  C   UNL     1      47.178   9.767  20.556  0.00  0.00    +0.000 A 
ATOM     29  N   UNL     1      47.644  10.136  19.321  0.00  0.00    +0.000 N 
ATOM     30  C   UNL     1      48.126   9.234  18.404  0.00  0.00    +0.000 A 
ATOM     31  O   UNL     1      48.586   9.602  17.328  0.00  0.00    +0.000 OA
ATOM     32  C   UNL     1      48.059   7.849  18.827  0.00  0.00    +0.000 A 
ATOM     33  H   UNL     1      47.680  11.108  19.050  0.00  0.00    +0.000 HD
ENDBRANCH  20  23
ENDBRANCH  18  19
ENDBRANCH   4  18
TORSDOF 6
ENDMDL
MODEL 4
REMARK VINA RESULT:    -6.946      3.761      8.370
REMARK INTER + INTRA:         -10.282
REMARK INTER:                  -9.242
REMARK INTRA:                  -1.040
REMARK UNBOUND:                -0.899
REMARK  Name = 
REMARK  6 active torsions:
REMARK  status: ('A' for Active; 'I' for Inactive)
REMARK    1  A    between atoms: C_2  and  C_25
REMARK    2  A    between atoms: N_3  and  C_4
REMARK    3  A    between atoms: C_4  and  C_5
REMARK    4  A    between atoms: C_8  and  C_9
REMARK    5  A    between atoms: C_9  and  N_10
REMARK    6  A    between atoms: C_11  and  C_13
REMARK                            x       y       z     vdW  Elec       q    Type
REMARK                         _______ _______ _______ _____ _____    ______ ____
ROOT
ATOM      1  C   UNL     1      49.712   4.654  17.711  0.00  0.00    +0.000 A 
ATOM      2  C   UNL     1      48.512   4.370  17.044  0.00  0.00    +0.000 A 
ATOM      3  C   UNL     1      48.047   5.205  16.021  0.00  0.00    +0.000 A 
ATOM      4  C   UNL     1      48.781   6.331  15.626  0.00  0.00    +0.000 A 
ATOM      5  C   UNL     1      49.977   6.618  16.298  0.00  0.00    +0.000 A 
ATOM      6  C   UNL     1      50.446   5.782  17.319  0.00  0.00    +0.000 A 
ENDROOT
BRANCH   1   7
ATOM      7  C   UNL     1      50.212   3.750  18.810  0.00  0.00    +0.000 C 
BRANCH   7  10
ATOM      8  O   UNL     1      50.545   1.434  17.264  0.00  0.00    +0.000 OA
ATOM      9  C   UNL     1      51.539   2.009  17.694  0.00  0.00    +0.000 C 
ATOM     10  N   UNL     1      51.475   3.144  18.463  0.00  0.00    +0.000 N 
ATOM     11  H   UNL     1      52.318   3.661  18.656  0.00  0.00    +0.000 HD
BRANCH   9  12
ATOM     12  C   UNL     1      52.887   1.545  17.418  0.00  0.00    +0.000 A 
ATOM     13  C   UNL     1      54.110   2.186  17.501  0.00  0.00    +0.000 A 
ATOM     14  C   UNL     1      55.122   1.264  17.135  0.00  0.00    +0.000 A 
ATOM     15  C   UNL     1      54.498   0.076  16.838  0.00  0.00    +0.000 A 
ATOM     16  N   UNL     1      53.151   0.252  17.013  0.00  0.00    +0.000 N 
ATOM     17  H   UNL     1      52.437  -0.454  16.875  0.00  0.00    +0.000 HD
ENDBRANCH   9  12
ENDBRANCH   7  10
ENDBRANCH   1   7
BRANCH   4  18
ATOM     18  C   UNL     1      48.297   7.232  14.516  0.00  0.00    +0.000 C 
BRANCH  18  19
ATOM     19  N   UNL     1      47.062   6.762  13.943  0.00  0.00    +0.000 N 
ATOM     20  C   UNL     1      46.885   6.698  12.583  0.00  0.00    +0.000 C 
ATOM     21  O   UNL     1      47.778   6.999  11.795  0.00  0.00    +0.000 OA
ATOM     22  H   UNL     1      46.246   6.756  14.548  0.00  0.00    +0.000 HD
BRANCH  20  23
ATOM     23  C   UNL     1      45.591   6.184  12.114  0.00  0.00    +0.000 A 
ATOM     24  C   UNL     1      44.663   7.052  11.554  0.00  0.00    +0.000 A 
ATOM     25  S   UNL     1      43.241   6.277  11.015  0.00  0.00    +0.000 S 
ATOM     26  C   UNL     1      43.794   4.764  11.560  0.00  0.00    +0.000 A 
ATOM     27  N   UNL     1      43.025   3.649  11.428  0.00  0.00    +0.000 NA
ATOM     28  C   UNL     1      43.555   2.576  11.915  0.00  0.00    +0.000 A 
ATOM     29  N   UNL     1      44.786   2.516  12.514  0.00  0.00    +0.000 N 
ATOM     30  C   UNL     1      45.611   3.608  12.638  0.00  0.00    +0.000 A 
ATOM     31  O   UNL     1      46.729   3.510  13.131  0.00  0.00    +0.000 OA
ATOM     32  C   UNL     1      45.055   4.844  12.124  0.00  0.00    +0.000 A 
ATOM     33  H   UNL     1      45.149   1.642  12.864  0.00  0.00    +0.000 HD
ENDBRANCH  20  23
ENDBRANCH  18  19
ENDBRANCH   4  18
TORSDOF 6
ENDMDL
MODEL 5
REMARK VINA RESULT:    -6.783      3.230      8.595
REMARK INTER + INTRA:         -10.061
REMARK INTER:                  -9.147
REMARK INTRA:                  -0.914
REMARK UNBOUND:                -0.899
REMARK  Name = 
REMARK  6 active torsions:
REMARK  status: ('A' for Active; 'I' for Inactive)
REMARK    1  A    between atoms: C_2  and  C_25
REMARK    2  A    between atoms: N_3  and  C_4
REMARK    3  A    between atoms: C_4  and  C_5
REMARK    4  A    between atoms: C_8  and  C_9
REMARK    5  A    between atoms: C_9  and  N_10
REMARK    6  A    between atoms: C_11  and  C_13
REMARK                            x       y       z     vdW  Elec       q    Type
REMARK                         _______ _______ _______ _____ _____    ______ ____
ROOT
ATOM      1  C   UNL     1      50.218   7.310  15.383  0.00  0.00    +0.000 A 
ATOM      2  C   UNL     1      48.961   6.692  15.423  0.00  0.00    +0.000 A 
ATOM      3  C   UNL     1      48.061   6.828  14.359  0.00  0.00    +0.000 A 
ATOM      4  C   UNL     1      48.406   7.568  13.221  0.00  0.00    +0.000 A 
ATOM      5  C   UNL     1      49.660   8.192  13.184  0.00  0.00    +0.000 A 
ATOM      6  C   UNL     1      50.563   8.053  14.245  0.00  0.00    +0.000 A 
ENDROOT
BRANCH   1   7
ATOM      7  C   UNL     1      51.187   7.157  16.529  0.00  0.00    +0.000 C 
BRANCH   7  10
ATOM      8  O   UNL     1      50.207   5.411  18.493  0.00  0.00    +0.000 OA
ATOM      9  C   UNL     1      51.042   4.999  17.696  0.00  0.00    +0.000 C 
ATOM     10  N   UNL     1      51.584   5.781  16.705  0.00  0.00    +0.000 N 
ATOM     11  H   UNL     1      52.144   5.353  15.986  0.00  0.00    +0.000 HD
BRANCH   9  12
ATOM     12  C   UNL     1      51.533   3.633  17.719  0.00  0.00    +0.000 A 
ATOM     13  C   UNL     1      52.729   3.097  18.166  0.00  0.00    +0.000 A 
ATOM     14  C   UNL     1      52.687   1.694  17.974  0.00  0.00    +0.000 A 
ATOM     15  C   UNL     1      51.466   1.398  17.416  0.00  0.00    +0.000 A 
ATOM     16  N   UNL     1      50.775   2.571  17.268  0.00  0.00    +0.000 N 
ATOM     17  H   UNL     1      49.840   2.666  16.889  0.00  0.00    +0.000 HD
ENDBRANCH   9  12
ENDBRANCH   7  10
ENDBRANCH   1   7
BRANCH   4  18
ATOM     18  C   UNL     1      47.450   7.714  12.061  0.00  0.00    +0.000 C 
BRANCH  18  19
ATOM     19  N   UNL     1      46.774   6.476  11.764  0.00  0.00    +0.000 N 
ATOM     20  C   UNL     1      45.404   6.398  11.746  0.00  0.00    +0.000 C 
ATOM     21  O   UNL     1      44.692   7.379  11.944  0.00  0.00    +0.000 OA
ATOM     22  H   UNL     1      47.317   5.622  11.853  0.00  0.00    +0.000 HD
BRANCH  20  23
ATOM     23  C   UNL     1      44.826   5.089  11.411  0.00  0.00    +0.000 A 
ATOM     24  C   UNL     1      44.054   4.412  12.346  0.00  0.00    +0.000 A 
ATOM     25  S   UNL     1      43.420   2.937  11.770  0.00  0.00    +0.000 S 
ATOM     26  C   UNL     1      44.199   3.125  10.270  0.00  0.00    +0.000 A 
ATOM     27  N   UNL     1      44.091   2.176   9.302  0.00  0.00    +0.000 NA
ATOM     28  C   UNL     1      44.760   2.432   8.227  0.00  0.00    +0.000 A 
ATOM     29  N   UNL     1      45.522   3.555   8.031  0.00  0.00    +0.000 N 
ATOM     30  C   UNL     1      45.632   4.555   8.966  0.00  0.00    +0.000 A 
ATOM     31  O   UNL     1      46.278   5.572   8.739  0.00  0.00    +0.000 OA
ATOM     32  C   UNL     1      44.914   4.308  10.201  0.00  0.00    +0.000 A 
ATOM     33  H   UNL     1      46.012   3.703   7.162  0.00  0.00    +0.000 HD
ENDBRANCH  20  23
ENDBRANCH  18  19
ENDBRANCH   4  18
TORSDOF 6
ENDMDL
MODEL 6
REMARK VINA RESULT:    -6.623      5.054      7.517
REMARK INTER + INTRA:          -9.845
REMARK INTER:                  -9.001
REMARK INTRA:                  -0.844
REMARK UNBOUND:                -0.899
REMARK  Name = 
REMARK  6 active torsions:
REMARK  status: ('A' for Active; 'I' for Inactive)
REMARK    1  A    between atoms: C_2  and  C_25
REMARK    2  A    between atoms: N_3  and  C_4
REMARK    3  A    between atoms: C_4  and  C_5
REMARK    4  A    between atoms: C_8  and  C_9
REMARK    5  A    between atoms: C_9  and  N_10
REMARK    6  A    between atoms: C_11  and  C_13
REMARK                            x       y       z     vdW  Elec       q    Type
REMARK                         _______ _______ _______ _____ _____    ______ ____
ROOT
ATOM      1  C   UNL     1      50.404   8.876  11.260  0.00  0.00    +0.000 A 
ATOM      2  C   UNL     1      49.509   9.933  11.475  0.00  0.00    +0.000 A 
ATOM      3  C   UNL     1      48.228   9.695  11.989  0.00  0.00    +0.000 A 
ATOM      4  C   UNL     1      47.821   8.395  12.319  0.00  0.00    +0.000 A 
ATOM      5  C   UNL     1      48.713   7.338  12.097  0.00  0.00    +0.000 A 
ATOM      6  C   UNL     1      49.996   7.576  11.587  0.00  0.00    +0.000 A 
ENDROOT
BRANCH   1   7
ATOM      7  C   UNL     1      51.784   9.138  10.711  0.00  0.00    +0.000 C 
BRANCH   7  10
ATOM      8  O   UNL     1      53.246   9.319   8.324  0.00  0.00    +0.000 OA
ATOM      9  C   UNL     1      52.980   8.210   8.775  0.00  0.00    +0.000 C 
ATOM     10  N   UNL     1      52.265   8.023   9.933  0.00  0.00    +0.000 N 
ATOM     11  H   UNL     1      52.211   7.103  10.339  0.00  0.00    +0.000 HD
BRANCH   9  12
ATOM     12  C   UNL     1      53.409   6.983   8.128  0.00  0.00    +0.000 A 
ATOM     13  C   UNL     1      52.760   6.138   7.245  0.00  0.00    +0.000 A 
ATOM     14  C   UNL     1      53.645   5.086   6.903  0.00  0.00    +0.000 A 
ATOM     15  C   UNL     1      54.819   5.309   7.582  0.00  0.00    +0.000 A 
ATOM     16  N   UNL     1      54.671   6.456   8.316  0.00  0.00    +0.000 N 
ATOM     17  H   UNL     1      55.376   6.874   8.912  0.00  0.00    +0.000 HD
ENDBRANCH   9  12
ENDBRANCH   7  10
ENDBRANCH   1   7
BRANCH   4  18
ATOM     18  C   UNL     1      46.447   8.125  12.885  0.00  0.00    +0.000 C 
BRANCH  18  19
ATOM     19  N   UNL     1      45.993   6.792  12.579  0.00  0.00    +0.000 N 
ATOM     20  C   UNL     1      44.893   6.578  11.786  0.00  0.00    +0.000 C 
ATOM     21  O   UNL     1      44.270   7.503  11.272  0.00  0.00    +0.000 OA
ATOM     22  H   UNL     1      46.321   6.044  13.182  0.00  0.00    +0.000 HD
BRANCH  20  23
ATOM     23  C   UNL     1      44.536   5.177  11.526  0.00  0.00    +0.000 A 
ATOM     24  C   UNL     1      43.804   4.463  12.466  0.00  0.00    +0.000 A 
ATOM     25  S   UNL     1      43.431   2.871  11.977  0.00  0.00    +0.000 S 
ATOM     26  C   UNL     1      44.281   3.063  10.516  0.00  0.00    +0.000 A 
ATOM     27  N   UNL     1      44.381   2.040   9.624  0.00  0.00    +0.000 NA
ATOM     28  C   UNL     1      45.082   2.314   8.574  0.00  0.00    +0.000 A 
ATOM     29  N   UNL     1      45.686   3.521   8.333  0.00  0.00    +0.000 N 
ATOM     30  C   UNL     1      45.583   4.592   9.187  0.00  0.00    +0.000 A 
ATOM     31  O   UNL     1      46.091   5.675   8.916  0.00  0.00    +0.000 OA
ATOM     32  C   UNL     1      44.822   4.331  10.393  0.00  0.00    +0.000 A 
ATOM     33  H   UNL     1      46.211   3.676   7.485  0.00  0.00    +0.000 HD
ENDBRANCH  20  23
ENDBRANCH  18  19
ENDBRANCH   4  18
TORSDOF 6
ENDMDL
MODEL 7
REMARK VINA RESULT:    -6.520      2.831      3.943
REMARK INTER + INTRA:          -9.706
REMARK INTER:                  -8.782
REMARK INTRA:                  -0.924
REMARK UNBOUND:                -0.899
REMARK  Name = 
REMARK  6 active torsions:
REMARK  status: ('A' for Active; 'I' for Inactive)
REMARK    1  A    between atoms: C_2  and  C_25
REMARK    2  A    between atoms: N_3  and  C_4
REMARK    3  A    between atoms: C_4  and  C_5
REMARK    4  A    between atoms: C_8  and  C_9
REMARK    5  A    between atoms: C_9  and  N_10
REMARK    6  A    between atoms: C_11  and  C_13
REMARK                            x       y       z     vdW  Elec       q    Type
REMARK                         _______ _______ _______ _____ _____    ______ ____
ROOT
ATOM      1  C   UNL     1      44.896   4.918  10.943  0.00  0.00    +0.000 A 
ATOM      2  C   UNL     1      44.633   4.332  12.189  0.00  0.00    +0.000 A 
ATOM      3  C   UNL     1      45.365   4.701  13.324  0.00  0.00    +0.000 A 
ATOM      4  C   UNL     1      46.363   5.682  13.243  0.00  0.00    +0.000 A 
ATOM      5  C   UNL     1      46.629   6.263  11.997  0.00  0.00    +0.000 A 
ATOM      6  C   UNL     1      45.895   5.898  10.862  0.00  0.00    +0.000 A 
ENDROOT
BRANCH   1   7
ATOM      7  C   UNL     1      44.101   4.520   9.725  0.00  0.00    +0.000 C 
BRANCH   7  10
ATOM      8  O   UNL     1      45.356   2.035   9.389  0.00  0.00    +0.000 OA
ATOM      9  C   UNL     1      45.530   2.907   8.545  0.00  0.00    +0.000 C 
ATOM     10  N   UNL     1      44.963   4.155   8.627  0.00  0.00    +0.000 N 
ATOM     11  H   UNL     1      45.010   4.774   7.834  0.00  0.00    +0.000 HD
BRANCH   9  12
ATOM     12  C   UNL     1      46.350   2.696   7.365  0.00  0.00    +0.000 A 
ATOM     13  C   UNL     1      46.407   3.370   6.158  0.00  0.00    +0.000 A 
ATOM     14  C   UNL     1      47.404   2.761   5.355  0.00  0.00    +0.000 A 
ATOM     15  C   UNL     1      47.939   1.728   6.088  0.00  0.00    +0.000 A 
ATOM     16  N   UNL     1      47.301   1.697   7.300  0.00  0.00    +0.000 N 
ATOM     17  H   UNL     1      47.489   1.045   8.053  0.00  0.00    +0.000 HD
ENDBRANCH   9  12
ENDBRANCH   7  10
ENDBRANCH   1   7
BRANCH   4  18
ATOM     18  C   UNL     1      47.151   6.099  14.461  0.00  0.00    +0.000 C 
BRANCH  18  19
ATOM     19  N   UNL     1      48.415   6.693  14.105  0.00  0.00    +0.000 N 
ATOM     20  C   UNL     1      48.642   8.037  14.264  0.00  0.00    +0.000 C 
ATOM     21  O   UNL     1      47.799   8.788  14.749  0.00  0.00    +0.000 OA
ATOM     22  H   UNL     1      49.014   6.161  13.481  0.00  0.00    +0.000 HD
BRANCH  20  23
ATOM     23  C   UNL     1      49.975   8.527  13.886  0.00  0.00    +0.000 A 
ATOM     24  C   UNL     1      50.102   9.509  12.912  0.00  0.00    +0.000 A 
ATOM     25  S   UNL     1      51.714   9.996  12.639  0.00  0.00    +0.000 S 
ATOM     26  C   UNL     1      52.303   8.873  13.772  0.00  0.00    +0.000 A 
ATOM     27  N   UNL     1      53.637   8.750  14.007  0.00  0.00    +0.000 NA
ATOM     28  C   UNL     1      53.945   7.836  14.867  0.00  0.00    +0.000 A 
ATOM     29  N   UNL     1      53.039   7.041  15.519  0.00  0.00    +0.000 N 
ATOM     30  C   UNL     1      51.681   7.154  15.340  0.00  0.00    +0.000 A 
ATOM     31  O   UNL     1      50.894   6.463  15.978  0.00  0.00    +0.000 OA
ATOM     32  C   UNL     1      51.282   8.153  14.368  0.00  0.00    +0.000 A 
ATOM     33  H   UNL     1      53.343   6.352  16.190  0.00  0.00    +0.000 HD
ENDBRANCH  20  23
ENDBRANCH  18  19
ENDBRANCH   4  18
TORSDOF 6
ENDMDL
MODEL 8
REMARK VINA RESULT:    -6.260      1.888      2.546
REMARK INTER + INTRA:          -9.355
REMARK INTER:                  -8.391
REMARK INTRA:                  -0.963
REMARK UNBOUND:                -0.899
REMARK  Name = 
REMARK  6 active torsions:
REMARK  status: ('A' for Active; 'I' for Inactive)
REMARK    1  A    between atoms: C_2  and  C_25
REMARK    2  A    between atoms: N_3  and  C_4
REMARK    3  A    between atoms: C_4  and  C_5
REMARK    4  A    between atoms: C_8  and  C_9
REMARK    5  A    between atoms: C_9  and  N_10
REMARK    6  A    between atoms: C_11  and  C_13
REMARK                            x       y       z     vdW  Elec       q    Type
REMARK                         _______ _______ _______ _____ _____    ______ ____
ROOT
ATOM      1  C   UNL     1      46.192   7.281  12.107  0.00  0.00    +0.000 A 
ATOM      2  C   UNL     1      47.210   6.440  12.579  0.00  0.00    +0.000 A 
ATOM      3  C   UNL     1      48.275   6.955  13.328  0.00  0.00    +0.000 A 
ATOM      4  C   UNL     1      48.335   8.320  13.642  0.00  0.00    +0.000 A 
ATOM      5  C   UNL     1      47.321   9.160  13.164  0.00  0.00    +0.000 A 
ATOM      6  C   UNL     1      46.253   8.646  12.418  0.00  0.00    +0.000 A 
ENDROOT
BRANCH   1   7
ATOM      7  C   UNL     1      45.045   6.721  11.304  0.00  0.00    +0.000 C 
BRANCH   7  10
ATOM      8  O   UNL     1      43.317   4.805  10.204  0.00  0.00    +0.000 OA
ATOM      9  C   UNL     1      44.525   4.681  10.036  0.00  0.00    +0.000 C 
ATOM     10  N   UNL     1      45.448   5.564  10.541  0.00  0.00    +0.000 N 
ATOM     11  H   UNL     1      46.408   5.504  10.242  0.00  0.00    +0.000 HD
BRANCH   9  12
ATOM     12  C   UNL     1      45.096   3.586   9.272  0.00  0.00    +0.000 A 
ATOM     13  C   UNL     1      45.015   2.215   9.437  0.00  0.00    +0.000 A 
ATOM     14  C   UNL     1      45.747   1.597   8.393  0.00  0.00    +0.000 A 
ATOM     15  C   UNL     1      46.261   2.602   7.609  0.00  0.00    +0.000 A 
ATOM     16  N   UNL     1      45.862   3.799   8.143  0.00  0.00    +0.000 N 
ATOM     17  H   UNL     1      46.083   4.717   7.774  0.00  0.00    +0.000 HD
ENDBRANCH   9  12
ENDBRANCH   7  10
ENDBRANCH   1   7
BRANCH   4  18
ATOM     18  C   UNL     1      49.471   8.886  14.459  0.00  0.00    +0.000 C 
BRANCH  18  19
ATOM     19  N   UNL     1      49.542   8.287  15.768  0.00  0.00    +0.000 N 
ATOM     20  C   UNL     1      48.715   8.694  16.785  0.00  0.00    +0.000 C 
ATOM     21  O   UNL     1      47.855   9.557  16.620  0.00  0.00    +0.000 OA
ATOM     22  H   UNL     1      50.389   7.775  15.995  0.00  0.00    +0.000 HD
BRANCH  20  23
ATOM     23  C   UNL     1      48.863   7.998  18.070  0.00  0.00    +0.000 A 
ATOM     24  C   UNL     1      49.170   8.718  19.217  0.00  0.00    +0.000 A 
ATOM     25  S   UNL     1      49.250   7.758  20.626  0.00  0.00    +0.000 S 
ATOM     26  C   UNL     1      48.934   6.340  19.743  0.00  0.00    +0.000 A 
ATOM     27  N   UNL     1      48.892   5.127  20.358  0.00  0.00    +0.000 NA
ATOM     28  C   UNL     1      48.674   4.133  19.563  0.00  0.00    +0.000 A 
ATOM     29  N   UNL     1      48.487   4.243  18.209  0.00  0.00    +0.000 N 
ATOM     30  C   UNL     1      48.485   5.449  17.551  0.00  0.00    +0.000 A 
ATOM     31  O   UNL     1      48.261   5.518  16.347  0.00  0.00    +0.000 OA
ATOM     32  C   UNL     1      48.745   6.597  18.396  0.00  0.00    +0.000 A 
ATOM     33  H   UNL     1      48.309   3.427  17.643  0.00  0.00    +0.000 HD
ENDBRANCH  20  23
ENDBRANCH  18  19
ENDBRANCH   4  18
TORSDOF 6
ENDMDL
MODEL 9
REMARK VINA RESULT:    -6.250      3.025      9.000
REMARK INTER + INTRA:          -9.341
REMARK INTER:                  -8.478
REMARK INTRA:                  -0.863
REMARK UNBOUND:                -0.899
REMARK  Name = 
REMARK  6 active torsions:
REMARK  status: ('A' for Active; 'I' for Inactive)
REMARK    1  A    between atoms: C_2  and  C_25
REMARK    2  A    between atoms: N_3  and  C_4
REMARK    3  A    between atoms: C_4  and  C_5
REMARK    4  A    between atoms: C_8  and  C_9
REMARK    5  A    between atoms: C_9  and  N_10
REMARK    6  A    between atoms: C_11  and  C_13
REMARK                            x       y       z     vdW  Elec       q    Type
REMARK                         _______ _______ _______ _____ _____    ______ ____
ROOT
ATOM      1  C   UNL     1      49.720   8.275  15.414  0.00  0.00    +0.000 A 
ATOM      2  C   UNL     1      50.202   7.681  14.240  0.00  0.00    +0.000 A 
ATOM      3  C   UNL     1      49.402   7.607  13.093  0.00  0.00    +0.000 A 
ATOM      4  C   UNL     1      48.109   8.147  13.088  0.00  0.00    +0.000 A 
ATOM      5  C   UNL     1      47.625   8.735  14.264  0.00  0.00    +0.000 A 
ATOM      6  C   UNL     1      48.425   8.812  15.410  0.00  0.00    +0.000 A 
ENDROOT
BRANCH   1   7
ATOM      7  C   UNL     1      50.587   8.356  16.646  0.00  0.00    +0.000 C 
BRANCH   7  10
ATOM      8  O   UNL     1      50.555   5.591  17.117  0.00  0.00    +0.000 OA
ATOM      9  C   UNL     1      50.009   6.337  17.923  0.00  0.00    +0.000 C 
ATOM     10  N   UNL     1      49.968   7.702  17.773  0.00  0.00    +0.000 N 
ATOM     11  H   UNL     1      49.647   8.275  18.537  0.00  0.00    +0.000 HD
BRANCH   9  12
ATOM     12  C   UNL     1      49.358   5.844  19.124  0.00  0.00    +0.000 A 
ATOM     13  C   UNL     1      49.752   4.901  20.056  0.00  0.00    +0.000 A 
ATOM     14  C   UNL     1      48.747   4.812  21.051  0.00  0.00    +0.000 A 
ATOM     15  C   UNL     1      47.759   5.704  20.709  0.00  0.00    +0.000 A 
ATOM     16  N   UNL     1      48.136   6.325  19.548  0.00  0.00    +0.000 N 
ATOM     17  H   UNL     1      47.609   7.039  19.058  0.00  0.00    +0.000 HD
ENDBRANCH   9  12
ENDBRANCH   7  10
ENDBRANCH   1   7
BRANCH   4  18
ATOM     18  C   UNL     1      47.240   8.086  11.855  0.00  0.00    +0.000 C 
BRANCH  18  19
ATOM     19  N   UNL     1      46.619   6.795  11.699  0.00  0.00    +0.000 N 
ATOM     20  C   UNL     1      45.266   6.674  11.500  0.00  0.00    +0.000 C 
ATOM     21  O   UNL     1      44.530   7.653  11.409  0.00  0.00    +0.000 OA
ATOM     22  H   UNL     1      47.146   5.989  12.020  0.00  0.00    +0.000 HD
BRANCH  20  23
ATOM     23  C   UNL     1      44.748   5.309  11.334  0.00  0.00    +0.000 A 
ATOM     24  C   UNL     1      43.982   4.732  12.338  0.00  0.00    +0.000 A 
ATOM     25  S   UNL     1      43.419   3.168  11.955  0.00  0.00    +0.000 S 
ATOM     26  C   UNL     1      44.225   3.185  10.457  0.00  0.00    +0.000 A 
ATOM     27  N   UNL     1      44.176   2.111   9.623  0.00  0.00    +0.000 NA
ATOM     28  C   UNL     1      44.859   2.249   8.536  0.00  0.00    +0.000 A 
ATOM     29  N   UNL     1      45.580   3.366   8.205  0.00  0.00    +0.000 N 
ATOM     30  C   UNL     1      45.630   4.487   8.998  0.00  0.00    +0.000 A 
ATOM     31  O   UNL     1      46.241   5.491   8.647  0.00  0.00    +0.000 OA
ATOM     32  C   UNL     1      44.894   4.377  10.242  0.00  0.00    +0.000 A 
ATOM     33  H   UNL     1      46.085   3.417   7.332  0.00  0.00    +0.000 HD
ENDBRANCH  20  23
ENDBRANCH  18  19
ENDBRANCH   4  18
TORSDOF 6
ENDMDL
