MODEL 1
REMARK VINA RESULT:    -8.202      0.000      0.000
REMARK INTER + INTRA:         -14.459
REMARK INTER:                 -13.237
REMARK INTRA:                  -1.222
REMARK UNBOUND:                -1.222
REMARK  Name = 
REMARK  11 active torsions:
REMARK  status: ('A' for Active; 'I' for Inactive)
REMARK    1  A    between atoms: N_1  and  C_2
REMARK    2  A    between atoms: C_2  and  C_3
REMARK    3  A    between atoms: C_3  and  O_4
REMARK    4  A    between atoms: O_4  and  C_5
REMARK    5  A    between atoms: C_5  and  C_6
REMARK    6  A    between atoms: C_6  and  N_7
REMARK    7  A    between atoms: C_6  and  C_20
REMARK    8  A    between atoms: C_8  and  C_10
REMARK    9  A    between atoms: C_23  and  O_24
REMARK   10  A    between atoms: O_24  and  C_25
REMARK   11  A    between atoms: C_25  and  C_26
REMARK                            x       y       z     vdW  Elec       q    Type
REMARK                         _______ _______ _______ _____ _____    ______ ____
ROOT
ATOM      1  C   UNL     1      46.552   7.968  12.658  0.00  0.00    +0.000 C 
ENDROOT
BRANCH   1   2
ATOM      2  C   UNL     1      45.943   6.806  11.887  0.00  0.00    +0.000 A 
ATOM      3  C   UNL     1      44.797   6.146  12.344  0.00  0.00    +0.000 A 
ATOM      4  C   UNL     1      44.203   5.146  11.564  0.00  0.00    +0.000 A 
ATOM      5  C   UNL     1      44.734   4.816  10.316  0.00  0.00    +0.000 A 
ATOM      6  C   UNL     1      45.919   5.410   9.894  0.00  0.00    +0.000 A 
ATOM      7  C   UNL     1      46.513   6.394  10.672  0.00  0.00    +0.000 A 
BRANCH   5   8
ATOM      8  O   UNL     1      44.027   3.917   9.565  0.00  0.00    +0.000 OA
BRANCH   8   9
ATOM      9  C   UNL     1      44.580   2.591   9.581  0.00  0.00    +0.000 C 
BRANCH   9  10
ATOM     10  C   UNL     1      45.502   2.350   8.412  0.00  0.00    +0.000 A 
ATOM     11  C   UNL     1      45.699   3.329   7.441  0.00  0.00    +0.000 A 
ATOM     12  C   UNL     1      46.615   3.091   6.422  0.00  0.00    +0.000 A 
ATOM     13  C   UNL     1      47.322   1.895   6.409  0.00  0.00    +0.000 A 
ATOM     14  C   UNL     1      47.084   0.982   7.421  0.00  0.00    +0.000 A 
ATOM     15  N   UNL     1      46.199   1.183   8.420  0.00  0.00    +0.000 NA
ENDBRANCH   9  10
ENDBRANCH   8   9
ENDBRANCH   5   8
ENDBRANCH   1   2
BRANCH   1  16
ATOM     16  N   UNL     1      47.086   7.475  13.925  0.00  0.00    +0.000 N 
ATOM     17  C   UNL     1      48.339   6.948  14.074  0.00  0.00    +0.000 C 
ATOM     18  O   UNL     1      49.178   6.950  13.179  0.00  0.00    +0.000 OA
ATOM     19  H   UNL     1      46.399   7.291  14.644  0.00  0.00    +0.000 HD
BRANCH  17  20
ATOM     20  C   UNL     1      48.643   6.413  15.412  0.00  0.00    +0.000 A 
ATOM     21  C   UNL     1      49.597   7.032  16.208  0.00  0.00    +0.000 A 
ATOM     22  S   UNL     1      49.794   6.290  17.734  0.00  0.00    +0.000 S 
ATOM     23  C   UNL     1      48.659   5.081  17.359  0.00  0.00    +0.000 A 
ATOM     24  N   UNL     1      48.381   4.082  18.240  0.00  0.00    +0.000 NA
ATOM     25  C   UNL     1      47.537   3.206  17.806  0.00  0.00    +0.000 A 
ATOM     26  N   UNL     1      46.936   3.246  16.576  0.00  0.00    +0.000 N 
ATOM     27  C   UNL     1      47.112   4.286  15.699  0.00  0.00    +0.000 A 
ATOM     28  O   UNL     1      46.429   4.371  14.686  0.00  0.00    +0.000 OA
ATOM     29  C   UNL     1      48.104   5.263  16.106  0.00  0.00    +0.000 A 
ATOM     30  H   UNL     1      46.254   2.549  16.313  0.00  0.00    +0.000 HD
ENDBRANCH  17  20
ENDBRANCH   1  16
BRANCH   1  31
ATOM     31  C   UNL     1      45.475   9.048  12.910  0.00  0.00    +0.000 C 
BRANCH  31  32
ATOM     32  O   UNL     1      45.168   9.751  11.703  0.00  0.00    +0.000 OA
BRANCH  32  33
ATOM     33  C   UNL     1      43.887  10.387  11.791  0.00  0.00    +0.000 C 
BRANCH  33  34
ATOM     34  C   UNL     1      42.994   9.879  10.659  0.00  0.00    +0.000 C 
BRANCH  34  35
ATOM     35  N   UNL     1      42.680   8.456  10.832  0.00  0.00    +0.000 NA
ATOM     36  H   UNL     1      43.487   7.901  10.555  0.00  0.00    +0.000 HD
ATOM     37  H   UNL     1      41.938   8.228  10.165  0.00  0.00    +0.000 HD
ENDBRANCH  34  35
ENDBRANCH  33  34
ENDBRANCH  32  33
ENDBRANCH  31  32
ENDBRANCH   1  31
TORSDOF 11
ENDMDL
MODEL 2
REMARK VINA RESULT:    -7.752      2.667      5.112
REMARK INTER + INTRA:         -13.733
REMARK INTER:                 -12.303
REMARK INTRA:                  -1.429
REMARK UNBOUND:                -1.222
REMARK  Name = 
REMARK  11 active torsions:
REMARK  status: ('A' for Active; 'I' for Inactive)
REMARK    1  A    between atoms: N_1  and  C_2
REMARK    2  A    between atoms: C_2  and  C_3
REMARK    3  A    between atoms: C_3  and  O_4
REMARK    4  A    between atoms: O_4  and  C_5
REMARK    5  A    between atoms: C_5  and  C_6
REMARK    6  A    between atoms: C_6  and  N_7
REMARK    7  A    between atoms: C_6  and  C_20
REMARK    8  A    between atoms: C_8  and  C_10
REMARK    9  A    between atoms: C_23  and  O_24
REMARK   10  A    between atoms: O_24  and  C_25
REMARK   11  A    between atoms: C_25  and  C_26
REMARK                            x       y       z     vdW  Elec       q    Type
REMARK                         _______ _______ _______ _____ _____    ______ ____
ROOT
ATOM      1  C   UNL     1      46.742   5.658  14.101  0.00  0.00    +0.000 C 
ENDROOT
BRANCH   1   2
ATOM      2  C   UNL     1      45.950   5.188  12.891  0.00  0.00    +0.000 A 
ATOM      3  C   UNL     1      45.948   5.910  11.692  0.00  0.00    +0.000 A 
ATOM      4  C   UNL     1      45.289   5.403  10.565  0.00  0.00    +0.000 A 
ATOM      5  C   UNL     1      44.649   4.163  10.622  0.00  0.00    +0.000 A 
ATOM      6  C   UNL     1      44.577   3.481  11.831  0.00  0.00    +0.000 A 
ATOM      7  C   UNL     1      45.221   3.989  12.951  0.00  0.00    +0.000 A 
BRANCH   5   8
ATOM      8  O   UNL     1      44.134   3.683   9.447  0.00  0.00    +0.000 OA
BRANCH   8   9
ATOM      9  C   UNL     1      44.506   2.324   9.168  0.00  0.00    +0.000 C 
BRANCH   9  10
ATOM     10  C   UNL     1      45.597   2.239   8.130  0.00  0.00    +0.000 A 
ATOM     11  C   UNL     1      45.872   3.316   7.290  0.00  0.00    +0.000 A 
ATOM     12  C   UNL     1      46.935   3.219   6.399  0.00  0.00    +0.000 A 
ATOM     13  C   UNL     1      47.706   2.064   6.384  0.00  0.00    +0.000 A 
ATOM     14  C   UNL     1      47.381   1.047   7.264  0.00  0.00    +0.000 A 
ATOM     15  N   UNL     1      46.353   1.110   8.136  0.00  0.00    +0.000 NA
ENDBRANCH   9  10
ENDBRANCH   8   9
ENDBRANCH   5   8
ENDBRANCH   1   2
BRANCH   1  16
ATOM     16  N   UNL     1      47.918   6.396  13.647  0.00  0.00    +0.000 N 
ATOM     17  C   UNL     1      47.991   7.760  13.589  0.00  0.00    +0.000 C 
ATOM     18  O   UNL     1      47.114   8.497  14.028  0.00  0.00    +0.000 OA
ATOM     19  H   UNL     1      48.594   5.856  13.122  0.00  0.00    +0.000 HD
BRANCH  17  20
ATOM     20  C   UNL     1      49.229   8.301  13.003  0.00  0.00    +0.000 A 
ATOM     21  C   UNL     1      49.189   8.968  11.786  0.00  0.00    +0.000 A 
ATOM     22  S   UNL     1      50.712   9.549  11.279  0.00  0.00    +0.000 S 
ATOM     23  C   UNL     1      51.487   8.875  12.634  0.00  0.00    +0.000 A 
ATOM     24  N   UNL     1      52.835   8.977  12.795  0.00  0.00    +0.000 NA
ATOM     25  C   UNL     1      53.294   8.378  13.843  0.00  0.00    +0.000 A 
ATOM     26  N   UNL     1      52.527   7.699  14.752  0.00  0.00    +0.000 N 
ATOM     27  C   UNL     1      51.158   7.658  14.681  0.00  0.00    +0.000 A 
ATOM     28  O   UNL     1      50.499   7.188  15.601  0.00  0.00    +0.000 OA
ATOM     29  C   UNL     1      50.592   8.254  13.486  0.00  0.00    +0.000 A 
ATOM     30  H   UNL     1      52.945   7.286  15.573  0.00  0.00    +0.000 HD
ENDBRANCH  17  20
ENDBRANCH   1  16
BRANCH   1  31
ATOM     31  C   UNL     1      47.166   4.438  14.952  0.00  0.00    +0.000 C 
BRANCH  31  32
ATOM     32  O   UNL     1      48.367   4.716  15.676  0.00  0.00    +0.000 OA
BRANCH  32  33
ATOM     33  C   UNL     1      48.397   3.997  16.916  0.00  0.00    +0.000 C 
BRANCH  33  34
ATOM     34  C   UNL     1      48.290   2.499  16.631  0.00  0.00    +0.000 C 
BRANCH  34  35
ATOM     35  N   UNL     1      49.560   1.966  16.124  0.00  0.00    +0.000 NA
ATOM     36  H   UNL     1      49.384   1.444  15.268  0.00  0.00    +0.000 HD
ATOM     37  H   UNL     1      49.894   1.282  16.809  0.00  0.00    +0.000 HD
ENDBRANCH  34  35
ENDBRANCH  33  34
ENDBRANCH  32  33
ENDBRANCH  31  32
ENDBRANCH   1  31
TORSDOF 11
ENDMDL
MODEL 3
REMARK VINA RESULT:    -7.698      2.317      3.278
REMARK INTER + INTRA:         -13.645
REMARK INTER:                 -11.625
REMARK INTRA:                  -2.020
REMARK UNBOUND:                -1.222
REMARK  Name = 
REMARK  11 active torsions:
REMARK  status: ('A' for Active; 'I' for Inactive)
REMARK    1  A    between atoms: N_1  and  C_2
REMARK    2  A    between atoms: C_2  and  C_3
REMARK    3  A    between atoms: C_3  and  O_4
REMARK    4  A    between atoms: O_4  and  C_5
REMARK    5  A    between atoms: C_5  and  C_6
REMARK    6  A    between atoms: C_6  and  N_7
REMARK    7  A    between atoms: C_6  and  C_20
REMARK    8  A    between atoms: C_8  and  C_10
REMARK    9  A    between atoms: C_23  and  O_24
REMARK   10  A    between atoms: O_24  and  C_25
REMARK   11  A    between atoms: C_25  and  C_26
REMARK                            x       y       z     vdW  Elec       q    Type
REMARK                         _______ _______ _______ _____ _____    ______ ____
ROOT
ATOM      1  C   UNL     1      47.558   6.835  13.470  0.00  0.00    +0.000 C 
ENDROOT
BRANCH   1   2
ATOM      2  C   UNL     1      46.602   5.977  12.656  0.00  0.00    +0.000 A 
ATOM      3  C   UNL     1      46.140   6.385  11.400  0.00  0.00    +0.000 A 
ATOM      4  C   UNL     1      45.339   5.531  10.632  0.00  0.00    +0.000 A 
ATOM      5  C   UNL     1      45.016   4.257  11.101  0.00  0.00    +0.000 A 
ATOM      6  C   UNL     1      45.402   3.878  12.383  0.00  0.00    +0.000 A 
ATOM      7  C   UNL     1      46.187   4.729  13.148  0.00  0.00    +0.000 A 
BRANCH   5   8
ATOM      8  O   UNL     1      44.333   3.440  10.241  0.00  0.00    +0.000 OA
BRANCH   8   9
ATOM      9  C   UNL     1      44.463   3.817   8.861  0.00  0.00    +0.000 C 
BRANCH   9  10
ATOM     10  C   UNL     1      45.507   2.997   8.147  0.00  0.00    +0.000 A 
ATOM     11  C   UNL     1      46.388   3.588   7.245  0.00  0.00    +0.000 A 
ATOM     12  C   UNL     1      47.383   2.807   6.666  0.00  0.00    +0.000 A 
ATOM     13  C   UNL     1      47.484   1.466   7.016  0.00  0.00    +0.000 A 
ATOM     14  C   UNL     1      46.584   0.959   7.936  0.00  0.00    +0.000 A 
ATOM     15  N   UNL     1      45.606   1.691   8.511  0.00  0.00    +0.000 NA
ENDBRANCH   9  10
ENDBRANCH   8   9
ENDBRANCH   5   8
ENDBRANCH   1   2
BRANCH   1  16
ATOM     16  N   UNL     1      47.600   6.337  14.842  0.00  0.00    +0.000 N 
ATOM     17  C   UNL     1      48.746   6.221  15.580  0.00  0.00    +0.000 C 
ATOM     18  O   UNL     1      49.834   6.640  15.198  0.00  0.00    +0.000 OA
ATOM     19  H   UNL     1      46.781   5.826  15.144  0.00  0.00    +0.000 HD
BRANCH  17  20
ATOM     20  C   UNL     1      48.583   5.597  16.904  0.00  0.00    +0.000 A 
ATOM     21  C   UNL     1      48.714   4.223  17.047  0.00  0.00    +0.000 A 
ATOM     22  S   UNL     1      48.521   3.685  18.656  0.00  0.00    +0.000 S 
ATOM     23  C   UNL     1      48.192   5.260  19.206  0.00  0.00    +0.000 A 
ATOM     24  N   UNL     1      47.893   5.499  20.512  0.00  0.00    +0.000 NA
ATOM     25  C   UNL     1      47.618   6.732  20.780  0.00  0.00    +0.000 A 
ATOM     26  N   UNL     1      47.627   7.749  19.863  0.00  0.00    +0.000 N 
ATOM     27  C   UNL     1      48.018   7.569  18.561  0.00  0.00    +0.000 A 
ATOM     28  O   UNL     1      48.177   8.530  17.817  0.00  0.00    +0.000 OA
ATOM     29  C   UNL     1      48.271   6.191  18.187  0.00  0.00    +0.000 A 
ATOM     30  H   UNL     1      47.440   8.700  20.147  0.00  0.00    +0.000 HD
ENDBRANCH  17  20
ENDBRANCH   1  16
BRANCH   1  31
ATOM     31  C   UNL     1      47.086   8.308  13.445  0.00  0.00    +0.000 C 
BRANCH  31  32
ATOM     32  O   UNL     1      47.932   9.098  12.604  0.00  0.00    +0.000 OA
BRANCH  32  33
ATOM     33  C   UNL     1      49.184   9.368  13.246  0.00  0.00    +0.000 C 
BRANCH  33  34
ATOM     34  C   UNL     1      48.929  10.143  14.540  0.00  0.00    +0.000 C 
BRANCH  34  35
ATOM     35  N   UNL     1      49.818   9.686  15.614  0.00  0.00    +0.000 NA
ATOM     36  H   UNL     1      49.548  10.138  16.485  0.00  0.00    +0.000 HD
ATOM     37  H   UNL     1      50.756  10.031  15.395  0.00  0.00    +0.000 HD
ENDBRANCH  34  35
ENDBRANCH  33  34
ENDBRANCH  32  33
ENDBRANCH  31  32
ENDBRANCH   1  31
TORSDOF 11
ENDMDL
MODEL 4
REMARK VINA RESULT:    -7.697      2.341      3.327
REMARK INTER + INTRA:         -13.643
REMARK INTER:                 -11.901
REMARK INTRA:                  -1.742
REMARK UNBOUND:                -1.222
REMARK  Name = 
REMARK  11 active torsions:
REMARK  status: ('A' for Active; 'I' for Inactive)
REMARK    1  A    between atoms: N_1  and  C_2
REMARK    2  A    between atoms: C_2  and  C_3
REMARK    3  A    between atoms: C_3  and  O_4
REMARK    4  A    between atoms: O_4  and  C_5
REMARK    5  A    between atoms: C_5  and  C_6
REMARK    6  A    between atoms: C_6  and  N_7
REMARK    7  A    between atoms: C_6  and  C_20
REMARK    8  A    between atoms: C_8  and  C_10
REMARK    9  A    between atoms: C_23  and  O_24
REMARK   10  A    between atoms: O_24  and  C_25
REMARK   11  A    between atoms: C_25  and  C_26
REMARK                            x       y       z     vdW  Elec       q    Type
REMARK                         _______ _______ _______ _____ _____    ______ ____
ROOT
ATOM      1  C   UNL     1      48.038   7.171  13.288  0.00  0.00    +0.000 C 
ENDROOT
BRANCH   1   2
ATOM      2  C   UNL     1      46.924   6.294  12.739  0.00  0.00    +0.000 A 
ATOM      3  C   UNL     1      46.135   6.702  11.657  0.00  0.00    +0.000 A 
ATOM      4  C   UNL     1      45.183   5.833  11.112  0.00  0.00    +0.000 A 
ATOM      5  C   UNL     1      45.029   4.544  11.626  0.00  0.00    +0.000 A 
ATOM      6  C   UNL     1      45.749   4.162  12.752  0.00  0.00    +0.000 A 
ATOM      7  C   UNL     1      46.686   5.028  13.300  0.00  0.00    +0.000 A 
BRANCH   5   8
ATOM      8  O   UNL     1      44.164   3.716  10.961  0.00  0.00    +0.000 OA
BRANCH   8   9
ATOM      9  C   UNL     1      44.047   4.011   9.560  0.00  0.00    +0.000 C 
BRANCH   9  10
ATOM     10  C   UNL     1      45.141   3.359   8.752  0.00  0.00    +0.000 A 
ATOM     11  C   UNL     1      45.388   1.992   8.853  0.00  0.00    +0.000 A 
ATOM     12  C   UNL     1      46.357   1.422   8.035  0.00  0.00    +0.000 A 
ATOM     13  C   UNL     1      47.037   2.223   7.126  0.00  0.00    +0.000 A 
ATOM     14  C   UNL     1      46.719   3.569   7.072  0.00  0.00    +0.000 A 
ATOM     15  N   UNL     1      45.787   4.151   7.857  0.00  0.00    +0.000 NA
ENDBRANCH   9  10
ENDBRANCH   8   9
ENDBRANCH   5   8
ENDBRANCH   1   2
BRANCH   1  16
ATOM     16  N   UNL     1      47.964   7.184  14.747  0.00  0.00    +0.000 N 
ATOM     17  C   UNL     1      49.015   6.888  15.570  0.00  0.00    +0.000 C 
ATOM     18  O   UNL     1      50.155   6.700  15.158  0.00  0.00    +0.000 OA
ATOM     19  H   UNL     1      47.030   7.163  15.134  0.00  0.00    +0.000 HD
BRANCH  17  20
ATOM     20  C   UNL     1      48.700   6.857  17.008  0.00  0.00    +0.000 A 
ATOM     21  C   UNL     1      48.332   8.023  17.665  0.00  0.00    +0.000 A 
ATOM     22  S   UNL     1      47.978   7.789  19.319  0.00  0.00    +0.000 S 
ATOM     23  C   UNL     1      48.367   6.136  19.230  0.00  0.00    +0.000 A 
ATOM     24  N   UNL     1      48.314   5.342  20.333  0.00  0.00    +0.000 NA
ATOM     25  C   UNL     1      48.681   4.120  20.131  0.00  0.00    +0.000 A 
ATOM     26  N   UNL     1      49.083   3.618  18.921  0.00  0.00    +0.000 N 
ATOM     27  C   UNL     1      49.056   4.357  17.767  0.00  0.00    +0.000 A 
ATOM     28  O   UNL     1      49.259   3.827  16.681  0.00  0.00    +0.000 OA
ATOM     29  C   UNL     1      48.719   5.756  17.947  0.00  0.00    +0.000 A 
ATOM     30  H   UNL     1      49.320   2.642  18.823  0.00  0.00    +0.000 HD
ENDBRANCH  17  20
ENDBRANCH   1  16
BRANCH   1  31
ATOM     31  C   UNL     1      47.896   8.606  12.727  0.00  0.00    +0.000 C 
BRANCH  31  32
ATOM     32  O   UNL     1      49.109   9.028  12.100  0.00  0.00    +0.000 OA
BRANCH  32  33
ATOM     33  C   UNL     1      49.851   7.903  11.610  0.00  0.00    +0.000 C 
BRANCH  33  34
ATOM     34  C   UNL     1      51.347   8.195  11.734  0.00  0.00    +0.000 C 
BRANCH  34  35
ATOM     35  N   UNL     1      51.785   8.126  13.132  0.00  0.00    +0.000 NA
ATOM     36  H   UNL     1      51.051   7.694  13.690  0.00  0.00    +0.000 HD
ATOM     37  H   UNL     1      51.866   9.089  13.470  0.00  0.00    +0.000 HD
ENDBRANCH  34  35
ENDBRANCH  33  34
ENDBRANCH  32  33
ENDBRANCH  31  32
ENDBRANCH   1  31
TORSDOF 11
ENDMDL
MODEL 5
REMARK VINA RESULT:    -7.603      2.720      5.553
REMARK INTER + INTRA:         -13.492
REMARK INTER:                 -12.172
REMARK INTRA:                  -1.319
REMARK UNBOUND:                -1.222
REMARK  Name = 
REMARK  11 active torsions:
REMARK  status: ('A' for Active; 'I' for Inactive)
REMARK    1  A    between atoms: N_1  and  C_2
REMARK    2  A    between atoms: C_2  and  C_3
REMARK    3  A    between atoms: C_3  and  O_4
REMARK    4  A    between atoms: O_4  and  C_5
REMARK    5  A    between atoms: C_5  and  C_6
REMARK    6  A    between atoms: C_6  and  N_7
REMARK    7  A    between atoms: C_6  and  C_20
REMARK    8  A    between atoms: C_8  and  C_10
REMARK    9  A    between atoms: C_23  and  O_24
REMARK   10  A    between atoms: O_24  and  C_25
REMARK   11  A    between atoms: C_25  and  C_26
REMARK                            x       y       z     vdW  Elec       q    Type
REMARK                         _______ _______ _______ _____ _____    ______ ____
ROOT
ATOM      1  C   UNL     1      47.031   6.041  14.065  0.00  0.00    +0.000 C 
ENDROOT
BRANCH   1   2
ATOM      2  C   UNL     1      46.178   5.510  12.923  0.00  0.00    +0.000 A 
ATOM      3  C   UNL     1      46.175   6.122  11.665  0.00  0.00    +0.000 A 
ATOM      4  C   UNL     1      45.455   5.554  10.607  0.00  0.00    +0.000 A 
ATOM      5  C   UNL     1      44.756   4.360  10.791  0.00  0.00    +0.000 A 
ATOM      6  C   UNL     1      44.686   3.792  12.058  0.00  0.00    +0.000 A 
ATOM      7  C   UNL     1      45.391   4.361  13.110  0.00  0.00    +0.000 A 
BRANCH   5   8
ATOM      8  O   UNL     1      44.180   3.807   9.679  0.00  0.00    +0.000 OA
BRANCH   8   9
ATOM      9  C   UNL     1      44.563   2.442   9.449  0.00  0.00    +0.000 C 
BRANCH   9  10
ATOM     10  C   UNL     1      45.563   2.317   8.326  0.00  0.00    +0.000 A 
ATOM     11  C   UNL     1      45.837   3.396   7.489  0.00  0.00    +0.000 A 
ATOM     12  C   UNL     1      46.820   3.258   6.515  0.00  0.00    +0.000 A 
ATOM     13  C   UNL     1      47.514   2.059   6.415  0.00  0.00    +0.000 A 
ATOM     14  C   UNL     1      47.197   1.042   7.298  0.00  0.00    +0.000 A 
ATOM     15  N   UNL     1      46.246   1.145   8.250  0.00  0.00    +0.000 NA
ENDBRANCH   9  10
ENDBRANCH   8   9
ENDBRANCH   5   8
ENDBRANCH   1   2
BRANCH   1  16
ATOM     16  N   UNL     1      48.178   6.756  13.513  0.00  0.00    +0.000 N 
ATOM     17  C   UNL     1      48.493   8.051  13.819  0.00  0.00    +0.000 C 
ATOM     18  O   UNL     1      47.907   8.697  14.682  0.00  0.00    +0.000 OA
ATOM     19  H   UNL     1      48.589   6.345  12.685  0.00  0.00    +0.000 HD
BRANCH  17  20
ATOM     20  C   UNL     1      49.630   8.618  13.073  0.00  0.00    +0.000 A 
ATOM     21  C   UNL     1      50.922   8.187  13.342  0.00  0.00    +0.000 A 
ATOM     22  S   UNL     1      52.105   8.933  12.362  0.00  0.00    +0.000 S 
ATOM     23  C   UNL     1      50.940   9.902  11.590  0.00  0.00    +0.000 A 
ATOM     24  N   UNL     1      51.300  10.816  10.648  0.00  0.00    +0.000 NA
ATOM     25  C   UNL     1      50.320  11.515  10.181  0.00  0.00    +0.000 A 
ATOM     26  N   UNL     1      49.011  11.374  10.560  0.00  0.00    +0.000 N 
ATOM     27  C   UNL     1      48.593  10.401  11.431  0.00  0.00    +0.000 A 
ATOM     28  O   UNL     1      47.399  10.197  11.614  0.00  0.00    +0.000 OA
ATOM     29  C   UNL     1      49.661   9.631  12.041  0.00  0.00    +0.000 A 
ATOM     30  H   UNL     1      48.287  11.927  10.126  0.00  0.00    +0.000 HD
ENDBRANCH  17  20
ENDBRANCH   1  16
BRANCH   1  31
ATOM     31  C   UNL     1      47.503   4.866  14.953  0.00  0.00    +0.000 C 
BRANCH  31  32
ATOM     32  O   UNL     1      48.459   5.312  15.918  0.00  0.00    +0.000 OA
BRANCH  32  33
ATOM     33  C   UNL     1      48.593   4.363  16.984  0.00  0.00    +0.000 C 
BRANCH  33  34
ATOM     34  C   UNL     1      47.275   4.287  17.757  0.00  0.00    +0.000 C 
BRANCH  34  35
ATOM     35  N   UNL     1      46.732   2.924  17.742  0.00  0.00    +0.000 NA
ATOM     36  H   UNL     1      47.343   2.316  18.283  0.00  0.00    +0.000 HD
ATOM     37  H   UNL     1      46.784   2.590  16.776  0.00  0.00    +0.000 HD
ENDBRANCH  34  35
ENDBRANCH  33  34
ENDBRANCH  32  33
ENDBRANCH  31  32
ENDBRANCH   1  31
TORSDOF 11
ENDMDL
MODEL 6
REMARK VINA RESULT:    -7.217      2.510      5.107
REMARK INTER + INTRA:         -12.868
REMARK INTER:                 -12.141
REMARK INTRA:                  -0.727
REMARK UNBOUND:                -1.222
REMARK  Name = 
REMARK  11 active torsions:
REMARK  status: ('A' for Active; 'I' for Inactive)
REMARK    1  A    between atoms: N_1  and  C_2
REMARK    2  A    between atoms: C_2  and  C_3
REMARK    3  A    between atoms: C_3  and  O_4
REMARK    4  A    between atoms: O_4  and  C_5
REMARK    5  A    between atoms: C_5  and  C_6
REMARK    6  A    between atoms: C_6  and  N_7
REMARK    7  A    between atoms: C_6  and  C_20
REMARK    8  A    between atoms: C_8  and  C_10
REMARK    9  A    between atoms: C_23  and  O_24
REMARK   10  A    between atoms: O_24  and  C_25
REMARK   11  A    between atoms: C_25  and  C_26
REMARK                            x       y       z     vdW  Elec       q    Type
REMARK                         _______ _______ _______ _____ _____    ______ ____
ROOT
ATOM      1  C   UNL     1      46.851   5.265  14.693  0.00  0.00    +0.000 C 
ENDROOT
BRANCH   1   2
ATOM      2  C   UNL     1      46.278   4.905  13.331  0.00  0.00    +0.000 A 
ATOM      3  C   UNL     1      45.912   3.592  13.014  0.00  0.00    +0.000 A 
ATOM      4  C   UNL     1      45.297   3.309  11.789  0.00  0.00    +0.000 A 
ATOM      5  C   UNL     1      45.021   4.336  10.884  0.00  0.00    +0.000 A 
ATOM      6  C   UNL     1      45.456   5.628  11.157  0.00  0.00    +0.000 A 
ATOM      7  C   UNL     1      46.075   5.907  12.368  0.00  0.00    +0.000 A 
BRANCH   5   8
ATOM      8  O   UNL     1      44.310   3.995   9.765  0.00  0.00    +0.000 OA
BRANCH   8   9
ATOM      9  C   UNL     1      44.433   2.610   9.403  0.00  0.00    +0.000 C 
BRANCH   9  10
ATOM     10  C   UNL     1      45.438   2.402   8.298  0.00  0.00    +0.000 A 
ATOM     11  C   UNL     1      45.713   3.413   7.381  0.00  0.00    +0.000 A 
ATOM     12  C   UNL     1      46.701   3.203   6.425  0.00  0.00    +0.000 A 
ATOM     13  C   UNL     1      47.399   2.003   6.422  0.00  0.00    +0.000 A 
ATOM     14  C   UNL     1      47.081   1.056   7.380  0.00  0.00    +0.000 A 
ATOM     15  N   UNL     1      46.125   1.230   8.316  0.00  0.00    +0.000 NA
ENDBRANCH   9  10
ENDBRANCH   8   9
ENDBRANCH   5   8
ENDBRANCH   1   2
BRANCH   1  16
ATOM     16  N   UNL     1      47.795   6.368  14.540  0.00  0.00    +0.000 N 
ATOM     17  C   UNL     1      48.566   6.864  15.555  0.00  0.00    +0.000 C 
ATOM     18  O   UNL     1      48.624   6.345  16.666  0.00  0.00    +0.000 OA
ATOM     19  H   UNL     1      47.670   6.936  13.712  0.00  0.00    +0.000 HD
BRANCH  17  20
ATOM     20  C   UNL     1      49.375   8.046  15.214  0.00  0.00    +0.000 A 
ATOM     21  C   UNL     1      49.636   9.011  16.177  0.00  0.00    +0.000 A 
ATOM     22  S   UNL     1      50.611  10.293  15.608  0.00  0.00    +0.000 S 
ATOM     23  C   UNL     1      50.664   9.635  14.040  0.00  0.00    +0.000 A 
ATOM     24  N   UNL     1      51.318  10.275  13.033  0.00  0.00    +0.000 NA
ATOM     25  C   UNL     1      51.236   9.688  11.885  0.00  0.00    +0.000 A 
ATOM     26  N   UNL     1      50.571   8.512  11.658  0.00  0.00    +0.000 N 
ATOM     27  C   UNL     1      49.985   7.786  12.662  0.00  0.00    +0.000 A 
ATOM     28  O   UNL     1      49.550   6.661  12.448  0.00  0.00    +0.000 OA
ATOM     29  C   UNL     1      49.986   8.433  13.961  0.00  0.00    +0.000 A 
ATOM     30  H   UNL     1      50.579   8.085  10.743  0.00  0.00    +0.000 HD
ENDBRANCH  17  20
ENDBRANCH   1  16
BRANCH   1  31
ATOM     31  C   UNL     1      47.555   4.031  15.305  0.00  0.00    +0.000 C 
BRANCH  31  32
ATOM     32  O   UNL     1      46.825   3.536  16.430  0.00  0.00    +0.000 OA
BRANCH  32  33
ATOM     33  C   UNL     1      47.705   2.924  17.382  0.00  0.00    +0.000 C 
BRANCH  33  34
ATOM     34  C   UNL     1      49.131   2.939  16.832  0.00  0.00    +0.000 C 
BRANCH  34  35
ATOM     35  N   UNL     1      49.462   1.664  16.186  0.00  0.00    +0.000 NA
ATOM     36  H   UNL     1      49.732   1.840  15.220  0.00  0.00    +0.000 HD
ATOM     37  H   UNL     1      48.598   1.116  16.142  0.00  0.00    +0.000 HD
ENDBRANCH  34  35
ENDBRANCH  33  34
ENDBRANCH  32  33
ENDBRANCH  31  32
ENDBRANCH   1  31
TORSDOF 11
ENDMDL
MODEL 7
REMARK VINA RESULT:    -7.007      2.774      5.159
REMARK INTER + INTRA:         -12.529
REMARK INTER:                 -10.888
REMARK INTRA:                  -1.641
REMARK UNBOUND:                -1.222
REMARK  Name = 
REMARK  11 active torsions:
REMARK  status: ('A' for Active; 'I' for Inactive)
REMARK    1  A    between atoms: N_1  and  C_2
REMARK    2  A    between atoms: C_2  and  C_3
REMARK    3  A    between atoms: C_3  and  O_4
REMARK    4  A    between atoms: O_4  and  C_5
REMARK    5  A    between atoms: C_5  and  C_6
REMARK    6  A    between atoms: C_6  and  N_7
REMARK    7  A    between atoms: C_6  and  C_20
REMARK    8  A    between atoms: C_8  and  C_10
REMARK    9  A    between atoms: C_23  and  O_24
REMARK   10  A    between atoms: O_24  and  C_25
REMARK   11  A    between atoms: C_25  and  C_26
REMARK                            x       y       z     vdW  Elec       q    Type
REMARK                         _______ _______ _______ _____ _____    ______ ____
ROOT
ATOM      1  C   UNL     1      47.035   5.120  14.653  0.00  0.00    +0.000 C 
ENDROOT
BRANCH   1   2
ATOM      2  C   UNL     1      46.347   4.755  13.347  0.00  0.00    +0.000 A 
ATOM      3  C   UNL     1      45.907   3.452  13.090  0.00  0.00    +0.000 A 
ATOM      4  C   UNL     1      45.191   3.168  11.921  0.00  0.00    +0.000 A 
ATOM      5  C   UNL     1      44.888   4.185  11.015  0.00  0.00    +0.000 A 
ATOM      6  C   UNL     1      45.393   5.464  11.223  0.00  0.00    +0.000 A 
ATOM      7  C   UNL     1      46.113   5.744  12.377  0.00  0.00    +0.000 A 
BRANCH   5   8
ATOM      8  O   UNL     1      44.082   3.850   9.961  0.00  0.00    +0.000 OA
BRANCH   8   9
ATOM      9  C   UNL     1      44.599   4.262   8.685  0.00  0.00    +0.000 C 
BRANCH   9  10
ATOM     10  C   UNL     1      45.640   3.304   8.162  0.00  0.00    +0.000 A 
ATOM     11  C   UNL     1      45.589   1.949   8.479  0.00  0.00    +0.000 A 
ATOM     12  C   UNL     1      46.526   1.090   7.914  0.00  0.00    +0.000 A 
ATOM     13  C   UNL     1      47.473   1.601   7.035  0.00  0.00    +0.000 A 
ATOM     14  C   UNL     1      47.444   2.956   6.755  0.00  0.00    +0.000 A 
ATOM     15  N   UNL     1      46.550   3.814   7.291  0.00  0.00    +0.000 NA
ENDBRANCH   9  10
ENDBRANCH   8   9
ENDBRANCH   5   8
ENDBRANCH   1   2
BRANCH   1  16
ATOM     16  N   UNL     1      48.180   5.981  14.368  0.00  0.00    +0.000 N 
ATOM     17  C   UNL     1      48.771   6.800  15.290  0.00  0.00    +0.000 C 
ATOM     18  O   UNL     1      48.469   6.798  16.479  0.00  0.00    +0.000 OA
ATOM     19  H   UNL     1      48.361   6.153  13.388  0.00  0.00    +0.000 HD
BRANCH  17  20
ATOM     20  C   UNL     1      49.845   7.664  14.770  0.00  0.00    +0.000 A 
ATOM     21  C   UNL     1      49.557   8.641  13.828  0.00  0.00    +0.000 A 
ATOM     22  S   UNL     1      50.919   9.561  13.364  0.00  0.00    +0.000 S 
ATOM     23  C   UNL     1      51.951   8.644  14.358  0.00  0.00    +0.000 A 
ATOM     24  N   UNL     1      53.289   8.891  14.398  0.00  0.00    +0.000 NA
ATOM     25  C   UNL     1      53.957   8.088  15.157  0.00  0.00    +0.000 A 
ATOM     26  N   UNL     1      53.408   7.070  15.890  0.00  0.00    +0.000 N 
ATOM     27  C   UNL     1      52.056   6.850  15.955  0.00  0.00    +0.000 A 
ATOM     28  O   UNL     1      51.592   6.043  16.751  0.00  0.00    +0.000 OA
ATOM     29  C   UNL     1      51.261   7.678  15.067  0.00  0.00    +0.000 A 
ATOM     30  H   UNL     1      53.983   6.503  16.495  0.00  0.00    +0.000 HD
ENDBRANCH  17  20
ENDBRANCH   1  16
BRANCH   1  31
ATOM     31  C   UNL     1      47.494   3.834  15.378  0.00  0.00    +0.000 C 
BRANCH  31  32
ATOM     32  O   UNL     1      46.873   3.725  16.661  0.00  0.00    +0.000 OA
BRANCH  32  33
ATOM     33  C   UNL     1      47.682   2.955  17.559  0.00  0.00    +0.000 C 
BRANCH  33  34
ATOM     34  C   UNL     1      48.365   3.896  18.553  0.00  0.00    +0.000 C 
BRANCH  34  35
ATOM     35  N   UNL     1      49.622   4.419  18.007  0.00  0.00    +0.000 NA
ATOM     36  H   UNL     1      50.351   4.337  18.713  0.00  0.00    +0.000 HD
ATOM     37  H   UNL     1      49.489   5.422  17.854  0.00  0.00    +0.000 HD
ENDBRANCH  34  35
ENDBRANCH  33  34
ENDBRANCH  32  33
ENDBRANCH  31  32
ENDBRANCH   1  31
TORSDOF 11
ENDMDL
MODEL 8
REMARK VINA RESULT:    -6.799      3.120      7.887
REMARK INTER + INTRA:         -12.194
REMARK INTER:                 -10.420
REMARK INTRA:                  -1.774
REMARK UNBOUND:                -1.222
REMARK  Name = 
REMARK  11 active torsions:
REMARK  status: ('A' for Active; 'I' for Inactive)
REMARK    1  A    between atoms: N_1  and  C_2
REMARK    2  A    between atoms: C_2  and  C_3
REMARK    3  A    between atoms: C_3  and  O_4
REMARK    4  A    between atoms: O_4  and  C_5
REMARK    5  A    between atoms: C_5  and  C_6
REMARK    6  A    between atoms: C_6  and  N_7
REMARK    7  A    between atoms: C_6  and  C_20
REMARK    8  A    between atoms: C_8  and  C_10
REMARK    9  A    between atoms: C_23  and  O_24
REMARK   10  A    between atoms: O_24  and  C_25
REMARK   11  A    between atoms: C_25  and  C_26
REMARK                            x       y       z     vdW  Elec       q    Type
REMARK                         _______ _______ _______ _____ _____    ______ ____
ROOT
ATOM      1  C   UNL     1      47.439   7.133  13.190  0.00  0.00    +0.000 C 
ENDROOT
BRANCH   1   2
ATOM      2  C   UNL     1      48.168   6.570  14.400  0.00  0.00    +0.000 A 
ATOM      3  C   UNL     1      49.381   7.111  14.841  0.00  0.00    +0.000 A 
ATOM      4  C   UNL     1      49.979   6.636  16.014  0.00  0.00    +0.000 A 
ATOM      5  C   UNL     1      49.360   5.637  16.767  0.00  0.00    +0.000 A 
ATOM      6  C   UNL     1      48.198   5.038  16.291  0.00  0.00    +0.000 A 
ATOM      7  C   UNL     1      47.611   5.502  15.122  0.00  0.00    +0.000 A 
BRANCH   5   8
ATOM      8  O   UNL     1      49.945   5.314  17.961  0.00  0.00    +0.000 OA
BRANCH   8   9
ATOM      9  C   UNL     1      51.369   5.140  17.877  0.00  0.00    +0.000 C 
BRANCH   9  10
ATOM     10  C   UNL     1      51.761   3.683  17.885  0.00  0.00    +0.000 A 
ATOM     11  C   UNL     1      50.877   2.701  17.446  0.00  0.00    +0.000 A 
ATOM     12  C   UNL     1      51.308   1.380  17.402  0.00  0.00    +0.000 A 
ATOM     13  C   UNL     1      52.611   1.077  17.777  0.00  0.00    +0.000 A 
ATOM     14  C   UNL     1      53.434   2.112  18.181  0.00  0.00    +0.000 A 
ATOM     15  N   UNL     1      53.043   3.403  18.239  0.00  0.00    +0.000 NA
ENDBRANCH   9  10
ENDBRANCH   8   9
ENDBRANCH   5   8
ENDBRANCH   1   2
BRANCH   1  16
ATOM     16  N   UNL     1      46.692   6.060  12.538  0.00  0.00    +0.000 N 
ATOM     17  C   UNL     1      45.331   6.043  12.409  0.00  0.00    +0.000 C 
ATOM     18  O   UNL     1      44.616   6.989  12.723  0.00  0.00    +0.000 OA
ATOM     19  H   UNL     1      47.197   5.192  12.416  0.00  0.00    +0.000 HD
BRANCH  17  20
ATOM     20  C   UNL     1      44.769   4.819  11.813  0.00  0.00    +0.000 A 
ATOM     21  C   UNL     1      43.990   3.965  12.582  0.00  0.00    +0.000 A 
ATOM     22  S   UNL     1      43.403   2.615  11.716  0.00  0.00    +0.000 S 
ATOM     23  C   UNL     1      44.222   3.091  10.303  0.00  0.00    +0.000 A 
ATOM     24  N   UNL     1      44.172   2.333   9.174  0.00  0.00    +0.000 NA
ATOM     25  C   UNL     1      44.878   2.788   8.193  0.00  0.00    +0.000 A 
ATOM     26  N   UNL     1      45.620   3.939   8.235  0.00  0.00    +0.000 N 
ATOM     27  C   UNL     1      45.619   4.781   9.317  0.00  0.00    +0.000 A 
ATOM     28  O   UNL     1      46.156   5.881   9.254  0.00  0.00    +0.000 OA
ATOM     29  C   UNL     1      44.898   4.285  10.474  0.00  0.00    +0.000 A 
ATOM     30  H   UNL     1      46.120   4.259   7.419  0.00  0.00    +0.000 HD
ENDBRANCH  17  20
ENDBRANCH   1  16
BRANCH   1  31
ATOM     31  C   UNL     1      48.459   7.754  12.208  0.00  0.00    +0.000 C 
BRANCH  31  32
ATOM     32  O   UNL     1      47.952   8.969  11.650  0.00  0.00    +0.000 OA
BRANCH  32  33
ATOM     33  C   UNL     1      47.085   9.636  12.576  0.00  0.00    +0.000 C 
BRANCH  33  34
ATOM     34  C   UNL     1      45.877  10.194  11.823  0.00  0.00    +0.000 C 
BRANCH  34  35
ATOM     35  N   UNL     1      44.637   9.970  12.574  0.00  0.00    +0.000 NA
ATOM     36  H   UNL     1      44.064  10.810  12.528  0.00  0.00    +0.000 HD
ATOM     37  H   UNL     1      44.897   9.859  13.558  0.00  0.00    +0.000 HD
ENDBRANCH  34  35
ENDBRANCH  33  34
ENDBRANCH  32  33
ENDBRANCH  31  32
ENDBRANCH   1  31
TORSDOF 11
ENDMDL
MODEL 9
REMARK VINA RESULT:    -6.753      3.278      7.505
REMARK INTER + INTRA:         -12.121
REMARK INTER:                 -10.441
REMARK INTRA:                  -1.679
REMARK UNBOUND:                -1.222
REMARK  Name = 
REMARK  11 active torsions:
REMARK  status: ('A' for Active; 'I' for Inactive)
REMARK    1  A    between atoms: N_1  and  C_2
REMARK    2  A    between atoms: C_2  and  C_3
REMARK    3  A    between atoms: C_3  and  O_4
REMARK    4  A    between atoms: O_4  and  C_5
REMARK    5  A    between atoms: C_5  and  C_6
REMARK    6  A    between atoms: C_6  and  N_7
REMARK    7  A    between atoms: C_6  and  C_20
REMARK    8  A    between atoms: C_8  and  C_10
REMARK    9  A    between atoms: C_23  and  O_24
REMARK   10  A    between atoms: O_24  and  C_25
REMARK   11  A    between atoms: C_25  and  C_26
REMARK                            x       y       z     vdW  Elec       q    Type
REMARK                         _______ _______ _______ _____ _____    ______ ____
ROOT
ATOM      1  C   UNL     1      48.048   7.317  13.123  0.00  0.00    +0.000 C 
ENDROOT
BRANCH   1   2
ATOM      2  C   UNL     1      48.257   6.623  14.460  0.00  0.00    +0.000 A 
ATOM      3  C   UNL     1      47.527   5.483  14.816  0.00  0.00    +0.000 A 
ATOM      4  C   UNL     1      47.811   4.810  16.010  0.00  0.00    +0.000 A 
ATOM      5  C   UNL     1      48.839   5.254  16.843  0.00  0.00    +0.000 A 
ATOM      6  C   UNL     1      49.512   6.432  16.537  0.00  0.00    +0.000 A 
ATOM      7  C   UNL     1      49.223   7.106  15.358  0.00  0.00    +0.000 A 
BRANCH   5   8
ATOM      8  O   UNL     1      49.133   4.472  17.928  0.00  0.00    +0.000 OA
BRANCH   8   9
ATOM      9  C   UNL     1      49.272   3.078  17.613  0.00  0.00    +0.000 C 
BRANCH   9  10
ATOM     10  C   UNL     1      50.714   2.634  17.638  0.00  0.00    +0.000 A 
ATOM     11  C   UNL     1      51.720   3.493  18.074  0.00  0.00    +0.000 A 
ATOM     12  C   UNL     1      53.024   3.017  18.150  0.00  0.00    +0.000 A 
ATOM     13  C   UNL     1      53.286   1.696  17.810  0.00  0.00    +0.000 A 
ATOM     14  C   UNL     1      52.229   0.900  17.407  0.00  0.00    +0.000 A 
ATOM     15  N   UNL     1      50.954   1.335  17.318  0.00  0.00    +0.000 NA
ENDBRANCH   9  10
ENDBRANCH   8   9
ENDBRANCH   5   8
ENDBRANCH   1   2
BRANCH   1  16
ATOM     16  N   UNL     1      47.379   6.398  12.206  0.00  0.00    +0.000 N 
ATOM     17  C   UNL     1      46.128   6.603  11.692  0.00  0.00    +0.000 C 
ATOM     18  O   UNL     1      45.497   7.642  11.861  0.00  0.00    +0.000 OA
ATOM     19  H   UNL     1      47.766   5.465  12.166  0.00  0.00    +0.000 HD
BRANCH  17  20
ATOM     20  C   UNL     1      45.596   5.504  10.869  0.00  0.00    +0.000 A 
ATOM     21  C   UNL     1      45.753   5.529   9.490  0.00  0.00    +0.000 A 
ATOM     22  S   UNL     1      45.098   4.160   8.707  0.00  0.00    +0.000 S 
ATOM     23  C   UNL     1      44.526   3.520  10.174  0.00  0.00    +0.000 A 
ATOM     24  N   UNL     1      43.822   2.355  10.205  0.00  0.00    +0.000 NA
ATOM     25  C   UNL     1      43.409   2.012  11.380  0.00  0.00    +0.000 A 
ATOM     26  N   UNL     1      43.646   2.721  12.527  0.00  0.00    +0.000 N 
ATOM     27  C   UNL     1      44.433   3.844  12.555  0.00  0.00    +0.000 A 
ATOM     28  O   UNL     1      44.761   4.351  13.621  0.00  0.00    +0.000 OA
ATOM     29  C   UNL     1      44.867   4.314  11.253  0.00  0.00    +0.000 A 
ATOM     30  H   UNL     1      43.327   2.376  13.421  0.00  0.00    +0.000 HD
ENDBRANCH  17  20
ENDBRANCH   1  16
BRANCH   1  31
ATOM     31  C   UNL     1      49.412   7.759  12.545  0.00  0.00    +0.000 C 
BRANCH  31  32
ATOM     32  O   UNL     1      49.434   9.171  12.320  0.00  0.00    +0.000 OA
BRANCH  32  33
ATOM     33  C   UNL     1      48.301   9.805  12.926  0.00  0.00    +0.000 C 
BRANCH  33  34
ATOM     34  C   UNL     1      47.515  10.562  11.854  0.00  0.00    +0.000 C 
BRANCH  34  35
ATOM     35  N   UNL     1      46.090  10.630  12.193  0.00  0.00    +0.000 NA
ATOM     36  H   UNL     1      45.574   9.992  11.590  0.00  0.00    +0.000 HD
ATOM     37  H   UNL     1      45.767  11.571  11.951  0.00  0.00    +0.000 HD
ENDBRANCH  34  35
ENDBRANCH  33  34
ENDBRANCH  32  33
ENDBRANCH  31  32
ENDBRANCH   1  31
TORSDOF 11
ENDMDL
