MODEL 1
REMARK VINA RESULT:    -8.484      0.000      0.000
REMARK INTER + INTRA:         -13.518
REMARK INTER:                 -12.700
REMARK INTRA:                  -0.818
REMARK UNBOUND:                -0.818
REMARK  Name = 
REMARK  9 active torsions:
REMARK  status: ('A' for Active; 'I' for Inactive)
REMARK    1  A    between atoms: N_1  and  C_2
REMARK    2  A    between atoms: C_2  and  N_3
REMARK    3  A    between atoms: C_2  and  C_19
REMARK    4  A    between atoms: N_3  and  C_4
REMARK    5  A    between atoms: C_4  and  C_5
REMARK    6  A    between atoms: C_8  and  C_9
REMARK    7  A    between atoms: C_9  and  N_10
REMARK    8  A    between atoms: N_10  and  C_11
REMARK    9  A    between atoms: C_11  and  C_12
REMARK                            x       y       z     vdW  Elec       q    Type
REMARK                         _______ _______ _______ _____ _____    ______ ____
ROOT
ATOM      1  N   UNL     1      46.905   4.711  15.999  0.00  0.00    +0.000 NA
ATOM      2  H   UNL     1      47.038   5.501  16.637  0.00  0.00    +0.000 HD
ENDROOT
BRANCH   1   3
ATOM      3  C   UNL     1      47.591   3.594  16.619  0.00  0.00    +0.000 C 
BRANCH   3   4
ATOM      4  C   UNL     1      48.784   4.112  17.405  0.00  0.00    +0.000 A 
ATOM      5  C   UNL     1      48.821   5.298  18.136  0.00  0.00    +0.000 A 
ATOM      6  S   UNL     1      50.287   5.564  18.959  0.00  0.00    +0.000 S 
ATOM      7  C   UNL     1      50.938   4.106  18.382  0.00  0.00    +0.000 A 
ATOM      8  N   UNL     1      52.190   3.709  18.732  0.00  0.00    +0.000 NA
ATOM      9  C   UNL     1      52.548   2.577  18.222  0.00  0.00    +0.000 A 
ATOM     10  N   UNL     1      51.773   1.811  17.387  0.00  0.00    +0.000 N 
ATOM     11  C   UNL     1      50.511   2.190  16.981  0.00  0.00    +0.000 A 
ATOM     12  O   UNL     1      49.853   1.524  16.184  0.00  0.00    +0.000 OA
ATOM     13  C   UNL     1      50.053   3.436  17.557  0.00  0.00    +0.000 A 
ATOM     14  H   UNL     1      52.129   0.947  17.008  0.00  0.00    +0.000 HD
ENDBRANCH   3   4
BRANCH   3  15
ATOM     15  N   UNL     1      46.664   3.004  17.554  0.00  0.00    +0.000 NA
ATOM     16  H   UNL     1      47.126   2.849  18.442  0.00  0.00    +0.000 HD
ATOM     17  H   UNL     1      46.457   2.079  17.178  0.00  0.00    +0.000 HD
ENDBRANCH   3  15
ENDBRANCH   1   3
BRANCH   1  18
ATOM     18  C   UNL     1      47.480   5.111  14.711  0.00  0.00    +0.000 C 
BRANCH  18  19
ATOM     19  C   UNL     1      46.554   4.854  13.551  0.00  0.00    +0.000 A 
ATOM     20  C   UNL     1      46.193   3.563  13.164  0.00  0.00    +0.000 A 
ATOM     21  C   UNL     1      45.262   3.382  12.145  0.00  0.00    +0.000 A 
ATOM     22  C   UNL     1      44.701   4.501  11.534  0.00  0.00    +0.000 A 
ATOM     23  N   UNL     1      45.048   5.768  11.877  0.00  0.00    +0.000 NA
ATOM     24  C   UNL     1      45.961   5.912  12.864  0.00  0.00    +0.000 A 
BRANCH  22  25
ATOM     25  C   UNL     1      43.666   4.337  10.437  0.00  0.00    +0.000 C 
BRANCH  25  26
ATOM     26  N   UNL     1      44.082   3.458   9.336  0.00  0.00    +0.000 NA
ATOM     27  H   UNL     1      43.251   3.302   8.759  0.00  0.00    +0.000 HD
BRANCH  26  28
ATOM     28  C   UNL     1      45.084   4.092   8.485  0.00  0.00    +0.000 C 
BRANCH  28  29
ATOM     29  C   UNL     1      45.932   3.033   7.873  0.00  0.00    +0.000 A 
ATOM     30  C   UNL     1      46.751   3.056   6.761  0.00  0.00    +0.000 A 
ATOM     31  C   UNL     1      47.329   1.771   6.629  0.00  0.00    +0.000 A 
ATOM     32  C   UNL     1      46.845   0.995   7.658  0.00  0.00    +0.000 A 
ATOM     33  N   UNL     1      45.992   1.766   8.402  0.00  0.00    +0.000 N 
ATOM     34  H   UNL     1      45.450   1.457   9.199  0.00  0.00    +0.000 HD
ENDBRANCH  28  29
ENDBRANCH  26  28
ENDBRANCH  25  26
ENDBRANCH  22  25
ENDBRANCH  18  19
ENDBRANCH   1  18
TORSDOF 9
ENDMDL
MODEL 2
REMARK VINA RESULT:    -7.842      1.830      2.489
REMARK INTER + INTRA:         -12.557
REMARK INTER:                 -11.701
REMARK INTRA:                  -0.855
REMARK UNBOUND:                -0.818
REMARK  Name = 
REMARK  9 active torsions:
REMARK  status: ('A' for Active; 'I' for Inactive)
REMARK    1  A    between atoms: N_1  and  C_2
REMARK    2  A    between atoms: C_2  and  N_3
REMARK    3  A    between atoms: C_2  and  C_19
REMARK    4  A    between atoms: N_3  and  C_4
REMARK    5  A    between atoms: C_4  and  C_5
REMARK    6  A    between atoms: C_8  and  C_9
REMARK    7  A    between atoms: C_9  and  N_10
REMARK    8  A    between atoms: N_10  and  C_11
REMARK    9  A    between atoms: C_11  and  C_12
REMARK                            x       y       z     vdW  Elec       q    Type
REMARK                         _______ _______ _______ _____ _____    ______ ____
ROOT
ATOM      1  N   UNL     1      46.823   4.304  16.089  0.00  0.00    +0.000 NA
ATOM      2  H   UNL     1      46.790   5.091  16.743  0.00  0.00    +0.000 HD
ENDROOT
BRANCH   1   3
ATOM      3  C   UNL     1      47.551   3.257  16.778  0.00  0.00    +0.000 C 
BRANCH   3   4
ATOM      4  C   UNL     1      48.743   3.866  17.496  0.00  0.00    +0.000 A 
ATOM      5  C   UNL     1      50.073   3.474  17.342  0.00  0.00    +0.000 A 
ATOM      6  S   UNL     1      51.182   4.400  18.240  0.00  0.00    +0.000 S 
ATOM      7  C   UNL     1      49.941   5.371  18.874  0.00  0.00    +0.000 A 
ATOM      8  N   UNL     1      50.216   6.395  19.724  0.00  0.00    +0.000 NA
ATOM      9  C   UNL     1      49.174   7.049  20.118  0.00  0.00    +0.000 A 
ATOM     10  N   UNL     1      47.883   6.768  19.748  0.00  0.00    +0.000 N 
ATOM     11  C   UNL     1      47.556   5.720  18.914  0.00  0.00    +0.000 A 
ATOM     12  O   UNL     1      46.390   5.441  18.642  0.00  0.00    +0.000 OA
ATOM     13  C   UNL     1      48.696   4.979  18.418  0.00  0.00    +0.000 A 
ATOM     14  H   UNL     1      47.115   7.309  20.116  0.00  0.00    +0.000 HD
ENDBRANCH   3   4
BRANCH   3  15
ATOM     15  N   UNL     1      46.659   2.717  17.776  0.00  0.00    +0.000 NA
ATOM     16  H   UNL     1      47.034   1.849  18.137  0.00  0.00    +0.000 HD
ATOM     17  H   UNL     1      45.810   2.469  17.269  0.00  0.00    +0.000 HD
ENDBRANCH   3  15
ENDBRANCH   1   3
BRANCH   1  18
ATOM     18  C   UNL     1      47.497   4.790  14.881  0.00  0.00    +0.000 C 
BRANCH  18  19
ATOM     19  C   UNL     1      46.637   4.691  13.649  0.00  0.00    +0.000 A 
ATOM     20  C   UNL     1      46.073   3.484  13.236  0.00  0.00    +0.000 A 
ATOM     21  C   UNL     1      45.209   3.463  12.143  0.00  0.00    +0.000 A 
ATOM     22  C   UNL     1      44.921   4.656  11.486  0.00  0.00    +0.000 A 
ATOM     23  N   UNL     1      45.472   5.841  11.853  0.00  0.00    +0.000 NA
ATOM     24  C   UNL     1      46.312   5.829  12.913  0.00  0.00    +0.000 A 
BRANCH  22  25
ATOM     25  C   UNL     1      43.967   4.670  10.307  0.00  0.00    +0.000 C 
BRANCH  25  26
ATOM     26  N   UNL     1      44.600   4.396   9.009  0.00  0.00    +0.000 NA
ATOM     27  H   UNL     1      45.578   4.687   9.096  0.00  0.00    +0.000 HD
BRANCH  26  28
ATOM     28  C   UNL     1      44.602   2.970   8.697  0.00  0.00    +0.000 C 
BRANCH  28  29
ATOM     29  C   UNL     1      45.828   2.653   7.915  0.00  0.00    +0.000 A 
ATOM     30  C   UNL     1      46.595   3.434   7.073  0.00  0.00    +0.000 A 
ATOM     31  C   UNL     1      47.655   2.630   6.591  0.00  0.00    +0.000 A 
ATOM     32  C   UNL     1      47.507   1.379   7.145  0.00  0.00    +0.000 A 
ATOM     33  N   UNL     1      46.391   1.399   7.939  0.00  0.00    +0.000 N 
ATOM     34  H   UNL     1      46.004   0.612   8.443  0.00  0.00    +0.000 HD
ENDBRANCH  28  29
ENDBRANCH  26  28
ENDBRANCH  25  26
ENDBRANCH  22  25
ENDBRANCH  18  19
ENDBRANCH   1  18
TORSDOF 9
ENDMDL
MODEL 3
REMARK VINA RESULT:    -7.495      3.052      8.956
REMARK INTER + INTRA:         -12.037
REMARK INTER:                 -11.220
REMARK INTRA:                  -0.817
REMARK UNBOUND:                -0.818
REMARK  Name = 
REMARK  9 active torsions:
REMARK  status: ('A' for Active; 'I' for Inactive)
REMARK    1  A    between atoms: N_1  and  C_2
REMARK    2  A    between atoms: C_2  and  N_3
REMARK    3  A    between atoms: C_2  and  C_19
REMARK    4  A    between atoms: N_3  and  C_4
REMARK    5  A    between atoms: C_4  and  C_5
REMARK    6  A    between atoms: C_8  and  C_9
REMARK    7  A    between atoms: C_9  and  N_10
REMARK    8  A    between atoms: N_10  and  C_11
REMARK    9  A    between atoms: C_11  and  C_12
REMARK                            x       y       z     vdW  Elec       q    Type
REMARK                         _______ _______ _______ _____ _____    ______ ____
ROOT
ATOM      1  N   UNL     1      45.864   6.823  12.703  0.00  0.00    +0.000 NA
ATOM      2  H   UNL     1      45.278   6.376  13.414  0.00  0.00    +0.000 HD
ENDROOT
BRANCH   1   3
ATOM      3  C   UNL     1      45.163   6.634  11.448  0.00  0.00    +0.000 C 
BRANCH   3   4
ATOM      4  C   UNL     1      44.652   5.205  11.371  0.00  0.00    +0.000 A 
ATOM      5  C   UNL     1      43.908   4.554  12.354  0.00  0.00    +0.000 A 
ATOM      6  S   UNL     1      43.432   2.975  11.937  0.00  0.00    +0.000 S 
ATOM      7  C   UNL     1      44.191   3.088  10.422  0.00  0.00    +0.000 A 
ATOM      8  N   UNL     1      44.148   2.058   9.536  0.00  0.00    +0.000 NA
ATOM      9  C   UNL     1      44.763   2.290   8.425  0.00  0.00    +0.000 A 
ATOM     10  N   UNL     1      45.425   3.453   8.121  0.00  0.00    +0.000 N 
ATOM     11  C   UNL     1      45.521   4.511   9.000  0.00  0.00    +0.000 A 
ATOM     12  O   UNL     1      46.170   5.522   8.739  0.00  0.00    +0.000 OA
ATOM     13  C   UNL     1      44.815   4.309  10.247  0.00  0.00    +0.000 A 
ATOM     14  H   UNL     1      45.904   3.555   7.239  0.00  0.00    +0.000 HD
ENDBRANCH   3   4
BRANCH   3  15
ATOM     15  N   UNL     1      44.020   7.515  11.474  0.00  0.00    +0.000 NA
ATOM     16  H   UNL     1      43.902   7.949  10.567  0.00  0.00    +0.000 HD
ATOM     17  H   UNL     1      44.276   8.265  12.116  0.00  0.00    +0.000 HD
ENDBRANCH   3  15
ENDBRANCH   1   3
BRANCH   1  18
ATOM     18  C   UNL     1      47.168   6.153  12.753  0.00  0.00    +0.000 C 
BRANCH  18  19
ATOM     19  C   UNL     1      47.456   5.531  14.094  0.00  0.00    +0.000 A 
ATOM     20  C   UNL     1      48.218   6.182  15.064  0.00  0.00    +0.000 A 
ATOM     21  C   UNL     1      48.378   5.604  16.320  0.00  0.00    +0.000 A 
ATOM     22  C   UNL     1      47.764   4.382  16.586  0.00  0.00    +0.000 A 
ATOM     23  N   UNL     1      47.034   3.717  15.655  0.00  0.00    +0.000 NA
ATOM     24  C   UNL     1      46.903   4.299  14.441  0.00  0.00    +0.000 A 
BRANCH  22  25
ATOM     25  C   UNL     1      47.900   3.738  17.953  0.00  0.00    +0.000 C 
BRANCH  25  26
ATOM     26  N   UNL     1      49.249   3.246  18.261  0.00  0.00    +0.000 NA
ATOM     27  H   UNL     1      49.160   2.655  19.092  0.00  0.00    +0.000 HD
BRANCH  26  28
ATOM     28  C   UNL     1      49.777   2.405  17.191  0.00  0.00    +0.000 C 
BRANCH  28  29
ATOM     29  C   UNL     1      51.175   2.021  17.529  0.00  0.00    +0.000 A 
ATOM     30  C   UNL     1      52.299   2.792  17.751  0.00  0.00    +0.000 A 
ATOM     31  C   UNL     1      53.370   1.913  18.040  0.00  0.00    +0.000 A 
ATOM     32  C   UNL     1      52.875   0.630  17.982  0.00  0.00    +0.000 A 
ATOM     33  N   UNL     1      51.546   0.704  17.662  0.00  0.00    +0.000 N 
ATOM     34  H   UNL     1      50.925  -0.080  17.506  0.00  0.00    +0.000 HD
ENDBRANCH  28  29
ENDBRANCH  26  28
ENDBRANCH  25  26
ENDBRANCH  22  25
ENDBRANCH  18  19
ENDBRANCH   1  18
TORSDOF 9
ENDMDL
MODEL 4
REMARK VINA RESULT:    -7.400      2.518      3.090
REMARK INTER + INTRA:         -11.895
REMARK INTER:                 -10.839
REMARK INTRA:                  -1.056
REMARK UNBOUND:                -0.818
REMARK  Name = 
REMARK  9 active torsions:
REMARK  status: ('A' for Active; 'I' for Inactive)
REMARK    1  A    between atoms: N_1  and  C_2
REMARK    2  A    between atoms: C_2  and  N_3
REMARK    3  A    between atoms: C_2  and  C_19
REMARK    4  A    between atoms: N_3  and  C_4
REMARK    5  A    between atoms: C_4  and  C_5
REMARK    6  A    between atoms: C_8  and  C_9
REMARK    7  A    between atoms: C_9  and  N_10
REMARK    8  A    between atoms: N_10  and  C_11
REMARK    9  A    between atoms: C_11  and  C_12
REMARK                            x       y       z     vdW  Elec       q    Type
REMARK                         _______ _______ _______ _____ _____    ______ ____
ROOT
ATOM      1  N   UNL     1      48.485   6.051  14.219  0.00  0.00    +0.000 NA
ATOM      2  H   UNL     1      47.958   5.194  14.407  0.00  0.00    +0.000 HD
ENDROOT
BRANCH   1   3
ATOM      3  C   UNL     1      48.901   6.543  15.518  0.00  0.00    +0.000 C 
BRANCH   3   4
ATOM      4  C   UNL     1      48.555   5.511  16.578  0.00  0.00    +0.000 A 
ATOM      5  C   UNL     1      47.964   4.270  16.341  0.00  0.00    +0.000 A 
ATOM      6  S   UNL     1      47.766   3.315  17.736  0.00  0.00    +0.000 S 
ATOM      7  C   UNL     1      48.463   4.510  18.720  0.00  0.00    +0.000 A 
ATOM      8  N   UNL     1      48.616   4.319  20.057  0.00  0.00    +0.000 NA
ATOM      9  C   UNL     1      49.166   5.311  20.674  0.00  0.00    +0.000 A 
ATOM     10  N   UNL     1      49.570   6.480  20.080  0.00  0.00    +0.000 N 
ATOM     11  C   UNL     1      49.406   6.729  18.733  0.00  0.00    +0.000 A 
ATOM     12  O   UNL     1      49.716   7.806  18.226  0.00  0.00    +0.000 OA
ATOM     13  C   UNL     1      48.825   5.630  17.994  0.00  0.00    +0.000 A 
ATOM     14  H   UNL     1      49.973   7.222  20.631  0.00  0.00    +0.000 HD
ENDBRANCH   3   4
BRANCH   3  15
ATOM     15  N   UNL     1      50.337   6.672  15.474  0.00  0.00    +0.000 NA
ATOM     16  H   UNL     1      50.664   6.534  14.526  0.00  0.00    +0.000 HD
ATOM     17  H   UNL     1      50.692   5.882  16.013  0.00  0.00    +0.000 HD
ENDBRANCH   3  15
ENDBRANCH   1   3
BRANCH   1  18
ATOM     18  C   UNL     1      47.574   6.957  13.512  0.00  0.00    +0.000 C 
BRANCH  18  19
ATOM     19  C   UNL     1      46.453   6.234  12.813  0.00  0.00    +0.000 A 
ATOM     20  C   UNL     1      46.032   6.585  11.531  0.00  0.00    +0.000 A 
ATOM     21  C   UNL     1      45.055   5.825  10.892  0.00  0.00    +0.000 A 
ATOM     22  C   UNL     1      44.521   4.720  11.549  0.00  0.00    +0.000 A 
ATOM     23  N   UNL     1      44.897   4.367  12.805  0.00  0.00    +0.000 NA
ATOM     24  C   UNL     1      45.842   5.128  13.403  0.00  0.00    +0.000 A 
BRANCH  22  25
ATOM     25  C   UNL     1      43.472   3.859  10.871  0.00  0.00    +0.000 C 
BRANCH  25  26
ATOM     26  N   UNL     1      43.831   3.418   9.516  0.00  0.00    +0.000 NA
ATOM     27  H   UNL     1      44.369   4.181   9.096  0.00  0.00    +0.000 HD
BRANCH  26  28
ATOM     28  C   UNL     1      44.697   2.244   9.540  0.00  0.00    +0.000 C 
BRANCH  28  29
ATOM     29  C   UNL     1      45.690   2.359   8.438  0.00  0.00    +0.000 A 
ATOM     30  C   UNL     1      46.039   3.430   7.639  0.00  0.00    +0.000 A 
ATOM     31  C   UNL     1      47.047   2.990   6.749  0.00  0.00    +0.000 A 
ATOM     32  C   UNL     1      47.284   1.662   7.022  0.00  0.00    +0.000 A 
ATOM     33  N   UNL     1      46.451   1.285   8.041  0.00  0.00    +0.000 N 
ATOM     34  H   UNL     1      46.367   0.355   8.429  0.00  0.00    +0.000 HD
ENDBRANCH  28  29
ENDBRANCH  26  28
ENDBRANCH  25  26
ENDBRANCH  22  25
ENDBRANCH  18  19
ENDBRANCH   1  18
TORSDOF 9
ENDMDL
MODEL 5
REMARK VINA RESULT:    -7.371      2.832      4.005
REMARK INTER + INTRA:         -11.852
REMARK INTER:                 -10.488
REMARK INTRA:                  -1.365
REMARK UNBOUND:                -0.818
REMARK  Name = 
REMARK  9 active torsions:
REMARK  status: ('A' for Active; 'I' for Inactive)
REMARK    1  A    between atoms: N_1  and  C_2
REMARK    2  A    between atoms: C_2  and  N_3
REMARK    3  A    between atoms: C_2  and  C_19
REMARK    4  A    between atoms: N_3  and  C_4
REMARK    5  A    between atoms: C_4  and  C_5
REMARK    6  A    between atoms: C_8  and  C_9
REMARK    7  A    between atoms: C_9  and  N_10
REMARK    8  A    between atoms: N_10  and  C_11
REMARK    9  A    between atoms: C_11  and  C_12
REMARK                            x       y       z     vdW  Elec       q    Type
REMARK                         _______ _______ _______ _____ _____    ______ ____
ROOT
ATOM      1  N   UNL     1      49.352   6.618  14.031  0.00  0.00    +0.000 NA
ATOM      2  H   UNL     1      48.756   6.245  14.776  0.00  0.00    +0.000 HD
ENDROOT
BRANCH   1   3
ATOM      3  C   UNL     1      50.161   7.645  14.659  0.00  0.00    +0.000 C 
BRANCH   3   4
ATOM      4  C   UNL     1      49.397   8.234  15.833  0.00  0.00    +0.000 A 
ATOM      5  C   UNL     1      49.104   9.585  16.016  0.00  0.00    +0.000 A 
ATOM      6  S   UNL     1      48.176   9.916  17.403  0.00  0.00    +0.000 S 
ATOM      7  C   UNL     1      48.117   8.271  17.822  0.00  0.00    +0.000 A 
ATOM      8  N   UNL     1      47.444   7.851  18.926  0.00  0.00    +0.000 NA
ATOM      9  C   UNL     1      47.481   6.574  19.115  0.00  0.00    +0.000 A 
ATOM     10  N   UNL     1      48.136   5.679  18.306  0.00  0.00    +0.000 N 
ATOM     11  C   UNL     1      48.855   6.064  17.194  0.00  0.00    +0.000 A 
ATOM     12  O   UNL     1      49.489   5.258  16.515  0.00  0.00    +0.000 OA
ATOM     13  C   UNL     1      48.813   7.485  16.924  0.00  0.00    +0.000 A 
ATOM     14  H   UNL     1      48.140   4.696  18.529  0.00  0.00    +0.000 HD
ENDBRANCH   3   4
BRANCH   3  15
ATOM     15  N   UNL     1      51.336   6.988  15.178  0.00  0.00    +0.000 NA
ATOM     16  H   UNL     1      52.166   7.402  14.772  0.00  0.00    +0.000 HD
ATOM     17  H   UNL     1      51.290   6.035  14.817  0.00  0.00    +0.000 HD
ENDBRANCH   3  15
ENDBRANCH   1   3
BRANCH   1  18
ATOM     18  C   UNL     1      48.453   7.133  12.994  0.00  0.00    +0.000 C 
BRANCH  18  19
ATOM     19  C   UNL     1      47.079   6.518  13.050  0.00  0.00    +0.000 A 
ATOM     20  C   UNL     1      45.995   7.064  12.363  0.00  0.00    +0.000 A 
ATOM     21  C   UNL     1      44.768   6.405  12.372  0.00  0.00    +0.000 A 
ATOM     22  C   UNL     1      44.651   5.204  13.066  0.00  0.00    +0.000 A 
ATOM     23  N   UNL     1      45.683   4.660  13.760  0.00  0.00    +0.000 NA
ATOM     24  C   UNL     1      46.860   5.326  13.739  0.00  0.00    +0.000 A 
BRANCH  22  25
ATOM     25  C   UNL     1      43.334   4.450  13.076  0.00  0.00    +0.000 C 
BRANCH  25  26
ATOM     26  N   UNL     1      42.850   4.055  11.746  0.00  0.00    +0.000 NA
ATOM     27  H   UNL     1      43.172   4.776  11.094  0.00  0.00    +0.000 HD
BRANCH  26  28
ATOM     28  C   UNL     1      43.434   2.790  11.310  0.00  0.00    +0.000 C 
BRANCH  28  29
ATOM     29  C   UNL     1      44.232   3.031  10.078  0.00  0.00    +0.000 A 
ATOM     30  C   UNL     1      44.396   4.166   9.309  0.00  0.00    +0.000 A 
ATOM     31  C   UNL     1      45.271   3.841   8.246  0.00  0.00    +0.000 A 
ATOM     32  C   UNL     1      45.614   2.515   8.387  0.00  0.00    +0.000 A 
ATOM     33  N   UNL     1      44.973   2.030   9.495  0.00  0.00    +0.000 N 
ATOM     34  H   UNL     1      44.998   1.074   9.828  0.00  0.00    +0.000 HD
ENDBRANCH  28  29
ENDBRANCH  26  28
ENDBRANCH  25  26
ENDBRANCH  22  25
ENDBRANCH  18  19
ENDBRANCH   1  18
TORSDOF 9
ENDMDL
MODEL 6
REMARK VINA RESULT:    -7.302      2.001      2.670
REMARK INTER + INTRA:         -11.749
REMARK INTER:                 -10.896
REMARK INTRA:                  -0.853
REMARK UNBOUND:                -0.818
REMARK  Name = 
REMARK  9 active torsions:
REMARK  status: ('A' for Active; 'I' for Inactive)
REMARK    1  A    between atoms: N_1  and  C_2
REMARK    2  A    between atoms: C_2  and  N_3
REMARK    3  A    between atoms: C_2  and  C_19
REMARK    4  A    between atoms: N_3  and  C_4
REMARK    5  A    between atoms: C_4  and  C_5
REMARK    6  A    between atoms: C_8  and  C_9
REMARK    7  A    between atoms: C_9  and  N_10
REMARK    8  A    between atoms: N_10  and  C_11
REMARK    9  A    between atoms: C_11  and  C_12
REMARK                            x       y       z     vdW  Elec       q    Type
REMARK                         _______ _______ _______ _____ _____    ______ ____
ROOT
ATOM      1  N   UNL     1      48.318   6.242  14.905  0.00  0.00    +0.000 NA
ATOM      2  H   UNL     1      47.406   6.320  15.365  0.00  0.00    +0.000 HD
ENDROOT
BRANCH   1   3
ATOM      3  C   UNL     1      49.186   7.168  15.606  0.00  0.00    +0.000 C 
BRANCH   3   4
ATOM      4  C   UNL     1      48.815   7.184  17.079  0.00  0.00    +0.000 A 
ATOM      5  C   UNL     1      48.366   8.294  17.793  0.00  0.00    +0.000 A 
ATOM      6  S   UNL     1      47.972   7.968  19.416  0.00  0.00    +0.000 S 
ATOM      7  C   UNL     1      48.378   6.328  19.241  0.00  0.00    +0.000 A 
ATOM      8  N   UNL     1      48.252   5.459  20.279  0.00  0.00    +0.000 NA
ATOM      9  C   UNL     1      48.592   4.246  19.997  0.00  0.00    +0.000 A 
ATOM     10  N   UNL     1      49.055   3.823  18.776  0.00  0.00    +0.000 N 
ATOM     11  C   UNL     1      49.228   4.675  17.705  0.00  0.00    +0.000 A 
ATOM     12  O   UNL     1      49.702   4.294  16.637  0.00  0.00    +0.000 OA
ATOM     13  C   UNL     1      48.826   6.040  17.965  0.00  0.00    +0.000 A 
ATOM     14  H   UNL     1      49.323   2.861  18.635  0.00  0.00    +0.000 HD
ENDBRANCH   3   4
BRANCH   3  15
ATOM     15  N   UNL     1      50.528   6.649  15.490  0.00  0.00    +0.000 NA
ATOM     16  H   UNL     1      51.000   7.095  14.713  0.00  0.00    +0.000 HD
ATOM     17  H   UNL     1      50.413   5.670  15.227  0.00  0.00    +0.000 HD
ENDBRANCH   3  15
ENDBRANCH   1   3
BRANCH   1  18
ATOM     18  C   UNL     1      48.108   6.587  13.496  0.00  0.00    +0.000 C 
BRANCH  18  19
ATOM     19  C   UNL     1      46.989   5.803  12.861  0.00  0.00    +0.000 A 
ATOM     20  C   UNL     1      46.383   4.724  13.504  0.00  0.00    +0.000 A 
ATOM     21  C   UNL     1      45.292   4.092  12.914  0.00  0.00    +0.000 A 
ATOM     22  C   UNL     1      44.822   4.556  11.689  0.00  0.00    +0.000 A 
ATOM     23  N   UNL     1      45.404   5.590  11.030  0.00  0.00    +0.000 NA
ATOM     24  C   UNL     1      46.467   6.180  11.624  0.00  0.00    +0.000 A 
BRANCH  22  25
ATOM     25  C   UNL     1      43.621   3.903  11.032  0.00  0.00    +0.000 C 
BRANCH  25  26
ATOM     26  N   UNL     1      43.834   3.506   9.633  0.00  0.00    +0.000 NA
ATOM     27  H   UNL     1      44.394   4.247   9.203  0.00  0.00    +0.000 HD
BRANCH  26  28
ATOM     28  C   UNL     1      44.607   2.271   9.532  0.00  0.00    +0.000 C 
BRANCH  28  29
ATOM     29  C   UNL     1      45.604   2.419   8.439  0.00  0.00    +0.000 A 
ATOM     30  C   UNL     1      45.923   3.499   7.639  0.00  0.00    +0.000 A 
ATOM     31  C   UNL     1      46.953   3.092   6.759  0.00  0.00    +0.000 A 
ATOM     32  C   UNL     1      47.234   1.774   7.038  0.00  0.00    +0.000 A 
ATOM     33  N   UNL     1      46.405   1.371   8.051  0.00  0.00    +0.000 N 
ATOM     34  H   UNL     1      46.351   0.439   8.442  0.00  0.00    +0.000 HD
ENDBRANCH  28  29
ENDBRANCH  26  28
ENDBRANCH  25  26
ENDBRANCH  22  25
ENDBRANCH  18  19
ENDBRANCH   1  18
TORSDOF 9
ENDMDL
MODEL 7
REMARK VINA RESULT:    -6.982      3.357      8.842
REMARK INTER + INTRA:         -11.270
REMARK INTER:                  -9.826
REMARK INTRA:                  -1.444
REMARK UNBOUND:                -0.818
REMARK  Name = 
REMARK  9 active torsions:
REMARK  status: ('A' for Active; 'I' for Inactive)
REMARK    1  A    between atoms: N_1  and  C_2
REMARK    2  A    between atoms: C_2  and  N_3
REMARK    3  A    between atoms: C_2  and  C_19
REMARK    4  A    between atoms: N_3  and  C_4
REMARK    5  A    between atoms: C_4  and  C_5
REMARK    6  A    between atoms: C_8  and  C_9
REMARK    7  A    between atoms: C_9  and  N_10
REMARK    8  A    between atoms: N_10  and  C_11
REMARK    9  A    between atoms: C_11  and  C_12
REMARK                            x       y       z     vdW  Elec       q    Type
REMARK                         _______ _______ _______ _____ _____    ______ ____
ROOT
ATOM      1  N   UNL     1      46.611   6.871  11.482  0.00  0.00    +0.000 NA
ATOM      2  H   UNL     1      46.986   6.927  10.531  0.00  0.00    +0.000 HD
ENDROOT
BRANCH   1   3
ATOM      3  C   UNL     1      45.169   6.875  11.331  0.00  0.00    +0.000 C 
BRANCH   3   4
ATOM      4  C   UNL     1      44.654   5.448  11.414  0.00  0.00    +0.000 A 
ATOM      5  C   UNL     1      43.943   4.902  12.483  0.00  0.00    +0.000 A 
ATOM      6  S   UNL     1      43.450   3.291  12.241  0.00  0.00    +0.000 S 
ATOM      7  C   UNL     1      44.158   3.249  10.698  0.00  0.00    +0.000 A 
ATOM      8  N   UNL     1      44.083   2.135   9.922  0.00  0.00    +0.000 NA
ATOM      9  C   UNL     1      44.661   2.252   8.772  0.00  0.00    +0.000 A 
ATOM     10  N   UNL     1      45.313   3.376   8.332  0.00  0.00    +0.000 N 
ATOM     11  C   UNL     1      45.440   4.516   9.097  0.00  0.00    +0.000 A 
ATOM     12  O   UNL     1      46.081   5.493   8.714  0.00  0.00    +0.000 OA
ATOM     13  C   UNL     1      44.777   4.443  10.381  0.00  0.00    +0.000 A 
ATOM     14  H   UNL     1      45.762   3.387   7.428  0.00  0.00    +0.000 HD
ENDBRANCH   3   4
BRANCH   3  15
ATOM     15  N   UNL     1      44.636   7.607  12.454  0.00  0.00    +0.000 NA
ATOM     16  H   UNL     1      43.907   8.235  12.138  0.00  0.00    +0.000 HD
ATOM     17  H   UNL     1      45.401   8.200  12.774  0.00  0.00    +0.000 HD
ENDBRANCH   3  15
ENDBRANCH   1   3
BRANCH   1  18
ATOM     18  C   UNL     1      47.129   8.036  12.207  0.00  0.00    +0.000 C 
BRANCH  18  19
ATOM     19  C   UNL     1      48.170   7.673  13.232  0.00  0.00    +0.000 A 
ATOM     20  C   UNL     1      49.297   8.465  13.456  0.00  0.00    +0.000 A 
ATOM     21  C   UNL     1      50.181   8.135  14.479  0.00  0.00    +0.000 A 
ATOM     22  C   UNL     1      49.918   7.018  15.268  0.00  0.00    +0.000 A 
ATOM     23  N   UNL     1      48.841   6.218  15.060  0.00  0.00    +0.000 NA
ATOM     24  C   UNL     1      48.004   6.559  14.054  0.00  0.00    +0.000 A 
BRANCH  22  25
ATOM     25  C   UNL     1      50.850   6.646  16.405  0.00  0.00    +0.000 C 
BRANCH  25  26
ATOM     26  N   UNL     1      50.206   6.586  17.724  0.00  0.00    +0.000 NA
ATOM     27  H   UNL     1      49.207   6.748  17.567  0.00  0.00    +0.000 HD
BRANCH  26  28
ATOM     28  C   UNL     1      50.337   5.265  18.332  0.00  0.00    +0.000 C 
BRANCH  28  29
ATOM     29  C   UNL     1      49.219   4.407  17.856  0.00  0.00    +0.000 A 
ATOM     30  C   UNL     1      49.202   3.096  17.422  0.00  0.00    +0.000 A 
ATOM     31  C   UNL     1      47.865   2.772  17.088  0.00  0.00    +0.000 A 
ATOM     32  C   UNL     1      47.101   3.893  17.321  0.00  0.00    +0.000 A 
ATOM     33  N   UNL     1      47.931   4.882  17.777  0.00  0.00    +0.000 N 
ATOM     34  H   UNL     1      47.662   5.834  17.993  0.00  0.00    +0.000 HD
ENDBRANCH  28  29
ENDBRANCH  26  28
ENDBRANCH  25  26
ENDBRANCH  22  25
ENDBRANCH  18  19
ENDBRANCH   1  18
TORSDOF 9
ENDMDL
MODEL 8
REMARK VINA RESULT:    -6.936      2.160      2.679
REMARK INTER + INTRA:         -11.201
REMARK INTER:                 -10.283
REMARK INTRA:                  -0.918
REMARK UNBOUND:                -0.818
REMARK  Name = 
REMARK  9 active torsions:
REMARK  status: ('A' for Active; 'I' for Inactive)
REMARK    1  A    between atoms: N_1  and  C_2
REMARK    2  A    between atoms: C_2  and  N_3
REMARK    3  A    between atoms: C_2  and  C_19
REMARK    4  A    between atoms: N_3  and  C_4
REMARK    5  A    between atoms: C_4  and  C_5
REMARK    6  A    between atoms: C_8  and  C_9
REMARK    7  A    between atoms: C_9  and  N_10
REMARK    8  A    between atoms: N_10  and  C_11
REMARK    9  A    between atoms: C_11  and  C_12
REMARK                            x       y       z     vdW  Elec       q    Type
REMARK                         _______ _______ _______ _____ _____    ______ ____
ROOT
ATOM      1  N   UNL     1      48.104   7.239  15.356  0.00  0.00    +0.000 NA
ATOM      2  H   UNL     1      47.733   8.057  15.848  0.00  0.00    +0.000 HD
ENDROOT
BRANCH   1   3
ATOM      3  C   UNL     1      49.499   7.155  15.740  0.00  0.00    +0.000 C 
BRANCH   3   4
ATOM      4  C   UNL     1      49.713   5.906  16.578  0.00  0.00    +0.000 A 
ATOM      5  C   UNL     1      48.716   5.019  16.984  0.00  0.00    +0.000 A 
ATOM      6  S   UNL     1      49.290   3.678  17.860  0.00  0.00    +0.000 S 
ATOM      7  C   UNL     1      50.896   4.215  17.736  0.00  0.00    +0.000 A 
ATOM      8  N   UNL     1      51.920   3.500  18.272  0.00  0.00    +0.000 NA
ATOM      9  C   UNL     1      53.085   4.028  18.094  0.00  0.00    +0.000 A 
ATOM     10  N   UNL     1      53.320   5.209  17.436  0.00  0.00    +0.000 N 
ATOM     11  C   UNL     1      52.310   5.983  16.903  0.00  0.00    +0.000 A 
ATOM     12  O   UNL     1      52.530   7.069  16.372  0.00  0.00    +0.000 OA
ATOM     13  C   UNL     1      50.988   5.412  17.049  0.00  0.00    +0.000 A 
ATOM     14  H   UNL     1      54.257   5.573  17.355  0.00  0.00    +0.000 HD
ENDBRANCH   3   4
BRANCH   3  15
ATOM     15  N   UNL     1      50.258   7.008  14.521  0.00  0.00    +0.000 NA
ATOM     16  H   UNL     1      50.430   7.919  14.114  0.00  0.00    +0.000 HD
ATOM     17  H   UNL     1      49.634   6.524  13.876  0.00  0.00    +0.000 HD
ENDBRANCH   3  15
ENDBRANCH   1   3
BRANCH   1  18
ATOM     18  C   UNL     1      47.903   7.484  13.924  0.00  0.00    +0.000 C 
BRANCH  18  19
ATOM     19  C   UNL     1      47.001   6.468  13.276  0.00  0.00    +0.000 A 
ATOM     20  C   UNL     1      46.416   6.685  12.029  0.00  0.00    +0.000 A 
ATOM     21  C   UNL     1      45.665   5.676  11.432  0.00  0.00    +0.000 A 
ATOM     22  C   UNL     1      45.519   4.460  12.094  0.00  0.00    +0.000 A 
ATOM     23  N   UNL     1      46.059   4.227  13.317  0.00  0.00    +0.000 NA
ATOM     24  C   UNL     1      46.776   5.229  13.876  0.00  0.00    +0.000 A 
BRANCH  22  25
ATOM     25  C   UNL     1      44.726   3.332  11.460  0.00  0.00    +0.000 C 
BRANCH  25  26
ATOM     26  N   UNL     1      44.497   3.488  10.016  0.00  0.00    +0.000 NA
ATOM     27  H   UNL     1      45.260   4.072   9.662  0.00  0.00    +0.000 HD
BRANCH  26  28
ATOM     28  C   UNL     1      44.573   2.211   9.314  0.00  0.00    +0.000 C 
BRANCH  28  29
ATOM     29  C   UNL     1      45.670   2.280   8.312  0.00  0.00    +0.000 A 
ATOM     30  C   UNL     1      46.073   3.303   7.476  0.00  0.00    +0.000 A 
ATOM     31  C   UNL     1      47.176   2.833   6.725  0.00  0.00    +0.000 A 
ATOM     32  C   UNL     1      47.415   1.535   7.115  0.00  0.00    +0.000 A 
ATOM     33  N   UNL     1      46.492   1.205   8.071  0.00  0.00    +0.000 N 
ATOM     34  H   UNL     1      46.391   0.301   8.515  0.00  0.00    +0.000 HD
ENDBRANCH  28  29
ENDBRANCH  26  28
ENDBRANCH  25  26
ENDBRANCH  22  25
ENDBRANCH  18  19
ENDBRANCH   1  18
TORSDOF 9
ENDMDL
MODEL 9
REMARK VINA RESULT:    -6.782      3.449      8.649
REMARK INTER + INTRA:         -10.970
REMARK INTER:                  -9.617
REMARK INTRA:                  -1.353
REMARK UNBOUND:                -0.818
REMARK  Name = 
REMARK  9 active torsions:
REMARK  status: ('A' for Active; 'I' for Inactive)
REMARK    1  A    between atoms: N_1  and  C_2
REMARK    2  A    between atoms: C_2  and  N_3
REMARK    3  A    between atoms: C_2  and  C_19
REMARK    4  A    between atoms: N_3  and  C_4
REMARK    5  A    between atoms: C_4  and  C_5
REMARK    6  A    between atoms: C_8  and  C_9
REMARK    7  A    between atoms: C_9  and  N_10
REMARK    8  A    between atoms: N_10  and  C_11
REMARK    9  A    between atoms: C_11  and  C_12
REMARK                            x       y       z     vdW  Elec       q    Type
REMARK                         _______ _______ _______ _____ _____    ______ ____
ROOT
ATOM      1  N   UNL     1      47.600   7.549  14.342  0.00  0.00    +0.000 NA
ATOM      2  H   UNL     1      47.100   7.589  15.235  0.00  0.00    +0.000 HD
ENDROOT
BRANCH   1   3
ATOM      3  C   UNL     1      47.405   6.200  13.849  0.00  0.00    +0.000 C 
BRANCH   3   4
ATOM      4  C   UNL     1      46.137   6.152  13.013  0.00  0.00    +0.000 A 
ATOM      5  C   UNL     1      45.465   7.257  12.491  0.00  0.00    +0.000 A 
ATOM      6  S   UNL     1      44.109   6.865  11.541  0.00  0.00    +0.000 S 
ATOM      7  C   UNL     1      44.356   5.202  11.778  0.00  0.00    +0.000 A 
ATOM      8  N   UNL     1      43.535   4.281  11.208  0.00  0.00    +0.000 NA
ATOM      9  C   UNL     1      43.849   3.056  11.471  0.00  0.00    +0.000 A 
ATOM     10  N   UNL     1      44.904   2.667  12.259  0.00  0.00    +0.000 N 
ATOM     11  C   UNL     1      45.743   3.567  12.882  0.00  0.00    +0.000 A 
ATOM     12  O   UNL     1      46.645   3.205  13.636  0.00  0.00    +0.000 OA
ATOM     13  C   UNL     1      45.450   4.952  12.587  0.00  0.00    +0.000 A 
ATOM     14  H   UNL     1      45.075   1.690  12.439  0.00  0.00    +0.000 HD
ENDBRANCH   3   4
BRANCH   3  15
ATOM     15  N   UNL     1      48.521   5.908  12.981  0.00  0.00    +0.000 NA
ATOM     16  H   UNL     1      48.382   5.010  12.536  0.00  0.00    +0.000 HD
ATOM     17  H   UNL     1      49.320   5.794  13.605  0.00  0.00    +0.000 HD
ENDBRANCH   3  15
ENDBRANCH   1   3
BRANCH   1  18
ATOM     18  C   UNL     1      49.001   7.871  14.631  0.00  0.00    +0.000 C 
BRANCH  18  19
ATOM     19  C   UNL     1      49.406   7.517  16.038  0.00  0.00    +0.000 A 
ATOM     20  C   UNL     1      48.707   7.989  17.150  0.00  0.00    +0.000 A 
ATOM     21  C   UNL     1      49.065   7.558  18.425  0.00  0.00    +0.000 A 
ATOM     22  C   UNL     1      50.115   6.654  18.564  0.00  0.00    +0.000 A 
ATOM     23  N   UNL     1      50.825   6.195  17.502  0.00  0.00    +0.000 NA
ATOM     24  C   UNL     1      50.460   6.637  16.277  0.00  0.00    +0.000 A 
BRANCH  22  25
ATOM     25  C   UNL     1      50.514   6.148  19.937  0.00  0.00    +0.000 C 
BRANCH  25  26
ATOM     26  N   UNL     1      50.316   4.705  20.134  0.00  0.00    +0.000 NA
ATOM     27  H   UNL     1      50.716   4.479  21.049  0.00  0.00    +0.000 HD
BRANCH  26  28
ATOM     28  C   UNL     1      48.901   4.354  20.185  0.00  0.00    +0.000 C 
BRANCH  28  29
ATOM     29  C   UNL     1      48.470   3.904  18.833  0.00  0.00    +0.000 A 
ATOM     30  C   UNL     1      49.072   3.057  17.924  0.00  0.00    +0.000 A 
ATOM     31  C   UNL     1      48.226   2.973  16.792  0.00  0.00    +0.000 A 
ATOM     32  C   UNL     1      47.134   3.774  17.035  0.00  0.00    +0.000 A 
ATOM     33  N   UNL     1      47.295   4.342  18.271  0.00  0.00    +0.000 N 
ATOM     34  H   UNL     1      46.673   5.013  18.705  0.00  0.00    +0.000 HD
ENDBRANCH  28  29
ENDBRANCH  26  28
ENDBRANCH  25  26
ENDBRANCH  22  25
ENDBRANCH  18  19
ENDBRANCH   1  18
TORSDOF 9
ENDMDL
