MODEL 1
REMARK VINA RESULT:    -9.020      0.000      0.000
REMARK INTER + INTRA:         -11.963
REMARK INTER:                 -11.130
REMARK INTRA:                  -0.833
REMARK UNBOUND:                -0.833
REMARK  Name = 
REMARK  4 active torsions:
REMARK  status: ('A' for Active; 'I' for Inactive)
REMARK    1  A    between atoms: C_2  and  C_4
REMARK    2  A    between atoms: N_8  and  C_9
REMARK    3  A    between atoms: C_9  and  C_10
REMARK    4  A    between atoms: C_14  and  C_15
REMARK                            x       y       z     vdW  Elec       q    Type
REMARK                         _______ _______ _______ _____ _____    ______ ____
ROOT
ATOM      1  C   UNL     1      46.393   2.266   7.694  0.00  0.00    +0.000 A 
ATOM      2  C   UNL     1      45.634   1.804   8.766  0.00  0.00    +0.000 A 
ATOM      3  C   UNL     1      44.806   2.694   9.448  0.00  0.00    +0.000 A 
ATOM      4  C   UNL     1      44.755   4.030   9.060  0.00  0.00    +0.000 A 
ATOM      5  N   UNL     1      43.904   4.955   9.612  0.00  0.00    +0.000 N 
ATOM      6  N   UNL     1      45.491   4.489   8.030  0.00  0.00    +0.000 NA
ATOM      7  C   UNL     1      46.300   3.612   7.378  0.00  0.00    +0.000 A 
ATOM      8  H   UNL     1      44.088   5.862   9.192  0.00  0.00    +0.000 HD
ENDROOT
BRANCH   1  10
ATOM      9  N   UNL     1      48.393   1.985   6.337  0.00  0.00    +0.000 N 
ATOM     10  C   UNL     1      47.289   1.400   6.897  0.00  0.00    +0.000 C 
ATOM     11  O   UNL     1      47.079   0.204   6.775  0.00  0.00    +0.000 OA
ATOM     12  H   UNL     1      49.047   1.360   5.883  0.00  0.00    +0.000 HD
ATOM     13  H   UNL     1      48.737   2.890   6.623  0.00  0.00    +0.000 HD
ENDBRANCH   1  10
BRANCH   5  14
ATOM     14  C   UNL     1      43.526   4.969  11.009  0.00  0.00    +0.000 C 
BRANCH  14  15
ATOM     15  C   UNL     1      44.657   5.244  11.980  0.00  0.00    +0.000 A 
ATOM     16  C   UNL     1      45.114   4.306  12.911  0.00  0.00    +0.000 A 
ATOM     17  C   UNL     1      46.234   4.578  13.697  0.00  0.00    +0.000 A 
ATOM     18  C   UNL     1      46.931   5.777  13.543  0.00  0.00    +0.000 A 
ATOM     19  C   UNL     1      46.536   6.732  12.591  0.00  0.00    +0.000 A 
ATOM     20  C   UNL     1      45.379   6.449  11.837  0.00  0.00    +0.000 A 
BRANCH  19  21
ATOM     21  C   UNL     1      47.350   7.938  12.324  0.00  0.00    +0.000 A 
ATOM     22  C   UNL     1      48.682   7.845  11.891  0.00  0.00    +0.000 A 
ATOM     23  C   UNL     1      49.411   8.989  11.568  0.00  0.00    +0.000 A 
ATOM     24  C   UNL     1      48.790  10.217  11.686  0.00  0.00    +0.000 A 
ATOM     25  N   UNL     1      47.521  10.370  12.113  0.00  0.00    +0.000 NA
ATOM     26  C   UNL     1      46.841   9.235  12.422  0.00  0.00    +0.000 A 
ENDBRANCH  19  21
ENDBRANCH  14  15
ENDBRANCH   5  14
TORSDOF 4
ENDMDL
MODEL 2
REMARK VINA RESULT:    -8.498      2.055      3.515
REMARK INTER + INTRA:         -11.318
REMARK INTER:                 -10.524
REMARK INTRA:                  -0.795
REMARK UNBOUND:                -0.833
REMARK  Name = 
REMARK  4 active torsions:
REMARK  status: ('A' for Active; 'I' for Inactive)
REMARK    1  A    between atoms: C_2  and  C_4
REMARK    2  A    between atoms: N_8  and  C_9
REMARK    3  A    between atoms: C_9  and  C_10
REMARK    4  A    between atoms: C_14  and  C_15
REMARK                            x       y       z     vdW  Elec       q    Type
REMARK                         _______ _______ _______ _____ _____    ______ ____
ROOT
ATOM      1  C   UNL     1      46.398   2.287   7.665  0.00  0.00    +0.000 A 
ATOM      2  C   UNL     1      45.794   1.891   8.855  0.00  0.00    +0.000 A 
ATOM      3  C   UNL     1      44.952   2.781   9.521  0.00  0.00    +0.000 A 
ATOM      4  C   UNL     1      44.733   4.052   8.997  0.00  0.00    +0.000 A 
ATOM      5  N   UNL     1      43.853   4.959   9.532  0.00  0.00    +0.000 N 
ATOM      6  N   UNL     1      45.318   4.448   7.850  0.00  0.00    +0.000 NA
ATOM      7  C   UNL     1      46.143   3.572   7.215  0.00  0.00    +0.000 A 
ATOM      8  H   UNL     1      43.906   5.822   8.999  0.00  0.00    +0.000 HD
ENDROOT
BRANCH   1  10
ATOM      9  N   UNL     1      48.483   1.947   6.458  0.00  0.00    +0.000 N 
ATOM     10  C   UNL     1      47.294   1.414   6.876  0.00  0.00    +0.000 C 
ATOM     11  O   UNL     1      47.006   0.251   6.639  0.00  0.00    +0.000 OA
ATOM     12  H   UNL     1      49.126   1.308   6.010  0.00  0.00    +0.000 HD
ATOM     13  H   UNL     1      48.867   2.798   6.844  0.00  0.00    +0.000 HD
ENDBRANCH   1  10
BRANCH   5  14
ATOM     14  C   UNL     1      43.611   5.105  10.951  0.00  0.00    +0.000 C 
BRANCH  14  15
ATOM     15  C   UNL     1      44.696   5.836  11.717  0.00  0.00    +0.000 A 
ATOM     16  C   UNL     1      44.852   7.226  11.688  0.00  0.00    +0.000 A 
ATOM     17  C   UNL     1      45.795   7.849  12.506  0.00  0.00    +0.000 A 
ATOM     18  C   UNL     1      46.573   7.096  13.386  0.00  0.00    +0.000 A 
ATOM     19  C   UNL     1      46.422   5.703  13.483  0.00  0.00    +0.000 A 
ATOM     20  C   UNL     1      45.490   5.095  12.619  0.00  0.00    +0.000 A 
BRANCH  19  21
ATOM     21  C   UNL     1      47.140   4.918  14.511  0.00  0.00    +0.000 A 
ATOM     22  C   UNL     1      47.704   5.530  15.642  0.00  0.00    +0.000 A 
ATOM     23  C   UNL     1      48.309   4.767  16.641  0.00  0.00    +0.000 A 
ATOM     24  C   UNL     1      48.341   3.395  16.490  0.00  0.00    +0.000 A 
ATOM     25  N   UNL     1      47.833   2.754  15.419  0.00  0.00    +0.000 NA
ATOM     26  C   UNL     1      47.254   3.527  14.464  0.00  0.00    +0.000 A 
ENDBRANCH  19  21
ENDBRANCH  14  15
ENDBRANCH   5  14
TORSDOF 4
ENDMDL
MODEL 3
REMARK VINA RESULT:    -7.638      1.806      2.481
REMARK INTER + INTRA:         -10.257
REMARK INTER:                 -10.216
REMARK INTRA:                  -0.042
REMARK UNBOUND:                -0.833
REMARK  Name = 
REMARK  4 active torsions:
REMARK  status: ('A' for Active; 'I' for Inactive)
REMARK    1  A    between atoms: C_2  and  C_4
REMARK    2  A    between atoms: N_8  and  C_9
REMARK    3  A    between atoms: C_9  and  C_10
REMARK    4  A    between atoms: C_14  and  C_15
REMARK                            x       y       z     vdW  Elec       q    Type
REMARK                         _______ _______ _______ _____ _____    ______ ____
ROOT
ATOM      1  C   UNL     1      46.701   2.531   7.136  0.00  0.00    +0.000 A 
ATOM      2  C   UNL     1      46.241   3.760   7.600  0.00  0.00    +0.000 A 
ATOM      3  C   UNL     1      45.489   3.807   8.773  0.00  0.00    +0.000 A 
ATOM      4  C   UNL     1      45.199   2.632   9.459  0.00  0.00    +0.000 A 
ATOM      5  N   UNL     1      44.546   2.591  10.666  0.00  0.00    +0.000 N 
ATOM      6  N   UNL     1      45.632   1.436   9.015  0.00  0.00    +0.000 NA
ATOM      7  C   UNL     1      46.358   1.403   7.866  0.00  0.00    +0.000 A 
ATOM      8  H   UNL     1      44.417   1.620  10.937  0.00  0.00    +0.000 HD
ENDROOT
BRANCH   1  10
ATOM      9  N   UNL     1      47.339   3.295   4.917  0.00  0.00    +0.000 N 
ATOM     10  C   UNL     1      47.517   2.374   5.913  0.00  0.00    +0.000 C 
ATOM     11  O   UNL     1      48.346   1.485   5.808  0.00  0.00    +0.000 OA
ATOM     12  H   UNL     1      47.976   3.234   4.133  0.00  0.00    +0.000 HD
ATOM     13  H   UNL     1      46.866   4.176   5.064  0.00  0.00    +0.000 HD
ENDBRANCH   1  10
BRANCH   5  14
ATOM     14  C   UNL     1      43.482   3.499  11.037  0.00  0.00    +0.000 C 
BRANCH  14  15
ATOM     15  C   UNL     1      43.902   4.944  11.218  0.00  0.00    +0.000 A 
ATOM     16  C   UNL     1      43.005   6.016  11.166  0.00  0.00    +0.000 A 
ATOM     17  C   UNL     1      43.433   7.311  11.457  0.00  0.00    +0.000 A 
ATOM     18  C   UNL     1      44.756   7.550  11.833  0.00  0.00    +0.000 A 
ATOM     19  C   UNL     1      45.683   6.501  11.942  0.00  0.00    +0.000 A 
ATOM     20  C   UNL     1      45.234   5.207  11.605  0.00  0.00    +0.000 A 
BRANCH  19  21
ATOM     21  C   UNL     1      47.044   6.725  12.475  0.00  0.00    +0.000 A 
ATOM     22  C   UNL     1      47.975   7.529  11.799  0.00  0.00    +0.000 A 
ATOM     23  C   UNL     1      49.227   7.794  12.353  0.00  0.00    +0.000 A 
ATOM     24  C   UNL     1      49.529   7.246  13.585  0.00  0.00    +0.000 A 
ATOM     25  N   UNL     1      48.683   6.453  14.272  0.00  0.00    +0.000 NA
ATOM     26  C   UNL     1      47.474   6.212  13.702  0.00  0.00    +0.000 A 
ENDBRANCH  19  21
ENDBRANCH  14  15
ENDBRANCH   5  14
TORSDOF 4
ENDMDL
MODEL 4
REMARK VINA RESULT:    -7.380      3.254      7.336
REMARK INTER + INTRA:          -9.939
REMARK INTER:                  -9.476
REMARK INTRA:                  -0.463
REMARK UNBOUND:                -0.833
REMARK  Name = 
REMARK  4 active torsions:
REMARK  status: ('A' for Active; 'I' for Inactive)
REMARK    1  A    between atoms: C_2  and  C_4
REMARK    2  A    between atoms: N_8  and  C_9
REMARK    3  A    between atoms: C_9  and  C_10
REMARK    4  A    between atoms: C_14  and  C_15
REMARK                            x       y       z     vdW  Elec       q    Type
REMARK                         _______ _______ _______ _____ _____    ______ ____
ROOT
ATOM      1  C   UNL     1      47.931   5.558  15.384  0.00  0.00    +0.000 A 
ATOM      2  C   UNL     1      47.006   4.719  14.769  0.00  0.00    +0.000 A 
ATOM      3  C   UNL     1      46.423   5.113  13.566  0.00  0.00    +0.000 A 
ATOM      4  C   UNL     1      46.761   6.339  13.000  0.00  0.00    +0.000 A 
ATOM      5  N   UNL     1      46.309   6.769  11.777  0.00  0.00    +0.000 N 
ATOM      6  N   UNL     1      47.648   7.163  13.591  0.00  0.00    +0.000 NA
ATOM      7  C   UNL     1      48.204   6.769  14.768  0.00  0.00    +0.000 A 
ATOM      8  H   UNL     1      46.659   7.707  11.609  0.00  0.00    +0.000 HD
ENDROOT
BRANCH   1  10
ATOM      9  N   UNL     1      48.119   5.783  17.799  0.00  0.00    +0.000 N 
ATOM     10  C   UNL     1      48.616   5.227  16.652  0.00  0.00    +0.000 C 
ATOM     11  O   UNL     1      49.562   4.456  16.683  0.00  0.00    +0.000 OA
ATOM     12  H   UNL     1      48.534   5.465  18.666  0.00  0.00    +0.000 HD
ATOM     13  H   UNL     1      47.203   6.205  17.850  0.00  0.00    +0.000 HD
ENDBRANCH   1  10
BRANCH   5  14
ATOM     14  C   UNL     1      44.986   6.485  11.263  0.00  0.00    +0.000 C 
BRANCH  14  15
ATOM     15  C   UNL     1      44.736   5.036  10.894  0.00  0.00    +0.000 A 
ATOM     16  C   UNL     1      43.705   4.270  11.448  0.00  0.00    +0.000 A 
ATOM     17  C   UNL     1      43.454   2.979  10.983  0.00  0.00    +0.000 A 
ATOM     18  C   UNL     1      44.208   2.448   9.936  0.00  0.00    +0.000 A 
ATOM     19  C   UNL     1      45.225   3.194   9.318  0.00  0.00    +0.000 A 
ATOM     20  C   UNL     1      45.484   4.480   9.833  0.00  0.00    +0.000 A 
BRANCH  19  21
ATOM     21  C   UNL     1      45.931   2.692   8.119  0.00  0.00    +0.000 A 
ATOM     22  C   UNL     1      46.149   3.510   6.998  0.00  0.00    +0.000 A 
ATOM     23  C   UNL     1      46.884   3.047   5.908  0.00  0.00    +0.000 A 
ATOM     24  C   UNL     1      47.393   1.764   5.956  0.00  0.00    +0.000 A 
ATOM     25  N   UNL     1      47.201   0.928   6.995  0.00  0.00    +0.000 NA
ATOM     26  C   UNL     1      46.478   1.409   8.039  0.00  0.00    +0.000 A 
ENDBRANCH  19  21
ENDBRANCH  14  15
ENDBRANCH   5  14
TORSDOF 4
ENDMDL
MODEL 5
REMARK VINA RESULT:    -7.179      3.075      7.001
REMARK INTER + INTRA:          -9.690
REMARK INTER:                  -8.958
REMARK INTRA:                  -0.733
REMARK UNBOUND:                -0.833
REMARK  Name = 
REMARK  4 active torsions:
REMARK  status: ('A' for Active; 'I' for Inactive)
REMARK    1  A    between atoms: C_2  and  C_4
REMARK    2  A    between atoms: N_8  and  C_9
REMARK    3  A    between atoms: C_9  and  C_10
REMARK    4  A    between atoms: C_14  and  C_15
REMARK                            x       y       z     vdW  Elec       q    Type
REMARK                         _______ _______ _______ _____ _____    ______ ____
ROOT
ATOM      1  C   UNL     1      49.106   7.524  12.922  0.00  0.00    +0.000 A 
ATOM      2  C   UNL     1      48.409   7.887  11.774  0.00  0.00    +0.000 A 
ATOM      3  C   UNL     1      47.056   7.564  11.667  0.00  0.00    +0.000 A 
ATOM      4  C   UNL     1      46.424   6.878  12.700  0.00  0.00    +0.000 A 
ATOM      5  N   UNL     1      45.080   6.598  12.723  0.00  0.00    +0.000 N 
ATOM      6  N   UNL     1      47.092   6.514  13.812  0.00  0.00    +0.000 NA
ATOM      7  C   UNL     1      48.411   6.828  13.899  0.00  0.00    +0.000 A 
ATOM      8  H   UNL     1      44.872   6.053  13.554  0.00  0.00    +0.000 HD
ENDROOT
BRANCH   1  10
ATOM      9  N   UNL     1      51.364   7.774  12.051  0.00  0.00    +0.000 N 
ATOM     10  C   UNL     1      50.536   7.832  13.139  0.00  0.00    +0.000 C 
ATOM     11  O   UNL     1      50.958   8.164  14.236  0.00  0.00    +0.000 OA
ATOM     12  H   UNL     1      52.315   8.086  12.196  0.00  0.00    +0.000 HD
ATOM     13  H   UNL     1      51.019   7.760  11.102  0.00  0.00    +0.000 HD
ENDBRANCH   1  10
BRANCH   5  14
ATOM     14  C   UNL     1      44.305   6.276  11.544  0.00  0.00    +0.000 C 
BRANCH  14  15
ATOM     15  C   UNL     1      44.282   4.807  11.169  0.00  0.00    +0.000 A 
ATOM     16  C   UNL     1      43.405   3.882  11.745  0.00  0.00    +0.000 A 
ATOM     17  C   UNL     1      43.353   2.570  11.275  0.00  0.00    +0.000 A 
ATOM     18  C   UNL     1      44.153   2.172  10.203  0.00  0.00    +0.000 A 
ATOM     19  C   UNL     1      45.018   3.075   9.564  0.00  0.00    +0.000 A 
ATOM     20  C   UNL     1      45.079   4.384  10.084  0.00  0.00    +0.000 A 
BRANCH  19  21
ATOM     21  C   UNL     1      45.761   2.699   8.343  0.00  0.00    +0.000 A 
ATOM     22  C   UNL     1      46.012   3.628   7.320  0.00  0.00    +0.000 A 
ATOM     23  C   UNL     1      46.781   3.280   6.210  0.00  0.00    +0.000 A 
ATOM     24  C   UNL     1      47.292   1.998   6.141  0.00  0.00    +0.000 A 
ATOM     25  N   UNL     1      47.070   1.060   7.083  0.00  0.00    +0.000 NA
ATOM     26  C   UNL     1      46.314   1.431   8.148  0.00  0.00    +0.000 A 
ENDBRANCH  19  21
ENDBRANCH  14  15
ENDBRANCH   5  14
TORSDOF 4
ENDMDL
MODEL 6
REMARK VINA RESULT:    -7.025      4.823      7.944
REMARK INTER + INTRA:          -9.501
REMARK INTER:                  -9.025
REMARK INTRA:                  -0.476
REMARK UNBOUND:                -0.833
REMARK  Name = 
REMARK  4 active torsions:
REMARK  status: ('A' for Active; 'I' for Inactive)
REMARK    1  A    between atoms: C_2  and  C_4
REMARK    2  A    between atoms: N_8  and  C_9
REMARK    3  A    between atoms: C_9  and  C_10
REMARK    4  A    between atoms: C_14  and  C_15
REMARK                            x       y       z     vdW  Elec       q    Type
REMARK                         _______ _______ _______ _____ _____    ______ ____
ROOT
ATOM      1  C   UNL     1      49.616   3.850  17.380  0.00  0.00    +0.000 A 
ATOM      2  C   UNL     1      49.069   5.107  17.139  0.00  0.00    +0.000 A 
ATOM      3  C   UNL     1      47.988   5.223  16.266  0.00  0.00    +0.000 A 
ATOM      4  C   UNL     1      47.476   4.089  15.642  0.00  0.00    +0.000 A 
ATOM      5  N   UNL     1      46.361   4.094  14.841  0.00  0.00    +0.000 N 
ATOM      6  N   UNL     1      48.003   2.869  15.861  0.00  0.00    +0.000 NA
ATOM      7  C   UNL     1      49.062   2.771  16.709  0.00  0.00    +0.000 A 
ATOM      8  H   UNL     1      46.218   3.159  14.471  0.00  0.00    +0.000 HD
ENDROOT
BRANCH   1  10
ATOM      9  N   UNL     1      51.494   2.484  18.106  0.00  0.00    +0.000 N 
ATOM     10  C   UNL     1      50.752   3.618  18.298  0.00  0.00    +0.000 C 
ATOM     11  O   UNL     1      51.045   4.423  19.168  0.00  0.00    +0.000 OA
ATOM     12  H   UNL     1      52.326   2.393  18.675  0.00  0.00    +0.000 HD
ATOM     13  H   UNL     1      51.449   1.938  17.258  0.00  0.00    +0.000 HD
ENDBRANCH   1  10
BRANCH   5  14
ATOM     14  C   UNL     1      46.008   5.185  13.958  0.00  0.00    +0.000 C 
BRANCH  14  15
ATOM     15  C   UNL     1      45.024   4.834  12.861  0.00  0.00    +0.000 A 
ATOM     16  C   UNL     1      43.689   5.254  12.864  0.00  0.00    +0.000 A 
ATOM     17  C   UNL     1      42.865   4.997  11.769  0.00  0.00    +0.000 A 
ATOM     18  C   UNL     1      43.369   4.344  10.643  0.00  0.00    +0.000 A 
ATOM     19  C   UNL     1      44.712   3.942  10.575  0.00  0.00    +0.000 A 
ATOM     20  C   UNL     1      45.514   4.179  11.710  0.00  0.00    +0.000 A 
BRANCH  19  21
ATOM     21  C   UNL     1      45.288   3.378   9.335  0.00  0.00    +0.000 A 
ATOM     22  C   UNL     1      45.768   4.204   8.306  0.00  0.00    +0.000 A 
ATOM     23  C   UNL     1      46.379   3.659   7.177  0.00  0.00    +0.000 A 
ATOM     24  C   UNL     1      46.500   2.286   7.095  0.00  0.00    +0.000 A 
ATOM     25  N   UNL     1      46.043   1.442   8.042  0.00  0.00    +0.000 NA
ATOM     26  C   UNL     1      45.451   2.007   9.125  0.00  0.00    +0.000 A 
ENDBRANCH  19  21
ENDBRANCH  14  15
ENDBRANCH   5  14
TORSDOF 4
ENDMDL
MODEL 7
REMARK VINA RESULT:    -6.556      2.884      6.834
REMARK INTER + INTRA:          -8.922
REMARK INTER:                  -8.154
REMARK INTRA:                  -0.767
REMARK UNBOUND:                -0.833
REMARK  Name = 
REMARK  4 active torsions:
REMARK  status: ('A' for Active; 'I' for Inactive)
REMARK    1  A    between atoms: C_2  and  C_4
REMARK    2  A    between atoms: N_8  and  C_9
REMARK    3  A    between atoms: C_9  and  C_10
REMARK    4  A    between atoms: C_14  and  C_15
REMARK                            x       y       z     vdW  Elec       q    Type
REMARK                         _______ _______ _______ _____ _____    ______ ____
ROOT
ATOM      1  C   UNL     1      48.468   8.683  12.122  0.00  0.00    +0.000 A 
ATOM      2  C   UNL     1      47.277   8.744  12.841  0.00  0.00    +0.000 A 
ATOM      3  C   UNL     1      46.768   7.580  13.415  0.00  0.00    +0.000 A 
ATOM      4  C   UNL     1      47.446   6.375  13.258  0.00  0.00    +0.000 A 
ATOM      5  N   UNL     1      47.071   5.201  13.861  0.00  0.00    +0.000 N 
ATOM      6  N   UNL     1      48.595   6.304  12.557  0.00  0.00    +0.000 NA
ATOM      7  C   UNL     1      49.076   7.445  11.996  0.00  0.00    +0.000 A 
ATOM      8  H   UNL     1      47.695   4.460  13.556  0.00  0.00    +0.000 HD
ENDROOT
BRANCH   1  10
ATOM      9  N   UNL     1      48.272  10.875  11.084  0.00  0.00    +0.000 N 
ATOM     10  C   UNL     1      49.098   9.861  11.488  0.00  0.00    +0.000 C 
ATOM     11  O   UNL     1      50.310   9.948  11.364  0.00  0.00    +0.000 OA
ATOM     12  H   UNL     1      48.727  11.714  10.747  0.00  0.00    +0.000 HD
ATOM     13  H   UNL     1      47.315  10.958  11.396  0.00  0.00    +0.000 HD
ENDBRANCH   1  10
BRANCH   5  14
ATOM     14  C   UNL     1      45.694   4.816  14.086  0.00  0.00    +0.000 C 
BRANCH  14  15
ATOM     15  C   UNL     1      44.843   4.708  12.837  0.00  0.00    +0.000 A 
ATOM     16  C   UNL     1      43.593   5.324  12.704  0.00  0.00    +0.000 A 
ATOM     17  C   UNL     1      42.911   5.285  11.489  0.00  0.00    +0.000 A 
ATOM     18  C   UNL     1      43.480   4.656  10.380  0.00  0.00    +0.000 A 
ATOM     19  C   UNL     1      44.750   4.062  10.451  0.00  0.00    +0.000 A 
ATOM     20  C   UNL     1      45.401   4.082  11.701  0.00  0.00    +0.000 A 
BRANCH  19  21
ATOM     21  C   UNL     1      45.418   3.521   9.248  0.00  0.00    +0.000 A 
ATOM     22  C   UNL     1      45.605   2.141   9.069  0.00  0.00    +0.000 A 
ATOM     23  C   UNL     1      46.166   1.642   7.894  0.00  0.00    +0.000 A 
ATOM     24  C   UNL     1      46.535   2.538   6.910  0.00  0.00    +0.000 A 
ATOM     25  N   UNL     1      46.396   3.873   7.032  0.00  0.00    +0.000 NA
ATOM     26  C   UNL     1      45.850   4.325   8.190  0.00  0.00    +0.000 A 
ENDBRANCH  19  21
ENDBRANCH  14  15
ENDBRANCH   5  14
TORSDOF 4
ENDMDL
MODEL 8
REMARK VINA RESULT:    -6.545      5.629      8.200
REMARK INTER + INTRA:          -8.909
REMARK INTER:                  -8.214
REMARK INTRA:                  -0.695
REMARK UNBOUND:                -0.833
REMARK  Name = 
REMARK  4 active torsions:
REMARK  status: ('A' for Active; 'I' for Inactive)
REMARK    1  A    between atoms: C_2  and  C_4
REMARK    2  A    between atoms: N_8  and  C_9
REMARK    3  A    between atoms: C_9  and  C_10
REMARK    4  A    between atoms: C_14  and  C_15
REMARK                            x       y       z     vdW  Elec       q    Type
REMARK                         _______ _______ _______ _____ _____    ______ ____
ROOT
ATOM      1  C   UNL     1      51.423   2.423  17.526  0.00  0.00    +0.000 A 
ATOM      2  C   UNL     1      51.867   3.735  17.658  0.00  0.00    +0.000 A 
ATOM      3  C   UNL     1      50.979   4.782  17.415  0.00  0.00    +0.000 A 
ATOM      4  C   UNL     1      49.669   4.507  17.036  0.00  0.00    +0.000 A 
ATOM      5  N   UNL     1      48.703   5.467  16.864  0.00  0.00    +0.000 N 
ATOM      6  N   UNL     1      49.231   3.240  16.897  0.00  0.00    +0.000 NA
ATOM      7  C   UNL     1      50.109   2.229  17.130  0.00  0.00    +0.000 A 
ATOM      8  H   UNL     1      47.848   5.020  16.546  0.00  0.00    +0.000 HD
ENDROOT
BRANCH   1  10
ATOM      9  N   UNL     1      51.663   0.093  18.187  0.00  0.00    +0.000 N 
ATOM     10  C   UNL     1      52.280   1.243  17.775  0.00  0.00    +0.000 C 
ATOM     11  O   UNL     1      53.485   1.278  17.583  0.00  0.00    +0.000 OA
ATOM     12  H   UNL     1      52.249  -0.729  18.254  0.00  0.00    +0.000 HD
ATOM     13  H   UNL     1      50.667  -0.051  18.108  0.00  0.00    +0.000 HD
ENDBRANCH   1  10
BRANCH   5  14
ATOM     14  C   UNL     1      48.966   6.786  16.330  0.00  0.00    +0.000 C 
BRANCH  14  15
ATOM     15  C   UNL     1      48.639   6.962  14.860  0.00  0.00    +0.000 A 
ATOM     16  C   UNL     1      49.438   7.701  13.980  0.00  0.00    +0.000 A 
ATOM     17  C   UNL     1      49.148   7.729  12.617  0.00  0.00    +0.000 A 
ATOM     18  C   UNL     1      48.075   6.996  12.108  0.00  0.00    +0.000 A 
ATOM     19  C   UNL     1      47.271   6.205  12.944  0.00  0.00    +0.000 A 
ATOM     20  C   UNL     1      47.562   6.225  14.323  0.00  0.00    +0.000 A 
BRANCH  19  21
ATOM     21  C   UNL     1      46.224   5.317  12.395  0.00  0.00    +0.000 A 
ATOM     22  C   UNL     1      45.609   5.581  11.160  0.00  0.00    +0.000 A 
ATOM     23  C   UNL     1      44.680   4.693  10.619  0.00  0.00    +0.000 A 
ATOM     24  C   UNL     1      44.379   3.546  11.327  0.00  0.00    +0.000 A 
ATOM     25  N   UNL     1      44.923   3.248  12.524  0.00  0.00    +0.000 NA
ATOM     26  C   UNL     1      45.821   4.136  13.023  0.00  0.00    +0.000 A 
ENDBRANCH  19  21
ENDBRANCH  14  15
ENDBRANCH   5  14
TORSDOF 4
ENDMDL
MODEL 9
REMARK VINA RESULT:    -6.223      4.070      6.362
REMARK INTER + INTRA:          -8.511
REMARK INTER:                  -7.773
REMARK INTRA:                  -0.738
REMARK UNBOUND:                -0.833
REMARK  Name = 
REMARK  4 active torsions:
REMARK  status: ('A' for Active; 'I' for Inactive)
REMARK    1  A    between atoms: C_2  and  C_4
REMARK    2  A    between atoms: N_8  and  C_9
REMARK    3  A    between atoms: C_9  and  C_10
REMARK    4  A    between atoms: C_14  and  C_15
REMARK                            x       y       z     vdW  Elec       q    Type
REMARK                         _______ _______ _______ _____ _____    ______ ____
ROOT
ATOM      1  C   UNL     1      44.650   5.610  11.364  0.00  0.00    +0.000 A 
ATOM      2  C   UNL     1      45.805   5.294  12.074  0.00  0.00    +0.000 A 
ATOM      3  C   UNL     1      46.446   6.289  12.811  0.00  0.00    +0.000 A 
ATOM      4  C   UNL     1      45.933   7.583  12.822  0.00  0.00    +0.000 A 
ATOM      5  N   UNL     1      46.443   8.602  13.587  0.00  0.00    +0.000 N 
ATOM      6  N   UNL     1      44.821   7.902  12.132  0.00  0.00    +0.000 NA
ATOM      7  C   UNL     1      44.210   6.924  11.412  0.00  0.00    +0.000 A 
ATOM      8  H   UNL     1      45.927   9.454  13.386  0.00  0.00    +0.000 HD
ENDROOT
BRANCH   1  10
ATOM      9  N   UNL     1      44.150   4.569   9.223  0.00  0.00    +0.000 N 
ATOM     10  C   UNL     1      43.889   4.626  10.566  0.00  0.00    +0.000 C 
ATOM     11  O   UNL     1      43.088   3.865  11.085  0.00  0.00    +0.000 OA
ATOM     12  H   UNL     1      43.697   3.822   8.712  0.00  0.00    +0.000 HD
ATOM     13  H   UNL     1      44.970   4.986   8.807  0.00  0.00    +0.000 HD
ENDBRANCH   1  10
BRANCH   5  14
ATOM     14  C   UNL     1      47.852   8.768  13.873  0.00  0.00    +0.000 C 
BRANCH  14  15
ATOM     15  C   UNL     1      48.277   8.371  15.272  0.00  0.00    +0.000 A 
ATOM     16  C   UNL     1      48.134   9.209  16.384  0.00  0.00    +0.000 A 
ATOM     17  C   UNL     1      48.436   8.744  17.663  0.00  0.00    +0.000 A 
ATOM     18  C   UNL     1      48.855   7.426  17.855  0.00  0.00    +0.000 A 
ATOM     19  C   UNL     1      48.971   6.535  16.777  0.00  0.00    +0.000 A 
ATOM     20  C   UNL     1      48.698   7.041  15.490  0.00  0.00    +0.000 A 
BRANCH  19  21
ATOM     21  C   UNL     1      49.276   5.103  16.988  0.00  0.00    +0.000 A 
ATOM     22  C   UNL     1      48.293   4.112  16.837  0.00  0.00    +0.000 A 
ATOM     23  C   UNL     1      48.614   2.761  16.963  0.00  0.00    +0.000 A 
ATOM     24  C   UNL     1      49.924   2.421  17.240  0.00  0.00    +0.000 A 
ATOM     25  N   UNL     1      50.906   3.328  17.412  0.00  0.00    +0.000 NA
ATOM     26  C   UNL     1      50.558   4.634  17.287  0.00  0.00    +0.000 A 
ENDBRANCH  19  21
ENDBRANCH  14  15
ENDBRANCH   5  14
TORSDOF 4
ENDMDL
