MODEL 1
REMARK VINA RESULT:    -7.996      0.000      0.000
REMARK INTER + INTRA:         -13.499
REMARK INTER:                 -11.969
REMARK INTRA:                  -1.530
REMARK UNBOUND:                -1.530
REMARK  Name = 
REMARK  9 active torsions:
REMARK  status: ('A' for Active; 'I' for Inactive)
REMARK    1  A    between atoms: N_1  and  C_2
REMARK    2  A    between atoms: C_2  and  C_3
REMARK    3  A    between atoms: C_3  and  N_4
REMARK    4  A    between atoms: C_3  and  C_26
REMARK    5  A    between atoms: N_4  and  C_5
REMARK    6  A    between atoms: C_5  and  C_6
REMARK    7  A    between atoms: C_9  and  C_10
REMARK    8  A    between atoms: C_10  and  N_11
REMARK    9  A    between atoms: C_12  and  C_14
REMARK                            x       y       z     vdW  Elec       q    Type
REMARK                         _______ _______ _______ _____ _____    ______ ____
ROOT
ATOM      1  C   UNL     1      44.769   6.342  11.416  0.00  0.00    +0.000 A 
ATOM      2  C   UNL     1      44.434   7.574  11.965  0.00  0.00    +0.000 A 
ATOM      3  N   UNL     1      45.291   8.308  12.714  0.00  0.00    +0.000 NA
ATOM      4  C   UNL     1      46.514   7.755  12.917  0.00  0.00    +0.000 A 
ATOM      5  C   UNL     1      46.865   6.541  12.335  0.00  0.00    +0.000 A 
ATOM      6  N   UNL     1      46.012   5.813  11.578  0.00  0.00    +0.000 NA
ENDROOT
BRANCH   1   7
ATOM      7  C   UNL     1      43.748   5.549  10.630  0.00  0.00    +0.000 C 
BRANCH   7   8
ATOM      8  N   UNL     1      44.348   4.968   9.417  0.00  0.00    +0.000 NA
ATOM      9  H   UNL     1      43.801   5.353   8.638  0.00  0.00    +0.000 HD
BRANCH   8  10
ATOM     10  C   UNL     1      44.205   3.495   9.355  0.00  0.00    +0.000 C 
BRANCH  10  11
ATOM     11  C   UNL     1      45.290   2.819   8.519  0.00  0.00    +0.000 A 
ATOM     12  C   UNL     1      46.066   3.580   7.643  0.00  0.00    +0.000 A 
ATOM     13  C   UNL     1      47.072   2.953   6.915  0.00  0.00    +0.000 A 
ATOM     14  C   UNL     1      47.291   1.592   7.088  0.00  0.00    +0.000 A 
ATOM     15  C   UNL     1      46.491   0.909   7.987  0.00  0.00    +0.000 A 
ATOM     16  N   UNL     1      45.504   1.489   8.704  0.00  0.00    +0.000 NA
ENDBRANCH  10  11
BRANCH  10  17
ATOM     17  C   UNL     1      44.038   2.821  10.749  0.00  0.00    +0.000 C 
BRANCH  17  18
ATOM     18  N   UNL     1      45.290   2.791  11.526  0.00  0.00    +0.000 NA
ATOM     19  H   UNL     1      45.901   2.077  11.127  0.00  0.00    +0.000 HD
ATOM     20  H   UNL     1      45.086   2.488  12.477  0.00  0.00    +0.000 HD
ENDBRANCH  17  18
ENDBRANCH  10  17
ENDBRANCH   8  10
ENDBRANCH   7   8
ENDBRANCH   1   7
BRANCH   4  21
ATOM     21  C   UNL     1      47.500   8.503  13.770  0.00  0.00    +0.000 C 
BRANCH  21  22
ATOM     22  N   UNL     1      47.842   7.761  14.962  0.00  0.00    +0.000 N 
ATOM     23  C   UNL     1      49.002   7.037  15.042  0.00  0.00    +0.000 C 
ATOM     24  O   UNL     1      49.851   7.067  14.155  0.00  0.00    +0.000 OA
ATOM     25  H   UNL     1      47.068   7.540  15.583  0.00  0.00    +0.000 HD
BRANCH  23  26
ATOM     26  C   UNL     1      49.217   6.275  16.275  0.00  0.00    +0.000 A 
ATOM     27  C   UNL     1      50.213   6.668  17.158  0.00  0.00    +0.000 A 
ATOM     28  S   UNL     1      50.317   5.690  18.549  0.00  0.00    +0.000 S 
ATOM     29  C   UNL     1      49.057   4.683  18.000  0.00  0.00    +0.000 A 
ATOM     30  N   UNL     1      48.661   3.606  18.728  0.00  0.00    +0.000 NA
ATOM     31  C   UNL     1      47.720   2.911  18.180  0.00  0.00    +0.000 A 
ATOM     32  N   UNL     1      47.137   3.202  16.973  0.00  0.00    +0.000 N 
ATOM     33  C   UNL     1      47.484   4.299  16.220  0.00  0.00    +0.000 A 
ATOM     34  O   UNL     1      46.908   4.566  15.172  0.00  0.00    +0.000 OA
ATOM     35  C   UNL     1      48.553   5.100  16.783  0.00  0.00    +0.000 A 
ATOM     36  H   UNL     1      46.394   2.626  16.604  0.00  0.00    +0.000 HD
ENDBRANCH  23  26
ENDBRANCH  21  22
ENDBRANCH   4  21
TORSDOF 9
ENDMDL
MODEL 2
REMARK VINA RESULT:    -7.652      2.965      4.066
REMARK INTER + INTRA:         -12.984
REMARK INTER:                 -11.916
REMARK INTRA:                  -1.067
REMARK UNBOUND:                -1.530
REMARK  Name = 
REMARK  9 active torsions:
REMARK  status: ('A' for Active; 'I' for Inactive)
REMARK    1  A    between atoms: N_1  and  C_2
REMARK    2  A    between atoms: C_2  and  C_3
REMARK    3  A    between atoms: C_3  and  N_4
REMARK    4  A    between atoms: C_3  and  C_26
REMARK    5  A    between atoms: N_4  and  C_5
REMARK    6  A    between atoms: C_5  and  C_6
REMARK    7  A    between atoms: C_9  and  C_10
REMARK    8  A    between atoms: C_10  and  N_11
REMARK    9  A    between atoms: C_12  and  C_14
REMARK                            x       y       z     vdW  Elec       q    Type
REMARK                         _______ _______ _______ _____ _____    ______ ____
ROOT
ATOM      1  C   UNL     1      46.889   4.364  14.162  0.00  0.00    +0.000 A 
ATOM      2  C   UNL     1      47.627   5.534  14.015  0.00  0.00    +0.000 A 
ATOM      3  N   UNL     1      48.295   6.120  15.036  0.00  0.00    +0.000 NA
ATOM      4  C   UNL     1      48.188   5.501  16.240  0.00  0.00    +0.000 A 
ATOM      5  C   UNL     1      47.484   4.310  16.381  0.00  0.00    +0.000 A 
ATOM      6  N   UNL     1      46.826   3.717  15.358  0.00  0.00    +0.000 NA
ENDROOT
BRANCH   1   7
ATOM      7  C   UNL     1      46.125   3.787  12.991  0.00  0.00    +0.000 C 
BRANCH   7   8
ATOM      8  N   UNL     1      44.686   4.079  13.102  0.00  0.00    +0.000 NA
ATOM      9  H   UNL     1      44.225   3.162  13.094  0.00  0.00    +0.000 HD
BRANCH   8  10
ATOM     10  C   UNL     1      44.162   4.832  11.940  0.00  0.00    +0.000 C 
BRANCH  10  11
ATOM     11  C   UNL     1      44.518   4.195  10.597  0.00  0.00    +0.000 A 
ATOM     12  C   UNL     1      45.231   4.930   9.648  0.00  0.00    +0.000 A 
ATOM     13  C   UNL     1      45.576   4.323   8.445  0.00  0.00    +0.000 A 
ATOM     14  C   UNL     1      45.218   2.999   8.224  0.00  0.00    +0.000 A 
ATOM     15  C   UNL     1      44.527   2.332   9.220  0.00  0.00    +0.000 A 
ATOM     16  N   UNL     1      44.174   2.896  10.395  0.00  0.00    +0.000 NA
ENDBRANCH  10  11
BRANCH  10  17
ATOM     17  C   UNL     1      42.645   5.169  12.041  0.00  0.00    +0.000 C 
BRANCH  17  18
ATOM     18  N   UNL     1      42.326   6.527  11.570  0.00  0.00    +0.000 NA
ATOM     19  H   UNL     1      43.045   7.166  11.911  0.00  0.00    +0.000 HD
ATOM     20  H   UNL     1      41.452   6.833  11.997  0.00  0.00    +0.000 HD
ENDBRANCH  17  18
ENDBRANCH  10  17
ENDBRANCH   8  10
ENDBRANCH   7   8
ENDBRANCH   1   7
BRANCH   4  21
ATOM     21  C   UNL     1      48.877   6.123  17.422  0.00  0.00    +0.000 C 
BRANCH  21  22
ATOM     22  N   UNL     1      49.945   5.285  17.916  0.00  0.00    +0.000 N 
ATOM     23  C   UNL     1      51.200   5.335  17.372  0.00  0.00    +0.000 C 
ATOM     24  O   UNL     1      51.507   6.162  16.516  0.00  0.00    +0.000 OA
ATOM     25  H   UNL     1      49.656   4.461  18.437  0.00  0.00    +0.000 HD
BRANCH  23  26
ATOM     26  C   UNL     1      52.189   4.398  17.911  0.00  0.00    +0.000 A 
ATOM     27  C   UNL     1      53.313   4.888  18.561  0.00  0.00    +0.000 A 
ATOM     28  S   UNL     1      54.350   3.668  19.146  0.00  0.00    +0.000 S 
ATOM     29  C   UNL     1      53.348   2.442  18.516  0.00  0.00    +0.000 A 
ATOM     30  N   UNL     1      53.687   1.132  18.648  0.00  0.00    +0.000 NA
ATOM     31  C   UNL     1      52.857   0.311  18.095  0.00  0.00    +0.000 A 
ATOM     32  N   UNL     1      51.717   0.683  17.429  0.00  0.00    +0.000 N 
ATOM     33  C   UNL     1      51.320   1.993  17.300  0.00  0.00    +0.000 A 
ATOM     34  O   UNL     1      50.268   2.294  16.748  0.00  0.00    +0.000 OA
ATOM     35  C   UNL     1      52.231   2.958  17.886  0.00  0.00    +0.000 A 
ATOM     36  H   UNL     1      51.101  -0.010  17.030  0.00  0.00    +0.000 HD
ENDBRANCH  23  26
ENDBRANCH  21  22
ENDBRANCH   4  21
TORSDOF 9
ENDMDL
MODEL 3
REMARK VINA RESULT:    -7.062      2.199      2.956
REMARK INTER + INTRA:         -12.101
REMARK INTER:                 -10.844
REMARK INTRA:                  -1.257
REMARK UNBOUND:                -1.530
REMARK  Name = 
REMARK  9 active torsions:
REMARK  status: ('A' for Active; 'I' for Inactive)
REMARK    1  A    between atoms: N_1  and  C_2
REMARK    2  A    between atoms: C_2  and  C_3
REMARK    3  A    between atoms: C_3  and  N_4
REMARK    4  A    between atoms: C_3  and  C_26
REMARK    5  A    between atoms: N_4  and  C_5
REMARK    6  A    between atoms: C_5  and  C_6
REMARK    7  A    between atoms: C_9  and  C_10
REMARK    8  A    between atoms: C_10  and  N_11
REMARK    9  A    between atoms: C_12  and  C_14
REMARK                            x       y       z     vdW  Elec       q    Type
REMARK                         _______ _______ _______ _____ _____    ______ ____
ROOT
ATOM      1  C   UNL     1      45.063   6.439  12.431  0.00  0.00    +0.000 A 
ATOM      2  C   UNL     1      45.274   7.814  12.418  0.00  0.00    +0.000 A 
ATOM      3  N   UNL     1      46.426   8.389  12.837  0.00  0.00    +0.000 NA
ATOM      4  C   UNL     1      47.376   7.535  13.295  0.00  0.00    +0.000 A 
ATOM      5  C   UNL     1      47.183   6.157  13.271  0.00  0.00    +0.000 A 
ATOM      6  N   UNL     1      46.036   5.581  12.842  0.00  0.00    +0.000 NA
ENDROOT
BRANCH   1   7
ATOM      7  C   UNL     1      43.734   5.864  11.996  0.00  0.00    +0.000 C 
BRANCH   7   8
ATOM      8  N   UNL     1      43.773   5.451  10.583  0.00  0.00    +0.000 NA
ATOM      9  H   UNL     1      42.930   5.859  10.162  0.00  0.00    +0.000 HD
BRANCH   8  10
ATOM     10  C   UNL     1      43.671   3.984  10.410  0.00  0.00    +0.000 C 
BRANCH  10  11
ATOM     11  C   UNL     1      44.672   3.424   9.401  0.00  0.00    +0.000 A 
ATOM     12  C   UNL     1      45.368   4.294   8.559  0.00  0.00    +0.000 A 
ATOM     13  C   UNL     1      46.300   3.770   7.670  0.00  0.00    +0.000 A 
ATOM     14  C   UNL     1      46.527   2.399   7.650  0.00  0.00    +0.000 A 
ATOM     15  C   UNL     1      45.810   1.604   8.527  0.00  0.00    +0.000 A 
ATOM     16  N   UNL     1      44.896   2.083   9.398  0.00  0.00    +0.000 NA
ENDBRANCH  10  11
BRANCH  10  17
ATOM     17  C   UNL     1      43.690   3.191  11.750  0.00  0.00    +0.000 C 
BRANCH  17  18
ATOM     18  N   UNL     1      42.991   1.897  11.662  0.00  0.00    +0.000 NA
ATOM     19  H   UNL     1      42.475   1.748  12.530  0.00  0.00    +0.000 HD
ATOM     20  H   UNL     1      43.679   1.147  11.611  0.00  0.00    +0.000 HD
ENDBRANCH  17  18
ENDBRANCH  10  17
ENDBRANCH   8  10
ENDBRANCH   7   8
ENDBRANCH   1   7
BRANCH   4  21
ATOM     21  C   UNL     1      48.665   8.114  13.808  0.00  0.00    +0.000 C 
BRANCH  21  22
ATOM     22  N   UNL     1      49.402   7.153  14.597  0.00  0.00    +0.000 N 
ATOM     23  C   UNL     1      49.348   7.164  15.965  0.00  0.00    +0.000 C 
ATOM     24  O   UNL     1      48.596   7.913  16.582  0.00  0.00    +0.000 OA
ATOM     25  H   UNL     1      50.184   6.703  14.128  0.00  0.00    +0.000 HD
BRANCH  23  26
ATOM     26  C   UNL     1      50.183   6.183  16.663  0.00  0.00    +0.000 A 
ATOM     27  C   UNL     1      49.585   5.222  17.467  0.00  0.00    +0.000 A 
ATOM     28  S   UNL     1      50.693   4.148  18.188  0.00  0.00    +0.000 S 
ATOM     29  C   UNL     1      52.016   4.954  17.479  0.00  0.00    +0.000 A 
ATOM     30  N   UNL     1      53.290   4.546  17.723  0.00  0.00    +0.000 NA
ATOM     31  C   UNL     1      54.197   5.266  17.149  0.00  0.00    +0.000 A 
ATOM     32  N   UNL     1      53.942   6.352  16.351  0.00  0.00    +0.000 N 
ATOM     33  C   UNL     1      52.670   6.778  16.052  0.00  0.00    +0.000 A 
ATOM     34  O   UNL     1      52.470   7.717  15.290  0.00  0.00    +0.000 OA
ATOM     35  C   UNL     1      51.615   6.015  16.689  0.00  0.00    +0.000 A 
ATOM     36  H   UNL     1      54.697   6.866  15.919  0.00  0.00    +0.000 HD
ENDBRANCH  23  26
ENDBRANCH  21  22
ENDBRANCH   4  21
TORSDOF 9
ENDMDL
MODEL 4
REMARK VINA RESULT:    -7.059      2.801      7.834
REMARK INTER + INTRA:         -12.097
REMARK INTER:                 -10.519
REMARK INTRA:                  -1.578
REMARK UNBOUND:                -1.530
REMARK  Name = 
REMARK  9 active torsions:
REMARK  status: ('A' for Active; 'I' for Inactive)
REMARK    1  A    between atoms: N_1  and  C_2
REMARK    2  A    between atoms: C_2  and  C_3
REMARK    3  A    between atoms: C_3  and  N_4
REMARK    4  A    between atoms: C_3  and  C_26
REMARK    5  A    between atoms: N_4  and  C_5
REMARK    6  A    between atoms: C_5  and  C_6
REMARK    7  A    between atoms: C_9  and  C_10
REMARK    8  A    between atoms: C_10  and  N_11
REMARK    9  A    between atoms: C_12  and  C_14
REMARK                            x       y       z     vdW  Elec       q    Type
REMARK                         _______ _______ _______ _____ _____    ______ ____
ROOT
ATOM      1  C   UNL     1      49.335   8.235  15.806  0.00  0.00    +0.000 A 
ATOM      2  C   UNL     1      50.044   7.525  14.844  0.00  0.00    +0.000 A 
ATOM      3  N   UNL     1      49.638   7.417  13.556  0.00  0.00    +0.000 NA
ATOM      4  C   UNL     1      48.469   8.038  13.255  0.00  0.00    +0.000 A 
ATOM      5  C   UNL     1      47.778   8.782  14.207  0.00  0.00    +0.000 A 
ATOM      6  N   UNL     1      48.190   8.900  15.490  0.00  0.00    +0.000 NA
ENDROOT
BRANCH   1   7
ATOM      7  C   UNL     1      49.818   8.276  17.239  0.00  0.00    +0.000 C 
BRANCH   7   8
ATOM      8  N   UNL     1      49.844   6.926  17.827  0.00  0.00    +0.000 NA
ATOM      9  H   UNL     1      50.531   6.405  17.270  0.00  0.00    +0.000 HD
BRANCH   8  10
ATOM     10  C   UNL     1      48.552   6.215  17.690  0.00  0.00    +0.000 C 
BRANCH  10  11
ATOM     11  C   UNL     1      48.706   4.765  17.238  0.00  0.00    +0.000 A 
ATOM     12  C   UNL     1      49.733   3.979  17.765  0.00  0.00    +0.000 A 
ATOM     13  C   UNL     1      49.838   2.650  17.367  0.00  0.00    +0.000 A 
ATOM     14  C   UNL     1      48.912   2.133  16.469  0.00  0.00    +0.000 A 
ATOM     15  C   UNL     1      47.913   2.970  16.005  0.00  0.00    +0.000 A 
ATOM     16  N   UNL     1      47.788   4.265  16.368  0.00  0.00    +0.000 NA
ENDBRANCH  10  11
BRANCH  10  17
ATOM     17  C   UNL     1      47.630   6.342  18.939  0.00  0.00    +0.000 C 
BRANCH  17  18
ATOM     18  N   UNL     1      46.413   5.517  18.839  0.00  0.00    +0.000 NA
ATOM     19  H   UNL     1      46.689   4.555  18.645  0.00  0.00    +0.000 HD
ATOM     20  H   UNL     1      45.867   5.822  18.034  0.00  0.00    +0.000 HD
ENDBRANCH  17  18
ENDBRANCH  10  17
ENDBRANCH   8  10
ENDBRANCH   7   8
ENDBRANCH   1   7
BRANCH   4  21
ATOM     21  C   UNL     1      47.945   7.924  11.851  0.00  0.00    +0.000 C 
BRANCH  21  22
ATOM     22  N   UNL     1      47.138   6.738  11.680  0.00  0.00    +0.000 N 
ATOM     23  C   UNL     1      45.770   6.795  11.707  0.00  0.00    +0.000 C 
ATOM     24  O   UNL     1      45.165   7.862  11.773  0.00  0.00    +0.000 OA
ATOM     25  H   UNL     1      47.607   5.854  11.860  0.00  0.00    +0.000 HD
BRANCH  23  26
ATOM     26  C   UNL     1      45.056   5.523  11.583  0.00  0.00    +0.000 A 
ATOM     27  C   UNL     1      44.313   5.046  12.654  0.00  0.00    +0.000 A 
ATOM     28  S   UNL     1      43.528   3.567  12.338  0.00  0.00    +0.000 S 
ATOM     29  C   UNL     1      44.186   3.494  10.768  0.00  0.00    +0.000 A 
ATOM     30  N   UNL     1      43.926   2.436   9.955  0.00  0.00    +0.000 NA
ATOM     31  C   UNL     1      44.515   2.492   8.807  0.00  0.00    +0.000 A 
ATOM     32  N   UNL     1      45.335   3.513   8.398  0.00  0.00    +0.000 N 
ATOM     33  C   UNL     1      45.598   4.616   9.176  0.00  0.00    +0.000 A 
ATOM     34  O   UNL     1      46.289   5.541   8.764  0.00  0.00    +0.000 OA
ATOM     35  C   UNL     1      44.977   4.591  10.485  0.00  0.00    +0.000 A 
ATOM     36  H   UNL     1      45.755   3.505   7.480  0.00  0.00    +0.000 HD
ENDBRANCH  23  26
ENDBRANCH  21  22
ENDBRANCH   4  21
TORSDOF 9
ENDMDL
MODEL 5
REMARK VINA RESULT:    -6.743      3.087      7.805
REMARK INTER + INTRA:         -11.624
REMARK INTER:                 -10.103
REMARK INTRA:                  -1.521
REMARK UNBOUND:                -1.530
REMARK  Name = 
REMARK  9 active torsions:
REMARK  status: ('A' for Active; 'I' for Inactive)
REMARK    1  A    between atoms: N_1  and  C_2
REMARK    2  A    between atoms: C_2  and  C_3
REMARK    3  A    between atoms: C_3  and  N_4
REMARK    4  A    between atoms: C_3  and  C_26
REMARK    5  A    between atoms: N_4  and  C_5
REMARK    6  A    between atoms: C_5  and  C_6
REMARK    7  A    between atoms: C_9  and  C_10
REMARK    8  A    between atoms: C_10  and  N_11
REMARK    9  A    between atoms: C_12  and  C_14
REMARK                            x       y       z     vdW  Elec       q    Type
REMARK                         _______ _______ _______ _____ _____    ______ ____
ROOT
ATOM      1  C   UNL     1      48.835   7.514  16.088  0.00  0.00    +0.000 A 
ATOM      2  C   UNL     1      48.412   8.740  15.587  0.00  0.00    +0.000 A 
ATOM      3  N   UNL     1      48.208   8.968  14.268  0.00  0.00    +0.000 NA
ATOM      4  C   UNL     1      48.462   7.919  13.444  0.00  0.00    +0.000 A 
ATOM      5  C   UNL     1      48.846   6.680  13.947  0.00  0.00    +0.000 A 
ATOM      6  N   UNL     1      49.038   6.449  15.267  0.00  0.00    +0.000 NA
ENDROOT
BRANCH   1   7
ATOM      7  C   UNL     1      49.091   7.339  17.569  0.00  0.00    +0.000 C 
BRANCH   7   8
ATOM      8  N   UNL     1      47.906   6.793  18.251  0.00  0.00    +0.000 NA
ATOM      9  H   UNL     1      47.620   7.521  18.916  0.00  0.00    +0.000 HD
BRANCH   8  10
ATOM     10  C   UNL     1      48.208   5.581  19.046  0.00  0.00    +0.000 C 
BRANCH  10  11
ATOM     11  C   UNL     1      48.520   4.357  18.186  0.00  0.00    +0.000 A 
ATOM     12  C   UNL     1      47.535   3.826  17.352  0.00  0.00    +0.000 A 
ATOM     13  C   UNL     1      47.848   2.732  16.551  0.00  0.00    +0.000 A 
ATOM     14  C   UNL     1      49.133   2.207  16.588  0.00  0.00    +0.000 A 
ATOM     15  C   UNL     1      50.059   2.799  17.428  0.00  0.00    +0.000 A 
ATOM     16  N   UNL     1      49.784   3.858  18.221  0.00  0.00    +0.000 NA
ENDBRANCH  10  11
BRANCH  10  17
ATOM     17  C   UNL     1      49.281   5.806  20.151  0.00  0.00    +0.000 C 
BRANCH  17  18
ATOM     18  N   UNL     1      49.483   4.622  21.005  0.00  0.00    +0.000 NA
ATOM     19  H   UNL     1      49.738   4.938  21.941  0.00  0.00    +0.000 HD
ATOM     20  H   UNL     1      50.282   4.093  20.659  0.00  0.00    +0.000 HD
ENDBRANCH  17  18
ENDBRANCH  10  17
ENDBRANCH   8  10
ENDBRANCH   7   8
ENDBRANCH   1   7
BRANCH   4  21
ATOM     21  C   UNL     1      48.290   8.120  11.965  0.00  0.00    +0.000 C 
BRANCH  21  22
ATOM     22  N   UNL     1      47.591   7.011  11.356  0.00  0.00    +0.000 N 
ATOM     23  C   UNL     1      46.225   6.920  11.397  0.00  0.00    +0.000 C 
ATOM     24  O   UNL     1      45.526   7.820  11.856  0.00  0.00    +0.000 OA
ATOM     25  H   UNL     1      48.146   6.174  11.193  0.00  0.00    +0.000 HD
BRANCH  23  26
ATOM     26  C   UNL     1      45.628   5.723  10.800  0.00  0.00    +0.000 A 
ATOM     27  C   UNL     1      45.787   5.482   9.443  0.00  0.00    +0.000 A 
ATOM     28  S   UNL     1      45.051   4.040   8.913  0.00  0.00    +0.000 S 
ATOM     29  C   UNL     1      44.460   3.707  10.476  0.00  0.00    +0.000 A 
ATOM     30  N   UNL     1      43.701   2.603  10.711  0.00  0.00    +0.000 NA
ATOM     31  C   UNL     1      43.292   2.490  11.932  0.00  0.00    +0.000 A 
ATOM     32  N   UNL     1      43.580   3.379  12.937  0.00  0.00    +0.000 N 
ATOM     33  C   UNL     1      44.369   4.489  12.751  0.00  0.00    +0.000 A 
ATOM     34  O   UNL     1      44.656   5.235  13.679  0.00  0.00    +0.000 OA
ATOM     35  C   UNL     1      44.836   4.672  11.390  0.00  0.00    +0.000 A 
ATOM     36  H   UNL     1      43.240   3.226  13.876  0.00  0.00    +0.000 HD
ENDBRANCH  23  26
ENDBRANCH  21  22
ENDBRANCH   4  21
TORSDOF 9
ENDMDL
MODEL 6
REMARK VINA RESULT:    -6.705      2.907      8.212
REMARK INTER + INTRA:         -11.566
REMARK INTER:                 -10.172
REMARK INTRA:                  -1.395
REMARK UNBOUND:                -1.530
REMARK  Name = 
REMARK  9 active torsions:
REMARK  status: ('A' for Active; 'I' for Inactive)
REMARK    1  A    between atoms: N_1  and  C_2
REMARK    2  A    between atoms: C_2  and  C_3
REMARK    3  A    between atoms: C_3  and  N_4
REMARK    4  A    between atoms: C_3  and  C_26
REMARK    5  A    between atoms: N_4  and  C_5
REMARK    6  A    between atoms: C_5  and  C_6
REMARK    7  A    between atoms: C_9  and  C_10
REMARK    8  A    between atoms: C_10  and  N_11
REMARK    9  A    between atoms: C_12  and  C_14
REMARK                            x       y       z     vdW  Elec       q    Type
REMARK                         _______ _______ _______ _____ _____    ______ ____
ROOT
ATOM      1  C   UNL     1      50.192   7.396  15.257  0.00  0.00    +0.000 A 
ATOM      2  C   UNL     1      50.332   8.473  14.389  0.00  0.00    +0.000 A 
ATOM      3  N   UNL     1      49.550   8.651  13.298  0.00  0.00    +0.000 NA
ATOM      4  C   UNL     1      48.614   7.690  13.085  0.00  0.00    +0.000 A 
ATOM      5  C   UNL     1      48.445   6.634  13.974  0.00  0.00    +0.000 A 
ATOM      6  N   UNL     1      49.220   6.463  15.070  0.00  0.00    +0.000 NA
ENDROOT
BRANCH   1   7
ATOM      7  C   UNL     1      51.132   7.231  16.431  0.00  0.00    +0.000 C 
BRANCH   7   8
ATOM      8  N   UNL     1      51.514   5.820  16.608  0.00  0.00    +0.000 NA
ATOM      9  H   UNL     1      51.053   5.319  15.840  0.00  0.00    +0.000 HD
BRANCH   8  10
ATOM     10  C   UNL     1      50.999   5.239  17.869  0.00  0.00    +0.000 C 
BRANCH  10  11
ATOM     11  C   UNL     1      49.660   4.523  17.701  0.00  0.00    +0.000 A 
ATOM     12  C   UNL     1      48.502   5.080  18.248  0.00  0.00    +0.000 A 
ATOM     13  C   UNL     1      47.286   4.432  18.056  0.00  0.00    +0.000 A 
ATOM     14  C   UNL     1      47.250   3.259  17.313  0.00  0.00    +0.000 A 
ATOM     15  C   UNL     1      48.437   2.779  16.788  0.00  0.00    +0.000 A 
ATOM     16  N   UNL     1      49.633   3.383  16.962  0.00  0.00    +0.000 NA
ENDBRANCH  10  11
BRANCH  10  17
ATOM     17  C   UNL     1      52.038   4.361  18.627  0.00  0.00    +0.000 C 
BRANCH  17  18
ATOM     18  N   UNL     1      52.481   3.193  17.846  0.00  0.00    +0.000 NA
ATOM     19  H   UNL     1      52.325   2.353  18.403  0.00  0.00    +0.000 HD
ATOM     20  H   UNL     1      53.488   3.251  17.700  0.00  0.00    +0.000 HD
ENDBRANCH  17  18
ENDBRANCH  10  17
ENDBRANCH   8  10
ENDBRANCH   7   8
ENDBRANCH   1   7
BRANCH   4  21
ATOM     21  C   UNL     1      47.737   7.809  11.870  0.00  0.00    +0.000 C 
BRANCH  21  22
ATOM     22  N   UNL     1      46.994   6.594  11.629  0.00  0.00    +0.000 N 
ATOM     23  C   UNL     1      45.631   6.556  11.753  0.00  0.00    +0.000 C 
ATOM     24  O   UNL     1      44.968   7.567  11.969  0.00  0.00    +0.000 OA
ATOM     25  H   UNL     1      47.528   5.730  11.686  0.00  0.00    +0.000 HD
BRANCH  23  26
ATOM     26  C   UNL     1      44.988   5.256  11.545  0.00  0.00    +0.000 A 
ATOM     27  C   UNL     1      44.281   4.667  12.584  0.00  0.00    +0.000 A 
ATOM     28  S   UNL     1      43.578   3.170  12.171  0.00  0.00    +0.000 S 
ATOM     29  C   UNL     1      44.227   3.241  10.597  0.00  0.00    +0.000 A 
ATOM     30  N   UNL     1      44.020   2.228   9.714  0.00  0.00    +0.000 NA
ATOM     31  C   UNL     1      44.596   2.396   8.570  0.00  0.00    +0.000 A 
ATOM     32  N   UNL     1      45.353   3.488   8.229  0.00  0.00    +0.000 N 
ATOM     33  C   UNL     1      45.561   4.548   9.079  0.00  0.00    +0.000 A 
ATOM     34  O   UNL     1      46.195   5.536   8.728  0.00  0.00    +0.000 OA
ATOM     35  C   UNL     1      44.952   4.399  10.386  0.00  0.00    +0.000 A 
ATOM     36  H   UNL     1      45.766   3.566   7.311  0.00  0.00    +0.000 HD
ENDBRANCH  23  26
ENDBRANCH  21  22
ENDBRANCH   4  21
TORSDOF 9
ENDMDL
MODEL 7
REMARK VINA RESULT:    -6.482      3.556      8.529
REMARK INTER + INTRA:         -11.232
REMARK INTER:                 -10.244
REMARK INTRA:                  -0.988
REMARK UNBOUND:                -1.530
REMARK  Name = 
REMARK  9 active torsions:
REMARK  status: ('A' for Active; 'I' for Inactive)
REMARK    1  A    between atoms: N_1  and  C_2
REMARK    2  A    between atoms: C_2  and  C_3
REMARK    3  A    between atoms: C_3  and  N_4
REMARK    4  A    between atoms: C_3  and  C_26
REMARK    5  A    between atoms: N_4  and  C_5
REMARK    6  A    between atoms: C_5  and  C_6
REMARK    7  A    between atoms: C_9  and  C_10
REMARK    8  A    between atoms: C_10  and  N_11
REMARK    9  A    between atoms: C_12  and  C_14
REMARK                            x       y       z     vdW  Elec       q    Type
REMARK                         _______ _______ _______ _____ _____    ______ ____
ROOT
ATOM      1  C   UNL     1      48.830   5.168  17.332  0.00  0.00    +0.000 A 
ATOM      2  C   UNL     1      47.925   4.612  16.434  0.00  0.00    +0.000 A 
ATOM      3  N   UNL     1      47.655   5.156  15.224  0.00  0.00    +0.000 NA
ATOM      4  C   UNL     1      48.317   6.307  14.937  0.00  0.00    +0.000 A 
ATOM      5  C   UNL     1      49.252   6.843  15.817  0.00  0.00    +0.000 A 
ATOM      6  N   UNL     1      49.530   6.292  17.021  0.00  0.00    +0.000 NA
ENDROOT
BRANCH   1   7
ATOM      7  C   UNL     1      49.049   4.537  18.689  0.00  0.00    +0.000 C 
BRANCH   7   8
ATOM      8  N   UNL     1      50.458   4.152  18.873  0.00  0.00    +0.000 NA
ATOM      9  H   UNL     1      50.979   5.037  18.879  0.00  0.00    +0.000 HD
BRANCH   8  10
ATOM     10  C   UNL     1      50.986   3.352  17.743  0.00  0.00    +0.000 C 
BRANCH  10  11
ATOM     11  C   UNL     1      52.503   3.177  17.785  0.00  0.00    +0.000 A 
ATOM     12  C   UNL     1      53.054   1.894  17.776  0.00  0.00    +0.000 A 
ATOM     13  C   UNL     1      54.438   1.754  17.780  0.00  0.00    +0.000 A 
ATOM     14  C   UNL     1      55.237   2.890  17.777  0.00  0.00    +0.000 A 
ATOM     15  C   UNL     1      54.617   4.127  17.769  0.00  0.00    +0.000 A 
ATOM     16  N   UNL     1      53.277   4.295  17.770  0.00  0.00    +0.000 NA
ENDBRANCH  10  11
BRANCH  10  17
ATOM     17  C   UNL     1      50.249   1.997  17.534  0.00  0.00    +0.000 C 
BRANCH  17  18
ATOM     18  N   UNL     1      49.834   1.779  16.137  0.00  0.00    +0.000 NA
ATOM     19  H   UNL     1      49.170   2.509  15.879  0.00  0.00    +0.000 HD
ATOM     20  H   UNL     1      49.324   0.899  16.073  0.00  0.00    +0.000 HD
ENDBRANCH  17  18
ENDBRANCH  10  17
ENDBRANCH   8  10
ENDBRANCH   7   8
ENDBRANCH   1   7
BRANCH   4  21
ATOM     21  C   UNL     1      48.034   6.980  13.624  0.00  0.00    +0.000 C 
BRANCH  21  22
ATOM     22  N   UNL     1      47.380   6.085  12.697  0.00  0.00    +0.000 N 
ATOM     23  C   UNL     1      46.390   6.525  11.859  0.00  0.00    +0.000 C 
ATOM     24  O   UNL     1      46.086   7.712  11.777  0.00  0.00    +0.000 OA
ATOM     25  H   UNL     1      47.449   5.094  12.916  0.00  0.00    +0.000 HD
BRANCH  23  26
ATOM     26  C   UNL     1      45.756   5.518  11.005  0.00  0.00    +0.000 A 
ATOM     27  C   UNL     1      45.859   5.626   9.625  0.00  0.00    +0.000 A 
ATOM     28  S   UNL     1      45.085   4.365   8.781  0.00  0.00    +0.000 S 
ATOM     29  C   UNL     1      44.552   3.650  10.233  0.00  0.00    +0.000 A 
ATOM     30  N   UNL     1      43.790   2.524  10.214  0.00  0.00    +0.000 NA
ATOM     31  C   UNL     1      43.428   2.108  11.382  0.00  0.00    +0.000 A 
ATOM     32  N   UNL     1      43.766   2.714  12.566  0.00  0.00    +0.000 N 
ATOM     33  C   UNL     1      44.560   3.834  12.632  0.00  0.00    +0.000 A 
ATOM     34  O   UNL     1      44.892   4.322  13.706  0.00  0.00    +0.000 OA
ATOM     35  C   UNL     1      44.976   4.354  11.344  0.00  0.00    +0.000 A 
ATOM     36  H   UNL     1      43.462   2.331  13.449  0.00  0.00    +0.000 HD
ENDBRANCH  23  26
ENDBRANCH  21  22
ENDBRANCH   4  21
TORSDOF 9
ENDMDL
MODEL 8
REMARK VINA RESULT:    -5.652      5.070      7.861
REMARK INTER + INTRA:          -9.991
REMARK INTER:                  -8.738
REMARK INTRA:                  -1.253
REMARK UNBOUND:                -1.530
REMARK  Name = 
REMARK  9 active torsions:
REMARK  status: ('A' for Active; 'I' for Inactive)
REMARK    1  A    between atoms: N_1  and  C_2
REMARK    2  A    between atoms: C_2  and  C_3
REMARK    3  A    between atoms: C_3  and  N_4
REMARK    4  A    between atoms: C_3  and  C_26
REMARK    5  A    between atoms: N_4  and  C_5
REMARK    6  A    between atoms: C_5  and  C_6
REMARK    7  A    between atoms: C_9  and  C_10
REMARK    8  A    between atoms: C_10  and  N_11
REMARK    9  A    between atoms: C_12  and  C_14
REMARK                            x       y       z     vdW  Elec       q    Type
REMARK                         _______ _______ _______ _____ _____    ______ ____
ROOT
ATOM      1  C   UNL     1      50.515   8.841  12.072  0.00  0.00    +0.000 A 
ATOM      2  C   UNL     1      49.875   7.675  11.667  0.00  0.00    +0.000 A 
ATOM      3  N   UNL     1      48.562   7.434  11.894  0.00  0.00    +0.000 NA
ATOM      4  C   UNL     1      47.895   8.407  12.568  0.00  0.00    +0.000 A 
ATOM      5  C   UNL     1      48.523   9.592  12.938  0.00  0.00    +0.000 A 
ATOM      6  N   UNL     1      49.833   9.837  12.700  0.00  0.00    +0.000 NA
ENDROOT
BRANCH   1   7
ATOM      7  C   UNL     1      51.997   9.026  11.830  0.00  0.00    +0.000 C 
BRANCH   7   8
ATOM      8  N   UNL     1      52.667   7.730  11.635  0.00  0.00    +0.000 NA
ATOM      9  H   UNL     1      53.047   7.484  12.557  0.00  0.00    +0.000 HD
BRANCH   8  10
ATOM     10  C   UNL     1      53.817   7.811  10.705  0.00  0.00    +0.000 C 
BRANCH  10  11
ATOM     11  C   UNL     1      53.619   6.998   9.428  0.00  0.00    +0.000 A 
ATOM     12  C   UNL     1      54.404   5.867   9.196  0.00  0.00    +0.000 A 
ATOM     13  C   UNL     1      54.187   5.119   8.044  0.00  0.00    +0.000 A 
ATOM     14  C   UNL     1      53.186   5.504   7.161  0.00  0.00    +0.000 A 
ATOM     15  C   UNL     1      52.438   6.628   7.468  0.00  0.00    +0.000 A 
ATOM     16  N   UNL     1      52.629   7.376   8.576  0.00  0.00    +0.000 NA
ENDBRANCH  10  11
BRANCH  10  17
ATOM     17  C   UNL     1      54.278   9.268  10.404  0.00  0.00    +0.000 C 
BRANCH  17  18
ATOM     18  N   UNL     1      54.670   9.466   8.997  0.00  0.00    +0.000 NA
ATOM     19  H   UNL     1      55.408   8.799   8.770  0.00  0.00    +0.000 HD
ATOM     20  H   UNL     1      55.084  10.392   8.893  0.00  0.00    +0.000 HD
ENDBRANCH  17  18
ENDBRANCH  10  17
ENDBRANCH   8  10
ENDBRANCH   7   8
ENDBRANCH   1   7
BRANCH   4  21
ATOM     21  C   UNL     1      46.443   8.185  12.884  0.00  0.00    +0.000 C 
BRANCH  21  22
ATOM     22  N   UNL     1      46.021   6.848  12.533  0.00  0.00    +0.000 N 
ATOM     23  C   UNL     1      44.940   6.632  11.720  0.00  0.00    +0.000 C 
ATOM     24  O   UNL     1      44.345   7.554  11.169  0.00  0.00    +0.000 OA
ATOM     25  H   UNL     1      46.342   6.106  13.151  0.00  0.00    +0.000 HD
BRANCH  23  26
ATOM     26  C   UNL     1      44.567   5.236  11.480  0.00  0.00    +0.000 A 
ATOM     27  C   UNL     1      43.828   4.550  12.433  0.00  0.00    +0.000 A 
ATOM     28  S   UNL     1      43.460   2.947  11.990  0.00  0.00    +0.000 S 
ATOM     29  C   UNL     1      44.310   3.102  10.522  0.00  0.00    +0.000 A 
ATOM     30  N   UNL     1      44.411   2.053   9.663  0.00  0.00    +0.000 NA
ATOM     31  C   UNL     1      45.111   2.299   8.605  0.00  0.00    +0.000 A 
ATOM     32  N   UNL     1      45.712   3.500   8.328  0.00  0.00    +0.000 N 
ATOM     33  C   UNL     1      45.608   4.596   9.152  0.00  0.00    +0.000 A 
ATOM     34  O   UNL     1      46.108   5.673   8.852  0.00  0.00    +0.000 OA
ATOM     35  C   UNL     1      44.849   4.365  10.366  0.00  0.00    +0.000 A 
ATOM     36  H   UNL     1      46.235   3.633   7.475  0.00  0.00    +0.000 HD
ENDBRANCH  23  26
ENDBRANCH  21  22
ENDBRANCH   4  21
TORSDOF 9
ENDMDL
MODEL 9
REMARK VINA RESULT:    -5.257      3.883      6.176
REMARK INTER + INTRA:          -9.400
REMARK INTER:                  -8.494
REMARK INTRA:                  -0.906
REMARK UNBOUND:                -1.530
REMARK  Name = 
REMARK  9 active torsions:
REMARK  status: ('A' for Active; 'I' for Inactive)
REMARK    1  A    between atoms: N_1  and  C_2
REMARK    2  A    between atoms: C_2  and  C_3
REMARK    3  A    between atoms: C_3  and  N_4
REMARK    4  A    between atoms: C_3  and  C_26
REMARK    5  A    between atoms: N_4  and  C_5
REMARK    6  A    between atoms: C_5  and  C_6
REMARK    7  A    between atoms: C_9  and  C_10
REMARK    8  A    between atoms: C_10  and  N_11
REMARK    9  A    between atoms: C_12  and  C_14
REMARK                            x       y       z     vdW  Elec       q    Type
REMARK                         _______ _______ _______ _____ _____    ______ ____
ROOT
ATOM      1  C   UNL     1      47.977   4.749  16.060  0.00  0.00    +0.000 A 
ATOM      2  C   UNL     1      48.518   5.978  16.419  0.00  0.00    +0.000 A 
ATOM      3  N   UNL     1      49.262   6.160  17.536  0.00  0.00    +0.000 NA
ATOM      4  C   UNL     1      49.438   5.058  18.310  0.00  0.00    +0.000 A 
ATOM      5  C   UNL     1      48.931   3.819  17.931  0.00  0.00    +0.000 A 
ATOM      6  N   UNL     1      48.198   3.635  16.809  0.00  0.00    +0.000 NA
ENDROOT
BRANCH   1   7
ATOM      7  C   UNL     1      47.113   4.624  14.824  0.00  0.00    +0.000 C 
BRANCH   7   8
ATOM      8  N   UNL     1      46.948   5.928  14.160  0.00  0.00    +0.000 NA
ATOM      9  H   UNL     1      46.102   6.335  14.575  0.00  0.00    +0.000 HD
BRANCH   8  10
ATOM     10  C   UNL     1      46.694   5.803  12.706  0.00  0.00    +0.000 C 
BRANCH  10  11
ATOM     11  C   UNL     1      45.224   5.561  12.368  0.00  0.00    +0.000 A 
ATOM     12  C   UNL     1      44.485   6.562  11.735  0.00  0.00    +0.000 A 
ATOM     13  C   UNL     1      43.157   6.312  11.404  0.00  0.00    +0.000 A 
ATOM     14  C   UNL     1      42.604   5.070  11.696  0.00  0.00    +0.000 A 
ATOM     15  C   UNL     1      43.407   4.125  12.310  0.00  0.00    +0.000 A 
ATOM     16  N   UNL     1      44.697   4.340  12.647  0.00  0.00    +0.000 NA
ENDBRANCH  10  11
BRANCH  10  17
ATOM     17  C   UNL     1      47.304   6.960  11.861  0.00  0.00    +0.000 C 
BRANCH  17  18
ATOM     18  N   UNL     1      48.721   7.216  12.174  0.00  0.00    +0.000 NA
ATOM     19  H   UNL     1      49.183   7.554  11.330  0.00  0.00    +0.000 HD
ATOM     20  H   UNL     1      49.175   6.335  12.411  0.00  0.00    +0.000 HD
ENDBRANCH  17  18
ENDBRANCH  10  17
ENDBRANCH   8  10
ENDBRANCH   7   8
ENDBRANCH   1   7
BRANCH   4  21
ATOM     21  C   UNL     1      50.224   5.202  19.583  0.00  0.00    +0.000 C 
BRANCH  21  22
ATOM     22  N   UNL     1      51.277   4.217  19.672  0.00  0.00    +0.000 N 
ATOM     23  C   UNL     1      52.531   4.468  19.183  0.00  0.00    +0.000 C 
ATOM     24  O   UNL     1      52.851   5.570  18.744  0.00  0.00    +0.000 OA
ATOM     25  H   UNL     1      50.973   3.256  19.807  0.00  0.00    +0.000 HD
BRANCH  23  26
ATOM     26  C   UNL     1      53.503   3.375  19.273  0.00  0.00    +0.000 A 
ATOM     27  C   UNL     1      54.621   3.518  20.083  0.00  0.00    +0.000 A 
ATOM     28  S   UNL     1      55.637   2.150  20.092  0.00  0.00    +0.000 S 
ATOM     29  C   UNL     1      54.635   1.334  18.981  0.00  0.00    +0.000 A 
ATOM     30  N   UNL     1      54.961   0.091  18.535  0.00  0.00    +0.000 NA
ATOM     31  C   UNL     1      54.132  -0.397  17.672  0.00  0.00    +0.000 A 
ATOM     32  N   UNL     1      53.007   0.244  17.221  0.00  0.00    +0.000 N 
ATOM     33  C   UNL     1      52.623   1.486  17.669  0.00  0.00    +0.000 A 
ATOM     34  O   UNL     1      51.583   2.012  17.291  0.00  0.00    +0.000 OA
ATOM     35  C   UNL     1      53.533   2.087  18.625  0.00  0.00    +0.000 A 
ATOM     36  H   UNL     1      52.391  -0.198  16.555  0.00  0.00    +0.000 HD
ENDBRANCH  23  26
ENDBRANCH  21  22
ENDBRANCH   4  21
TORSDOF 9
ENDMDL
