MODEL 1
REMARK VINA RESULT:    -8.232      0.000      0.000
REMARK INTER + INTRA:         -10.868
REMARK INTER:                 -10.638
REMARK INTRA:                  -0.230
REMARK UNBOUND:                -0.230
REMARK  Name = 
REMARK  8 active torsions:
REMARK  status: ('A' for Active; 'I' for Inactive)
REMARK    1  A    between atoms: C_1  and  C_2
REMARK    2  A    between atoms: C_2  and  C_3
REMARK    3  A    between atoms: C_2  and  C_4
REMARK    4  A    between atoms: C_2  and  C_5
REMARK    5  A    between atoms: C_8  and  C_9
REMARK    6  A    between atoms: C_9  and  O_10
REMARK    7  A    between atoms: O_10  and  C_11
REMARK    8  A    between atoms: C_14  and  C_15
REMARK                            x       y       z     vdW  Elec       q    Type
REMARK                         _______ _______ _______ _____ _____    ______ ____
ROOT
ATOM      1  C   UNL     1      43.526   2.660  11.220  0.00  0.00    +0.000 C 
ENDROOT
BRANCH   1   5
ATOM      2  C   UNL     1      44.964   5.979  13.286  0.00  0.00    +0.000 C 
ATOM      3  N   UNL     1      43.511   5.899  13.214  0.00  0.00    +0.000 NA
ATOM      4  C   UNL     1      43.018   4.889  12.298  0.00  0.00    +0.000 C 
ATOM      5  C   UNL     1      43.690   3.527  12.477  0.00  0.00    +0.000 C 
ATOM      6  C   UNL     1      45.183   3.637  12.795  0.00  0.00    +0.000 C 
ATOM      7  O   UNL     1      45.520   4.718  13.641  0.00  0.00    +0.000 OA
ATOM      8  H   UNL     1      43.116   6.809  12.999  0.00  0.00    +0.000 HD
BRANCH   2  10
ATOM      9  C   UNL     1      45.317   8.246  12.172  0.00  0.00    +0.000 C 
ATOM     10  C   UNL     1      45.729   6.756  12.144  0.00  0.00    +0.000 C 
ATOM     11  C   UNL     1      45.478   6.259  10.707  0.00  0.00    +0.000 C 
ATOM     12  C   UNL     1      47.251   6.678  12.398  0.00  0.00    +0.000 C 
ENDBRANCH   2  10
ENDBRANCH   1   5
BRANCH   1  13
ATOM     13  O   UNL     1      43.492   3.458  10.029  0.00  0.00    +0.000 OA
BRANCH  13  14
ATOM     14  C   UNL     1      44.499   3.111   9.146  0.00  0.00    +0.000 A 
ATOM     15  C   UNL     1      44.932   4.062   8.225  0.00  0.00    +0.000 A 
ATOM     16  N   UNL     1      45.933   3.832   7.333  0.00  0.00    +0.000 NA
ATOM     17  C   UNL     1      46.485   2.586   7.408  0.00  0.00    +0.000 A 
ATOM     18  C   UNL     1      46.052   1.634   8.320  0.00  0.00    +0.000 A 
ATOM     19  N   UNL     1      45.052   1.875   9.207  0.00  0.00    +0.000 NA
BRANCH  17  20
ATOM     20  C   UNL     1      47.608   2.247   6.486  0.00  0.00    +0.000 C 
ATOM     21  N   UNL     1      47.775   3.086   5.417  0.00  0.00    +0.000 N 
ATOM     22  O   UNL     1      48.336   1.281   6.671  0.00  0.00    +0.000 OA
ATOM     23  H   UNL     1      47.167   3.881   5.287  0.00  0.00    +0.000 HD
ATOM     24  H   UNL     1      48.532   2.909   4.767  0.00  0.00    +0.000 HD
ENDBRANCH  17  20
ENDBRANCH  13  14
ENDBRANCH   1  13
TORSDOF 5
ENDMDL
MODEL 2
REMARK VINA RESULT:    -6.863      1.676      2.473
REMARK INTER + INTRA:          -9.099
REMARK INTER:                  -9.155
REMARK INTRA:                   0.055
REMARK UNBOUND:                -0.230
REMARK  Name = 
REMARK  8 active torsions:
REMARK  status: ('A' for Active; 'I' for Inactive)
REMARK    1  A    between atoms: C_1  and  C_2
REMARK    2  A    between atoms: C_2  and  C_3
REMARK    3  A    between atoms: C_2  and  C_4
REMARK    4  A    between atoms: C_2  and  C_5
REMARK    5  A    between atoms: C_8  and  C_9
REMARK    6  A    between atoms: C_9  and  O_10
REMARK    7  A    between atoms: O_10  and  C_11
REMARK    8  A    between atoms: C_14  and  C_15
REMARK                            x       y       z     vdW  Elec       q    Type
REMARK                         _______ _______ _______ _____ _____    ______ ____
ROOT
ATOM      1  C   UNL     1      44.235   5.641  10.725  0.00  0.00    +0.000 C 
ENDROOT
BRANCH   1   5
ATOM      2  C   UNL     1      47.372   6.896  13.161  0.00  0.00    +0.000 C 
ATOM      3  N   UNL     1      46.438   5.984  13.806  0.00  0.00    +0.000 NA
ATOM      4  C   UNL     1      45.227   5.741  13.047  0.00  0.00    +0.000 C 
ATOM      5  C   UNL     1      45.489   5.400  11.579  0.00  0.00    +0.000 C 
ATOM      6  C   UNL     1      46.644   6.204  10.978  0.00  0.00    +0.000 C 
ATOM      7  O   UNL     1      47.722   6.425  11.865  0.00  0.00    +0.000 OA
ATOM      8  H   UNL     1      46.221   6.303  14.745  0.00  0.00    +0.000 HD
BRANCH   2  10
ATOM      9  C   UNL     1      47.509   8.954  14.662  0.00  0.00    +0.000 C 
ATOM     10  C   UNL     1      47.093   8.448  13.261  0.00  0.00    +0.000 C 
ATOM     11  C   UNL     1      45.630   8.884  13.054  0.00  0.00    +0.000 C 
ATOM     12  C   UNL     1      47.948   9.194  12.212  0.00  0.00    +0.000 C 
ENDBRANCH   2  10
ENDBRANCH   1   5
BRANCH   1  13
ATOM     13  O   UNL     1      43.725   4.418  10.176  0.00  0.00    +0.000 OA
BRANCH  13  14
ATOM     14  C   UNL     1      44.654   3.789   9.366  0.00  0.00    +0.000 A 
ATOM     15  C   UNL     1      44.886   2.428   9.556  0.00  0.00    +0.000 A 
ATOM     16  N   UNL     1      45.757   1.710   8.797  0.00  0.00    +0.000 NA
ATOM     17  C   UNL     1      46.393   2.430   7.828  0.00  0.00    +0.000 A 
ATOM     18  C   UNL     1      46.169   3.787   7.641  0.00  0.00    +0.000 A 
ATOM     19  N   UNL     1      45.296   4.494   8.404  0.00  0.00    +0.000 NA
BRANCH  17  20
ATOM     20  C   UNL     1      47.351   1.724   6.928  0.00  0.00    +0.000 C 
ATOM     21  N   UNL     1      48.406   2.471   6.477  0.00  0.00    +0.000 N 
ATOM     22  O   UNL     1      47.207   0.550   6.612  0.00  0.00    +0.000 OA
ATOM     23  H   UNL     1      48.509   3.436   6.755  0.00  0.00    +0.000 HD
ATOM     24  H   UNL     1      49.093   2.037   5.873  0.00  0.00    +0.000 HD
ENDBRANCH  17  20
ENDBRANCH  13  14
ENDBRANCH   1  13
TORSDOF 5
ENDMDL
MODEL 3
REMARK VINA RESULT:    -6.667      1.789      2.738
REMARK INTER + INTRA:          -8.846
REMARK INTER:                  -8.696
REMARK INTRA:                  -0.150
REMARK UNBOUND:                -0.230
REMARK  Name = 
REMARK  8 active torsions:
REMARK  status: ('A' for Active; 'I' for Inactive)
REMARK    1  A    between atoms: C_1  and  C_2
REMARK    2  A    between atoms: C_2  and  C_3
REMARK    3  A    between atoms: C_2  and  C_4
REMARK    4  A    between atoms: C_2  and  C_5
REMARK    5  A    between atoms: C_8  and  C_9
REMARK    6  A    between atoms: C_9  and  O_10
REMARK    7  A    between atoms: O_10  and  C_11
REMARK    8  A    between atoms: C_14  and  C_15
REMARK                            x       y       z     vdW  Elec       q    Type
REMARK                         _______ _______ _______ _____ _____    ______ ____
ROOT
ATOM      1  C   UNL     1      45.092   6.212  10.469  0.00  0.00    +0.000 C 
ENDROOT
BRANCH   1   5
ATOM      2  C   UNL     1      47.444   7.555  13.634  0.00  0.00    +0.000 C 
ATOM      3  N   UNL     1      46.154   8.222  13.518  0.00  0.00    +0.000 NA
ATOM      4  C   UNL     1      45.445   7.932  12.287  0.00  0.00    +0.000 C 
ATOM      5  C   UNL     1      45.385   6.439  11.960  0.00  0.00    +0.000 C 
ATOM      6  C   UNL     1      46.677   5.699  12.315  0.00  0.00    +0.000 C 
ATOM      7  O   UNL     1      47.295   6.147  13.505  0.00  0.00    +0.000 OA
ATOM      8  H   UNL     1      46.259   9.224  13.649  0.00  0.00    +0.000 HD
BRANCH   2  10
ATOM      9  C   UNL     1      48.491   9.706  12.748  0.00  0.00    +0.000 C 
ATOM     10  C   UNL     1      48.678   8.176  12.869  0.00  0.00    +0.000 C 
ATOM     11  C   UNL     1      48.921   7.650  11.442  0.00  0.00    +0.000 C 
ATOM     12  C   UNL     1      49.969   7.918  13.679  0.00  0.00    +0.000 C 
ENDBRANCH   2  10
ENDBRANCH   1   5
BRANCH   1  13
ATOM     13  O   UNL     1      44.482   4.936  10.238  0.00  0.00    +0.000 OA
BRANCH  13  14
ATOM     14  C   UNL     1      45.217   4.165   9.354  0.00  0.00    +0.000 A 
ATOM     15  C   UNL     1      45.171   2.779   9.486  0.00  0.00    +0.000 A 
ATOM     16  N   UNL     1      45.834   1.931   8.654  0.00  0.00    +0.000 NA
ATOM     17  C   UNL     1      46.555   2.546   7.673  0.00  0.00    +0.000 A 
ATOM     18  C   UNL     1      46.608   3.927   7.542  0.00  0.00    +0.000 A 
ATOM     19  N   UNL     1      45.941   4.764   8.378  0.00  0.00    +0.000 NA
BRANCH  17  20
ATOM     20  C   UNL     1      47.298   1.699   6.695  0.00  0.00    +0.000 C 
ATOM     21  N   UNL     1      48.224   2.350   5.925  0.00  0.00    +0.000 N 
ATOM     22  O   UNL     1      47.096   0.497   6.585  0.00  0.00    +0.000 OA
ATOM     23  H   UNL     1      48.380   3.341   6.036  0.00  0.00    +0.000 HD
ATOM     24  H   UNL     1      48.767   1.819   5.254  0.00  0.00    +0.000 HD
ENDBRANCH  17  20
ENDBRANCH  13  14
ENDBRANCH   1  13
TORSDOF 5
ENDMDL
MODEL 4
REMARK VINA RESULT:    -6.237      3.319      6.987
REMARK INTER + INTRA:          -8.291
REMARK INTER:                  -8.134
REMARK INTRA:                  -0.157
REMARK UNBOUND:                -0.230
REMARK  Name = 
REMARK  8 active torsions:
REMARK  status: ('A' for Active; 'I' for Inactive)
REMARK    1  A    between atoms: C_1  and  C_2
REMARK    2  A    between atoms: C_2  and  C_3
REMARK    3  A    between atoms: C_2  and  C_4
REMARK    4  A    between atoms: C_2  and  C_5
REMARK    5  A    between atoms: C_8  and  C_9
REMARK    6  A    between atoms: C_9  and  O_10
REMARK    7  A    between atoms: O_10  and  C_11
REMARK    8  A    between atoms: C_14  and  C_15
REMARK                            x       y       z     vdW  Elec       q    Type
REMARK                         _______ _______ _______ _____ _____    ______ ____
ROOT
ATOM      1  C   UNL     1      45.967   7.092  12.739  0.00  0.00    +0.000 C 
ENDROOT
BRANCH   1   5
ATOM      2  C   UNL     1      44.112   4.594   9.969  0.00  0.00    +0.000 C 
ATOM      3  N   UNL     1      43.208   5.507  10.655  0.00  0.00    +0.000 NA
ATOM      4  C   UNL     1      43.806   6.199  11.781  0.00  0.00    +0.000 C 
ATOM      5  C   UNL     1      45.164   6.823  11.457  0.00  0.00    +0.000 C 
ATOM      6  C   UNL     1      46.014   5.951  10.530  0.00  0.00    +0.000 C 
ATOM      7  O   UNL     1      45.278   5.278   9.528  0.00  0.00    +0.000 OA
ATOM      8  H   UNL     1      42.360   5.024  10.935  0.00  0.00    +0.000 HD
BRANCH   2  10
ATOM      9  C   UNL     1      43.132   2.756  11.442  0.00  0.00    +0.000 C 
ATOM     10  C   UNL     1      44.365   3.172  10.607  0.00  0.00    +0.000 C 
ATOM     11  C   UNL     1      45.585   3.060  11.541  0.00  0.00    +0.000 C 
ATOM     12  C   UNL     1      44.551   2.129   9.482  0.00  0.00    +0.000 C 
ENDBRANCH   2  10
ENDBRANCH   1   5
BRANCH   1  13
ATOM     13  O   UNL     1      47.183   6.332  12.771  0.00  0.00    +0.000 OA
BRANCH  13  14
ATOM     14  C   UNL     1      47.384   5.732  14.001  0.00  0.00    +0.000 A 
ATOM     15  C   UNL     1      46.596   4.634  14.341  0.00  0.00    +0.000 A 
ATOM     16  N   UNL     1      46.731   3.956  15.512  0.00  0.00    +0.000 NA
ATOM     17  C   UNL     1      47.705   4.437  16.337  0.00  0.00    +0.000 A 
ATOM     18  C   UNL     1      48.487   5.534  16.005  0.00  0.00    +0.000 A 
ATOM     19  N   UNL     1      48.344   6.203  14.832  0.00  0.00    +0.000 NA
BRANCH  17  20
ATOM     20  C   UNL     1      47.946   3.744  17.636  0.00  0.00    +0.000 C 
ATOM     21  N   UNL     1      47.048   2.764  17.964  0.00  0.00    +0.000 N 
ATOM     22  O   UNL     1      48.887   4.029  18.366  0.00  0.00    +0.000 OA
ATOM     23  H   UNL     1      46.282   2.539  17.345  0.00  0.00    +0.000 HD
ATOM     24  H   UNL     1      47.173   2.252  18.829  0.00  0.00    +0.000 HD
ENDBRANCH  17  20
ENDBRANCH  13  14
ENDBRANCH   1  13
TORSDOF 5
ENDMDL
MODEL 5
REMARK VINA RESULT:    -5.945      4.759      6.023
REMARK INTER + INTRA:          -7.914
REMARK INTER:                  -7.898
REMARK INTRA:                  -0.015
REMARK UNBOUND:                -0.230
REMARK  Name = 
REMARK  8 active torsions:
REMARK  status: ('A' for Active; 'I' for Inactive)
REMARK    1  A    between atoms: C_1  and  C_2
REMARK    2  A    between atoms: C_2  and  C_3
REMARK    3  A    between atoms: C_2  and  C_4
REMARK    4  A    between atoms: C_2  and  C_5
REMARK    5  A    between atoms: C_8  and  C_9
REMARK    6  A    between atoms: C_9  and  O_10
REMARK    7  A    between atoms: O_10  and  C_11
REMARK    8  A    between atoms: C_14  and  C_15
REMARK                            x       y       z     vdW  Elec       q    Type
REMARK                         _______ _______ _______ _____ _____    ______ ____
ROOT
ATOM      1  C   UNL     1      47.158   4.258  15.034  0.00  0.00    +0.000 C 
ENDROOT
BRANCH   1   5
ATOM      2  C   UNL     1      49.142   3.699  18.653  0.00  0.00    +0.000 C 
ATOM      3  N   UNL     1      47.889   4.433  18.762  0.00  0.00    +0.000 NA
ATOM      4  C   UNL     1      47.326   4.836  17.488  0.00  0.00    +0.000 C 
ATOM      5  C   UNL     1      47.276   3.703  16.461  0.00  0.00    +0.000 C 
ATOM      6  C   UNL     1      48.501   2.789  16.524  0.00  0.00    +0.000 C 
ATOM      7  O   UNL     1      48.982   2.549  17.832  0.00  0.00    +0.000 OA
ATOM      8  H   UNL     1      47.997   5.232  19.380  0.00  0.00    +0.000 HD
BRANCH   2  10
ATOM      9  C   UNL     1      50.935   5.144  19.751  0.00  0.00    +0.000 C 
ATOM     10  C   UNL     1      50.471   4.518  18.415  0.00  0.00    +0.000 C 
ATOM     11  C   UNL     1      50.379   5.672  17.399  0.00  0.00    +0.000 C 
ATOM     12  C   UNL     1      51.584   3.564  17.926  0.00  0.00    +0.000 C 
ENDBRANCH   2  10
ENDBRANCH   1   5
BRANCH   1  13
ATOM     13  O   UNL     1      45.793   4.503  14.672  0.00  0.00    +0.000 OA
BRANCH  13  14
ATOM     14  C   UNL     1      45.615   4.511  13.300  0.00  0.00    +0.000 A 
ATOM     15  C   UNL     1      45.812   5.707  12.612  0.00  0.00    +0.000 A 
ATOM     16  N   UNL     1      45.690   5.817  11.262  0.00  0.00    +0.000 NA
ATOM     17  C   UNL     1      45.356   4.657  10.626  0.00  0.00    +0.000 A 
ATOM     18  C   UNL     1      45.154   3.465  11.308  0.00  0.00    +0.000 A 
ATOM     19  N   UNL     1      45.280   3.367  12.657  0.00  0.00    +0.000 NA
BRANCH  17  20
ATOM     20  C   UNL     1      45.223   4.671   9.140  0.00  0.00    +0.000 C 
ATOM     21  N   UNL     1      44.013   4.261   8.646  0.00  0.00    +0.000 N 
ATOM     22  O   UNL     1      46.135   5.027   8.405  0.00  0.00    +0.000 OA
ATOM     23  H   UNL     1      43.272   3.977   9.270  0.00  0.00    +0.000 HD
ATOM     24  H   UNL     1      43.865   4.264   7.644  0.00  0.00    +0.000 HD
ENDBRANCH  17  20
ENDBRANCH  13  14
ENDBRANCH   1  13
TORSDOF 5
ENDMDL
MODEL 6
REMARK VINA RESULT:    -5.874      5.213      6.866
REMARK INTER + INTRA:          -7.821
REMARK INTER:                  -7.755
REMARK INTRA:                  -0.066
REMARK UNBOUND:                -0.230
REMARK  Name = 
REMARK  8 active torsions:
REMARK  status: ('A' for Active; 'I' for Inactive)
REMARK    1  A    between atoms: C_1  and  C_2
REMARK    2  A    between atoms: C_2  and  C_3
REMARK    3  A    between atoms: C_2  and  C_4
REMARK    4  A    between atoms: C_2  and  C_5
REMARK    5  A    between atoms: C_8  and  C_9
REMARK    6  A    between atoms: C_9  and  O_10
REMARK    7  A    between atoms: O_10  and  C_11
REMARK    8  A    between atoms: C_14  and  C_15
REMARK                            x       y       z     vdW  Elec       q    Type
REMARK                         _______ _______ _______ _____ _____    ______ ____
ROOT
ATOM      1  C   UNL     1      47.439   3.991  16.036  0.00  0.00    +0.000 C 
ENDROOT
BRANCH   1   5
ATOM      2  C   UNL     1      49.536   5.288  19.393  0.00  0.00    +0.000 C 
ATOM      3  N   UNL     1      49.137   3.888  19.438  0.00  0.00    +0.000 NA
ATOM      4  C   UNL     1      48.207   3.503  18.393  0.00  0.00    +0.000 C 
ATOM      5  C   UNL     1      48.635   3.966  17.000  0.00  0.00    +0.000 C 
ATOM      6  C   UNL     1      49.279   5.354  17.005  0.00  0.00    +0.000 C 
ATOM      7  O   UNL     1      50.099   5.610  18.128  0.00  0.00    +0.000 OA
ATOM      8  H   UNL     1      48.771   3.652  20.355  0.00  0.00    +0.000 HD
BRANCH   2  10
ATOM      9  C   UNL     1      47.729   5.737  21.137  0.00  0.00    +0.000 C 
ATOM     10  C   UNL     1      48.547   6.367  19.986  0.00  0.00    +0.000 C 
ATOM     11  C   UNL     1      47.526   6.961  18.997  0.00  0.00    +0.000 C 
ATOM     12  C   UNL     1      49.359   7.545  20.570  0.00  0.00    +0.000 C 
ENDBRANCH   2  10
ENDBRANCH   1   5
BRANCH   1  13
ATOM     13  O   UNL     1      47.710   4.792  14.878  0.00  0.00    +0.000 OA
BRANCH  13  14
ATOM     14  C   UNL     1      46.771   4.593  13.881  0.00  0.00    +0.000 A 
ATOM     15  C   UNL     1      46.234   5.708  13.242  0.00  0.00    +0.000 A 
ATOM     16  N   UNL     1      45.326   5.621  12.232  0.00  0.00    +0.000 NA
ATOM     17  C   UNL     1      44.978   4.347  11.891  0.00  0.00    +0.000 A 
ATOM     18  C   UNL     1      45.506   3.234  12.529  0.00  0.00    +0.000 A 
ATOM     19  N   UNL     1      46.413   3.333  13.536  0.00  0.00    +0.000 NA
BRANCH  17  20
ATOM     20  C   UNL     1      44.006   4.148  10.777  0.00  0.00    +0.000 C 
ATOM     21  N   UNL     1      43.445   5.287  10.265  0.00  0.00    +0.000 N 
ATOM     22  O   UNL     1      43.726   3.038  10.343  0.00  0.00    +0.000 OA
ATOM     23  H   UNL     1      43.694   6.194  10.632  0.00  0.00    +0.000 HD
ATOM     24  H   UNL     1      42.788   5.210   9.497  0.00  0.00    +0.000 HD
ENDBRANCH  17  20
ENDBRANCH  13  14
ENDBRANCH   1  13
TORSDOF 5
ENDMDL
MODEL 7
REMARK VINA RESULT:    -5.755      5.020      6.777
REMARK INTER + INTRA:          -7.668
REMARK INTER:                  -7.603
REMARK INTRA:                  -0.065
REMARK UNBOUND:                -0.230
REMARK  Name = 
REMARK  8 active torsions:
REMARK  status: ('A' for Active; 'I' for Inactive)
REMARK    1  A    between atoms: C_1  and  C_2
REMARK    2  A    between atoms: C_2  and  C_3
REMARK    3  A    between atoms: C_2  and  C_4
REMARK    4  A    between atoms: C_2  and  C_5
REMARK    5  A    between atoms: C_8  and  C_9
REMARK    6  A    between atoms: C_9  and  O_10
REMARK    7  A    between atoms: O_10  and  C_11
REMARK    8  A    between atoms: C_14  and  C_15
REMARK                            x       y       z     vdW  Elec       q    Type
REMARK                         _______ _______ _______ _____ _____    ______ ____
ROOT
ATOM      1  C   UNL     1      47.194   3.829  15.920  0.00  0.00    +0.000 C 
ENDROOT
BRANCH   1   5
ATOM      2  C   UNL     1      49.977   5.259  18.669  0.00  0.00    +0.000 C 
ATOM      3  N   UNL     1      49.428   6.278  17.785  0.00  0.00    +0.000 NA
ATOM      4  C   UNL     1      48.652   5.748  16.681  0.00  0.00    +0.000 C 
ATOM      5  C   UNL     1      47.623   4.701  17.110  0.00  0.00    +0.000 C 
ATOM      6  C   UNL     1      48.136   3.782  18.220  0.00  0.00    +0.000 C 
ATOM      7  O   UNL     1      48.943   4.429  19.184  0.00  0.00    +0.000 OA
ATOM      8  H   UNL     1      50.164   6.892  17.450  0.00  0.00    +0.000 HD
BRANCH   2  10
ATOM      9  C   UNL     1      52.058   5.374  17.199  0.00  0.00    +0.000 C 
ATOM     10  C   UNL     1      51.287   4.502  18.217  0.00  0.00    +0.000 C 
ATOM     11  C   UNL     1      51.075   3.131  17.546  0.00  0.00    +0.000 C 
ATOM     12  C   UNL     1      52.202   4.278  19.441  0.00  0.00    +0.000 C 
ENDBRANCH   2  10
ENDBRANCH   1   5
BRANCH   1  13
ATOM     13  O   UNL     1      47.726   4.323  14.683  0.00  0.00    +0.000 OA
BRANCH  13  14
ATOM     14  C   UNL     1      46.750   4.436  13.709  0.00  0.00    +0.000 A 
ATOM     15  C   UNL     1      46.437   5.705  13.226  0.00  0.00    +0.000 A 
ATOM     16  N   UNL     1      45.513   5.922  12.252  0.00  0.00    +0.000 NA
ATOM     17  C   UNL     1      44.909   4.794  11.780  0.00  0.00    +0.000 A 
ATOM     18  C   UNL     1      45.213   3.529  12.263  0.00  0.00    +0.000 A 
ATOM     19  N   UNL     1      46.139   3.323  13.236  0.00  0.00    +0.000 NA
BRANCH  17  20
ATOM     20  C   UNL     1      43.898   4.928  10.691  0.00  0.00    +0.000 C 
ATOM     21  N   UNL     1      44.343   4.647   9.427  0.00  0.00    +0.000 N 
ATOM     22  O   UNL     1      42.742   5.265  10.910  0.00  0.00    +0.000 OA
ATOM     23  H   UNL     1      45.299   4.364   9.268  0.00  0.00    +0.000 HD
ATOM     24  H   UNL     1      43.693   4.710   8.652  0.00  0.00    +0.000 HD
ENDBRANCH  17  20
ENDBRANCH  13  14
ENDBRANCH   1  13
TORSDOF 5
ENDMDL
MODEL 8
REMARK VINA RESULT:    -5.601      2.336      6.603
REMARK INTER + INTRA:          -7.468
REMARK INTER:                  -7.521
REMARK INTRA:                   0.053
REMARK UNBOUND:                -0.230
REMARK  Name = 
REMARK  8 active torsions:
REMARK  status: ('A' for Active; 'I' for Inactive)
REMARK    1  A    between atoms: C_1  and  C_2
REMARK    2  A    between atoms: C_2  and  C_3
REMARK    3  A    between atoms: C_2  and  C_4
REMARK    4  A    between atoms: C_2  and  C_5
REMARK    5  A    between atoms: C_8  and  C_9
REMARK    6  A    between atoms: C_9  and  O_10
REMARK    7  A    between atoms: O_10  and  C_11
REMARK    8  A    between atoms: C_14  and  C_15
REMARK                            x       y       z     vdW  Elec       q    Type
REMARK                         _______ _______ _______ _____ _____    ______ ____
ROOT
ATOM      1  C   UNL     1      45.402   3.259  11.596  0.00  0.00    +0.000 C 
ENDROOT
BRANCH   1   5
ATOM      2  C   UNL     1      45.031   3.323   7.448  0.00  0.00    +0.000 C 
ATOM      3  N   UNL     1      44.202   2.326   8.110  0.00  0.00    +0.000 NA
ATOM      4  C   UNL     1      44.507   2.139   9.515  0.00  0.00    +0.000 C 
ATOM      5  C   UNL     1      44.612   3.452  10.293  0.00  0.00    +0.000 C 
ATOM      6  C   UNL     1      45.276   4.570   9.487  0.00  0.00    +0.000 C 
ATOM      7  O   UNL     1      44.939   4.577   8.114  0.00  0.00    +0.000 OA
ATOM      8  H   UNL     1      44.239   1.443   7.609  0.00  0.00    +0.000 HD
BRANCH   2  10
ATOM      9  C   UNL     1      46.499   2.675   5.465  0.00  0.00    +0.000 C 
ATOM     10  C   UNL     1      46.485   2.906   6.994  0.00  0.00    +0.000 C 
ATOM     11  C   UNL     1      47.050   1.625   7.636  0.00  0.00    +0.000 C 
ATOM     12  C   UNL     1      47.472   4.052   7.310  0.00  0.00    +0.000 C 
ENDBRANCH   2  10
ENDBRANCH   1   5
BRANCH   1  13
ATOM     13  O   UNL     1      44.789   3.948  12.694  0.00  0.00    +0.000 OA
BRANCH  13  14
ATOM     14  C   UNL     1      45.377   5.179  12.925  0.00  0.00    +0.000 A 
ATOM     15  C   UNL     1      46.660   5.211  13.467  0.00  0.00    +0.000 A 
ATOM     16  N   UNL     1      47.337   6.366  13.707  0.00  0.00    +0.000 NA
ATOM     17  C   UNL     1      46.658   7.501  13.375  0.00  0.00    +0.000 A 
ATOM     18  C   UNL     1      45.377   7.474  12.841  0.00  0.00    +0.000 A 
ATOM     19  N   UNL     1      44.711   6.314  12.604  0.00  0.00    +0.000 NA
BRANCH  17  20
ATOM     20  C   UNL     1      47.328   8.818  13.579  0.00  0.00    +0.000 C 
ATOM     21  N   UNL     1      47.513   9.198  14.881  0.00  0.00    +0.000 N 
ATOM     22  O   UNL     1      47.693   9.519  12.643  0.00  0.00    +0.000 OA
ATOM     23  H   UNL     1      47.210   8.602  15.639  0.00  0.00    +0.000 HD
ATOM     24  H   UNL     1      47.976  10.078  15.077  0.00  0.00    +0.000 HD
ENDBRANCH  17  20
ENDBRANCH  13  14
ENDBRANCH   1  13
TORSDOF 5
ENDMDL
MODEL 9
REMARK VINA RESULT:    -5.322      5.089      7.632
REMARK INTER + INTRA:          -7.109
REMARK INTER:                  -6.919
REMARK INTRA:                  -0.190
REMARK UNBOUND:                -0.230
REMARK  Name = 
REMARK  8 active torsions:
REMARK  status: ('A' for Active; 'I' for Inactive)
REMARK    1  A    between atoms: C_1  and  C_2
REMARK    2  A    between atoms: C_2  and  C_3
REMARK    3  A    between atoms: C_2  and  C_4
REMARK    4  A    between atoms: C_2  and  C_5
REMARK    5  A    between atoms: C_8  and  C_9
REMARK    6  A    between atoms: C_9  and  O_10
REMARK    7  A    between atoms: O_10  and  C_11
REMARK    8  A    between atoms: C_14  and  C_15
REMARK                            x       y       z     vdW  Elec       q    Type
REMARK                         _______ _______ _______ _____ _____    ______ ____
ROOT
ATOM      1  C   UNL     1      48.757   7.211  15.121  0.00  0.00    +0.000 C 
ENDROOT
BRANCH   1   5
ATOM      2  C   UNL     1      49.585   6.594  19.156  0.00  0.00    +0.000 C 
ATOM      3  N   UNL     1      49.255   5.382  18.418  0.00  0.00    +0.000 NA
ATOM      4  C   UNL     1      48.735   5.623  17.086  0.00  0.00    +0.000 C 
ATOM      5  C   UNL     1      49.573   6.614  16.278  0.00  0.00    +0.000 C 
ATOM      6  C   UNL     1      50.118   7.764  17.127  0.00  0.00    +0.000 C 
ATOM      7  O   UNL     1      50.515   7.387  18.430  0.00  0.00    +0.000 OA
ATOM      8  H   UNL     1      48.621   4.800  18.957  0.00  0.00    +0.000 HD
BRANCH   2  10
ATOM      9  C   UNL     1      47.490   6.405  20.599  0.00  0.00    +0.000 C 
ATOM     10  C   UNL     1      48.410   7.393  19.846  0.00  0.00    +0.000 C 
ATOM     11  C   UNL     1      47.503   8.205  18.903  0.00  0.00    +0.000 C 
ATOM     12  C   UNL     1      48.996   8.379  20.881  0.00  0.00    +0.000 C 
ENDBRANCH   2  10
ENDBRANCH   1   5
BRANCH   1  13
ATOM     13  O   UNL     1      48.734   6.338  13.984  0.00  0.00    +0.000 OA
BRANCH  13  14
ATOM     14  C   UNL     1      47.455   5.892  13.702  0.00  0.00    +0.000 A 
ATOM     15  C   UNL     1      47.125   4.577  14.023  0.00  0.00    +0.000 A 
ATOM     16  N   UNL     1      45.890   4.048  13.812  0.00  0.00    +0.000 NA
ATOM     17  C   UNL     1      44.990   4.910  13.256  0.00  0.00    +0.000 A 
ATOM     18  C   UNL     1      45.317   6.219  12.929  0.00  0.00    +0.000 A 
ATOM     19  N   UNL     1      46.554   6.737  13.145  0.00  0.00    +0.000 NA
BRANCH  17  20
ATOM     20  C   UNL     1      43.600   4.429  13.009  0.00  0.00    +0.000 C 
ATOM     21  N   UNL     1      42.633   5.398  12.963  0.00  0.00    +0.000 N 
ATOM     22  O   UNL     1      43.336   3.244  12.854  0.00  0.00    +0.000 OA
ATOM     23  H   UNL     1      42.873   6.371  13.086  0.00  0.00    +0.000 HD
ATOM     24  H   UNL     1      41.673   5.127  12.784  0.00  0.00    +0.000 HD
ENDBRANCH  17  20
ENDBRANCH  13  14
ENDBRANCH   1  13
TORSDOF 5
ENDMDL
