MODEL 1
REMARK VINA RESULT:    -8.651      0.000      0.000
REMARK INTER + INTRA:         -11.659
REMARK INTER:                 -11.180
REMARK INTRA:                  -0.479
REMARK UNBOUND:                -0.479
REMARK  Name = 
REMARK  5 active torsions:
REMARK  status: ('A' for Active; 'I' for Inactive)
REMARK    1  A    between atoms: C_2  and  C_4
REMARK    2  A    between atoms: N_8  and  C_9
REMARK    3  A    between atoms: C_9  and  C_10
REMARK    4  A    between atoms: C_13  and  O_14
REMARK    5  A    between atoms: O_14  and  C_15
REMARK                            x       y       z     vdW  Elec       q    Type
REMARK                         _______ _______ _______ _____ _____    ______ ____
ROOT
ATOM      1  C   UNL     1      46.389   2.306   7.646  0.00  0.00    +0.000 A 
ATOM      2  C   UNL     1      45.664   1.806   8.720  0.00  0.00    +0.000 A 
ATOM      3  C   UNL     1      44.836   2.668   9.444  0.00  0.00    +0.000 A 
ATOM      4  C   UNL     1      44.757   4.011   9.091  0.00  0.00    +0.000 A 
ATOM      5  N   UNL     1      43.919   4.912   9.708  0.00  0.00    +0.000 N 
ATOM      6  N   UNL     1      45.466   4.508   8.059  0.00  0.00    +0.000 NA
ATOM      7  C   UNL     1      46.270   3.658   7.365  0.00  0.00    +0.000 A 
ATOM      8  H   UNL     1      44.087   5.839   9.328  0.00  0.00    +0.000 HD
ENDROOT
BRANCH   1  10
ATOM      9  N   UNL     1      48.414   2.061   6.322  0.00  0.00    +0.000 N 
ATOM     10  C   UNL     1      47.279   1.473   6.814  0.00  0.00    +0.000 C 
ATOM     11  O   UNL     1      47.033   0.292   6.599  0.00  0.00    +0.000 OA
ATOM     12  H   UNL     1      49.061   1.454   5.840  0.00  0.00    +0.000 HD
ATOM     13  H   UNL     1      48.775   2.931   6.688  0.00  0.00    +0.000 HD
ENDBRANCH   1  10
BRANCH   5  14
ATOM     14  C   UNL     1      43.603   4.864  11.121  0.00  0.00    +0.000 C 
BRANCH  14  15
ATOM     15  C   UNL     1      44.793   4.937  12.056  0.00  0.00    +0.000 A 
ATOM     16  C   UNL     1      45.380   6.133  12.491  0.00  0.00    +0.000 A 
ATOM     17  C   UNL     1      46.463   6.125  13.381  0.00  0.00    +0.000 A 
ATOM     18  C   UNL     1      46.953   4.924  13.886  0.00  0.00    +0.000 A 
ATOM     19  C   UNL     1      46.409   3.726  13.423  0.00  0.00    +0.000 A 
ATOM     20  C   UNL     1      45.339   3.730  12.524  0.00  0.00    +0.000 A 
BRANCH  18  21
ATOM     21  O   UNL     1      47.972   4.782  14.776  0.00  0.00    +0.000 OA
BRANCH  21  22
ATOM     22  C   UNL     1      47.720   4.198  16.047  0.00  0.00    +0.000 C 
ATOM     23  F   UNL     1      46.461   4.366  16.503  0.00  0.00    +0.000 F 
ATOM     24  F   UNL     1      47.947   2.868  15.958  0.00  0.00    +0.000 F 
ATOM     25  F   UNL     1      48.583   4.710  16.952  0.00  0.00    +0.000 F 
ENDBRANCH  21  22
ENDBRANCH  18  21
ENDBRANCH  14  15
ENDBRANCH   5  14
TORSDOF 5
ENDMDL
MODEL 2
REMARK VINA RESULT:    -8.523      1.894      2.409
REMARK INTER + INTRA:         -11.494
REMARK INTER:                 -10.562
REMARK INTRA:                  -0.931
REMARK UNBOUND:                -0.479
REMARK  Name = 
REMARK  5 active torsions:
REMARK  status: ('A' for Active; 'I' for Inactive)
REMARK    1  A    between atoms: C_2  and  C_4
REMARK    2  A    between atoms: N_8  and  C_9
REMARK    3  A    between atoms: C_9  and  C_10
REMARK    4  A    between atoms: C_13  and  O_14
REMARK    5  A    between atoms: O_14  and  C_15
REMARK                            x       y       z     vdW  Elec       q    Type
REMARK                         _______ _______ _______ _____ _____    ______ ____
ROOT
ATOM      1  C   UNL     1      46.396   2.282   7.687  0.00  0.00    +0.000 A 
ATOM      2  C   UNL     1      45.657   1.817   8.768  0.00  0.00    +0.000 A 
ATOM      3  C   UNL     1      44.818   2.701   9.451  0.00  0.00    +0.000 A 
ATOM      4  C   UNL     1      44.742   4.031   9.052  0.00  0.00    +0.000 A 
ATOM      5  N   UNL     1      43.895   4.951   9.626  0.00  0.00    +0.000 N 
ATOM      6  N   UNL     1      45.464   4.494   8.012  0.00  0.00    +0.000 NA
ATOM      7  C   UNL     1      46.279   3.623   7.359  0.00  0.00    +0.000 A 
ATOM      8  H   UNL     1      44.066   5.866   9.217  0.00  0.00    +0.000 HD
ENDROOT
BRANCH   1  10
ATOM      9  N   UNL     1      48.437   1.997   6.396  0.00  0.00    +0.000 N 
ATOM     10  C   UNL     1      47.299   1.423   6.896  0.00  0.00    +0.000 C 
ATOM     11  O   UNL     1      47.060   0.235   6.721  0.00  0.00    +0.000 OA
ATOM     12  H   UNL     1      49.092   1.376   5.944  0.00  0.00    +0.000 HD
ATOM     13  H   UNL     1      48.791   2.882   6.735  0.00  0.00    +0.000 HD
ENDBRANCH   1  10
BRANCH   5  14
ATOM     14  C   UNL     1      43.559   4.951  11.036  0.00  0.00    +0.000 C 
BRANCH  14  15
ATOM     15  C   UNL     1      44.686   5.337  11.972  0.00  0.00    +0.000 A 
ATOM     16  C   UNL     1      45.379   4.431  12.786  0.00  0.00    +0.000 A 
ATOM     17  C   UNL     1      46.433   4.856  13.607  0.00  0.00    +0.000 A 
ATOM     18  C   UNL     1      46.841   6.186  13.600  0.00  0.00    +0.000 A 
ATOM     19  C   UNL     1      46.128   7.106  12.831  0.00  0.00    +0.000 A 
ATOM     20  C   UNL     1      45.067   6.689  12.022  0.00  0.00    +0.000 A 
BRANCH  18  21
ATOM     21  O   UNL     1      47.865   6.718  14.322  0.00  0.00    +0.000 OA
BRANCH  21  22
ATOM     22  C   UNL     1      49.040   7.161  13.656  0.00  0.00    +0.000 C 
ATOM     23  F   UNL     1      49.019   8.459  13.284  0.00  0.00    +0.000 F 
ATOM     24  F   UNL     1      50.091   6.993  14.490  0.00  0.00    +0.000 F 
ATOM     25  F   UNL     1      49.247   6.398  12.562  0.00  0.00    +0.000 F 
ENDBRANCH  21  22
ENDBRANCH  18  21
ENDBRANCH  14  15
ENDBRANCH   5  14
TORSDOF 5
ENDMDL
MODEL 3
REMARK VINA RESULT:    -7.985      4.329      7.372
REMARK INTER + INTRA:         -10.797
REMARK INTER:                 -10.189
REMARK INTRA:                  -0.609
REMARK UNBOUND:                -0.479
REMARK  Name = 
REMARK  5 active torsions:
REMARK  status: ('A' for Active; 'I' for Inactive)
REMARK    1  A    between atoms: C_2  and  C_4
REMARK    2  A    between atoms: N_8  and  C_9
REMARK    3  A    between atoms: C_9  and  C_10
REMARK    4  A    between atoms: C_13  and  O_14
REMARK    5  A    between atoms: O_14  and  C_15
REMARK                            x       y       z     vdW  Elec       q    Type
REMARK                         _______ _______ _______ _____ _____    ______ ____
ROOT
ATOM      1  C   UNL     1      47.161   6.121  13.849  0.00  0.00    +0.000 A 
ATOM      2  C   UNL     1      46.077   6.595  13.119  0.00  0.00    +0.000 A 
ATOM      3  C   UNL     1      45.084   5.700  12.714  0.00  0.00    +0.000 A 
ATOM      4  C   UNL     1      45.196   4.351  13.032  0.00  0.00    +0.000 A 
ATOM      5  N   UNL     1      44.234   3.415  12.729  0.00  0.00    +0.000 N 
ATOM      6  N   UNL     1      46.250   3.879  13.728  0.00  0.00    +0.000 NA
ATOM      7  C   UNL     1      47.210   4.761  14.113  0.00  0.00    +0.000 A 
ATOM      8  H   UNL     1      44.567   2.493  12.996  0.00  0.00    +0.000 HD
ENDROOT
BRANCH   1  10
ATOM      9  N   UNL     1      47.899   8.127  15.007  0.00  0.00    +0.000 N 
ATOM     10  C   UNL     1      48.252   6.989  14.331  0.00  0.00    +0.000 C 
ATOM     11  O   UNL     1      49.428   6.691  14.164  0.00  0.00    +0.000 OA
ATOM     12  H   UNL     1      48.654   8.658  15.417  0.00  0.00    +0.000 HD
ATOM     13  H   UNL     1      46.972   8.266  15.386  0.00  0.00    +0.000 HD
ENDBRANCH   1  10
BRANCH   5  14
ATOM     14  C   UNL     1      43.431   3.463  11.524  0.00  0.00    +0.000 C 
BRANCH  14  15
ATOM     15  C   UNL     1      44.194   3.282  10.227  0.00  0.00    +0.000 A 
ATOM     16  C   UNL     1      44.582   2.040   9.709  0.00  0.00    +0.000 A 
ATOM     17  C   UNL     1      45.261   1.946   8.486  0.00  0.00    +0.000 A 
ATOM     18  C   UNL     1      45.529   3.089   7.738  0.00  0.00    +0.000 A 
ATOM     19  C   UNL     1      45.192   4.335   8.267  0.00  0.00    +0.000 A 
ATOM     20  C   UNL     1      44.528   4.433   9.493  0.00  0.00    +0.000 A 
BRANCH  18  21
ATOM     21  O   UNL     1      46.150   3.132   6.528  0.00  0.00    +0.000 OA
BRANCH  21  22
ATOM     22  C   UNL     1      47.264   2.286   6.278  0.00  0.00    +0.000 C 
ATOM     23  F   UNL     1      46.992   0.965   6.340  0.00  0.00    +0.000 F 
ATOM     24  F   UNL     1      47.729   2.549   5.035  0.00  0.00    +0.000 F 
ATOM     25  F   UNL     1      48.246   2.571   7.160  0.00  0.00    +0.000 F 
ENDBRANCH  21  22
ENDBRANCH  18  21
ENDBRANCH  14  15
ENDBRANCH   5  14
TORSDOF 5
ENDMDL
MODEL 4
REMARK VINA RESULT:    -7.439      2.977      3.529
REMARK INTER + INTRA:         -10.092
REMARK INTER:                  -9.423
REMARK INTRA:                  -0.670
REMARK UNBOUND:                -0.479
REMARK  Name = 
REMARK  5 active torsions:
REMARK  status: ('A' for Active; 'I' for Inactive)
REMARK    1  A    between atoms: C_2  and  C_4
REMARK    2  A    between atoms: N_8  and  C_9
REMARK    3  A    between atoms: C_9  and  C_10
REMARK    4  A    between atoms: C_13  and  O_14
REMARK    5  A    between atoms: O_14  and  C_15
REMARK                            x       y       z     vdW  Elec       q    Type
REMARK                         _______ _______ _______ _____ _____    ______ ____
ROOT
ATOM      1  C   UNL     1      46.662   2.505   7.243  0.00  0.00    +0.000 A 
ATOM      2  C   UNL     1      46.354   3.746   7.788  0.00  0.00    +0.000 A 
ATOM      3  C   UNL     1      45.578   3.808   8.948  0.00  0.00    +0.000 A 
ATOM      4  C   UNL     1      45.115   2.635   9.535  0.00  0.00    +0.000 A 
ATOM      5  N   UNL     1      44.403   2.601  10.711  0.00  0.00    +0.000 N 
ATOM      6  N   UNL     1      45.399   1.427   9.007  0.00  0.00    +0.000 NA
ATOM      7  C   UNL     1      46.152   1.383   7.876  0.00  0.00    +0.000 A 
ATOM      8  H   UNL     1      44.117   1.645  10.903  0.00  0.00    +0.000 HD
ENDROOT
BRANCH   1  10
ATOM      9  N   UNL     1      47.314   3.251   5.023  0.00  0.00    +0.000 N 
ATOM     10  C   UNL     1      47.484   2.338   6.029  0.00  0.00    +0.000 C 
ATOM     11  O   UNL     1      48.311   1.439   5.935  0.00  0.00    +0.000 OA
ATOM     12  H   UNL     1      47.952   3.184   4.242  0.00  0.00    +0.000 HD
ATOM     13  H   UNL     1      46.847   4.136   5.168  0.00  0.00    +0.000 HD
ENDBRANCH   1  10
BRANCH   5  14
ATOM     14  C   UNL     1      43.451   3.625  11.092  0.00  0.00    +0.000 C 
BRANCH  14  15
ATOM     15  C   UNL     1      44.056   4.929  11.572  0.00  0.00    +0.000 A 
ATOM     16  C   UNL     1      43.664   6.194  11.114  0.00  0.00    +0.000 A 
ATOM     17  C   UNL     1      44.248   7.361  11.624  0.00  0.00    +0.000 A 
ATOM     18  C   UNL     1      45.207   7.289  12.631  0.00  0.00    +0.000 A 
ATOM     19  C   UNL     1      45.640   6.035  13.060  0.00  0.00    +0.000 A 
ATOM     20  C   UNL     1      45.071   4.868  12.542  0.00  0.00    +0.000 A 
BRANCH  18  21
ATOM     21  O   UNL     1      45.825   8.342  13.231  0.00  0.00    +0.000 OA
BRANCH  21  22
ATOM     22  C   UNL     1      46.893   9.003  12.566  0.00  0.00    +0.000 C 
ATOM     23  F   UNL     1      47.825   9.532  13.387  0.00  0.00    +0.000 F 
ATOM     24  F   UNL     1      47.516   8.108  11.766  0.00  0.00    +0.000 F 
ATOM     25  F   UNL     1      46.393   9.985  11.785  0.00  0.00    +0.000 F 
ENDBRANCH  21  22
ENDBRANCH  18  21
ENDBRANCH  14  15
ENDBRANCH   5  14
TORSDOF 5
ENDMDL
MODEL 5
REMARK VINA RESULT:    -7.210      4.977      8.330
REMARK INTER + INTRA:          -9.796
REMARK INTER:                  -9.231
REMARK INTRA:                  -0.565
REMARK UNBOUND:                -0.479
REMARK  Name = 
REMARK  5 active torsions:
REMARK  status: ('A' for Active; 'I' for Inactive)
REMARK    1  A    between atoms: C_2  and  C_4
REMARK    2  A    between atoms: N_8  and  C_9
REMARK    3  A    between atoms: C_9  and  C_10
REMARK    4  A    between atoms: C_13  and  O_14
REMARK    5  A    between atoms: O_14  and  C_15
REMARK                            x       y       z     vdW  Elec       q    Type
REMARK                         _______ _______ _______ _____ _____    ______ ____
ROOT
ATOM      1  C   UNL     1      48.653   4.593  17.888  0.00  0.00    +0.000 A 
ATOM      2  C   UNL     1      47.651   3.750  17.422  0.00  0.00    +0.000 A 
ATOM      3  C   UNL     1      47.097   3.983  16.160  0.00  0.00    +0.000 A 
ATOM      4  C   UNL     1      47.543   5.055  15.395  0.00  0.00    +0.000 A 
ATOM      5  N   UNL     1      47.100   5.316  14.119  0.00  0.00    +0.000 N 
ATOM      6  N   UNL     1      48.506   5.885  15.844  0.00  0.00    +0.000 NA
ATOM      7  C   UNL     1      49.033   5.649  17.075  0.00  0.00    +0.000 A 
ATOM      8  H   UNL     1      47.514   6.185  13.791  0.00  0.00    +0.000 HD
ENDROOT
BRANCH   1  10
ATOM      9  N   UNL     1      48.633   3.699  20.149  0.00  0.00    +0.000 N 
ATOM     10  C   UNL     1      49.306   4.421  19.200  0.00  0.00    +0.000 C 
ATOM     11  O   UNL     1      50.421   4.877  19.424  0.00  0.00    +0.000 OA
ATOM     12  H   UNL     1      49.134   3.506  21.005  0.00  0.00    +0.000 HD
ATOM     13  H   UNL     1      47.852   3.099  19.920  0.00  0.00    +0.000 HD
ENDBRANCH   1  10
BRANCH   5  14
ATOM     14  C   UNL     1      45.739   5.072  13.685  0.00  0.00    +0.000 C 
BRANCH  14  15
ATOM     15  C   UNL     1      45.563   4.836  12.199  0.00  0.00    +0.000 A 
ATOM     16  C   UNL     1      45.856   5.787  11.212  0.00  0.00    +0.000 A 
ATOM     17  C   UNL     1      45.697   5.489   9.851  0.00  0.00    +0.000 A 
ATOM     18  C   UNL     1      45.280   4.223   9.449  0.00  0.00    +0.000 A 
ATOM     19  C   UNL     1      44.939   3.285  10.424  0.00  0.00    +0.000 A 
ATOM     20  C   UNL     1      45.082   3.584  11.782  0.00  0.00    +0.000 A 
BRANCH  18  21
ATOM     21  O   UNL     1      45.117   3.799   8.167  0.00  0.00    +0.000 OA
BRANCH  21  22
ATOM     22  C   UNL     1      46.224   3.255   7.460  0.00  0.00    +0.000 C 
ATOM     23  F   UNL     1      46.721   2.115   7.984  0.00  0.00    +0.000 F 
ATOM     24  F   UNL     1      45.829   2.983   6.195  0.00  0.00    +0.000 F 
ATOM     25  F   UNL     1      47.211   4.175   7.401  0.00  0.00    +0.000 F 
ENDBRANCH  21  22
ENDBRANCH  18  21
ENDBRANCH  14  15
ENDBRANCH   5  14
TORSDOF 5
ENDMDL
MODEL 6
REMARK VINA RESULT:    -7.060      4.406      7.554
REMARK INTER + INTRA:          -9.602
REMARK INTER:                 -10.001
REMARK INTRA:                   0.399
REMARK UNBOUND:                -0.479
REMARK  Name = 
REMARK  5 active torsions:
REMARK  status: ('A' for Active; 'I' for Inactive)
REMARK    1  A    between atoms: C_2  and  C_4
REMARK    2  A    between atoms: N_8  and  C_9
REMARK    3  A    between atoms: C_9  and  C_10
REMARK    4  A    between atoms: C_13  and  O_14
REMARK    5  A    between atoms: O_14  and  C_15
REMARK                            x       y       z     vdW  Elec       q    Type
REMARK                         _______ _______ _______ _____ _____    ______ ____
ROOT
ATOM      1  C   UNL     1      47.017   7.553  13.297  0.00  0.00    +0.000 A 
ATOM      2  C   UNL     1      47.144   6.248  12.835  0.00  0.00    +0.000 A 
ATOM      3  C   UNL     1      46.187   5.741  11.953  0.00  0.00    +0.000 A 
ATOM      4  C   UNL     1      45.117   6.538  11.558  0.00  0.00    +0.000 A 
ATOM      5  N   UNL     1      44.169   6.141  10.644  0.00  0.00    +0.000 N 
ATOM      6  N   UNL     1      44.979   7.800  12.010  0.00  0.00    +0.000 NA
ATOM      7  C   UNL     1      45.916   8.279  12.871  0.00  0.00    +0.000 A 
ATOM      8  H   UNL     1      43.453   6.859  10.570  0.00  0.00    +0.000 HD
ENDROOT
BRANCH   1  10
ATOM      9  N   UNL     1      47.516   9.176  15.037  0.00  0.00    +0.000 N 
ATOM     10  C   UNL     1      47.982   8.181  14.220  0.00  0.00    +0.000 C 
ATOM     11  O   UNL     1      49.147   7.806  14.279  0.00  0.00    +0.000 OA
ATOM     12  H   UNL     1      48.161   9.526  15.730  0.00  0.00    +0.000 HD
ATOM     13  H   UNL     1      46.530   9.325  15.200  0.00  0.00    +0.000 HD
ENDBRANCH   1  10
BRANCH   5  14
ATOM     14  C   UNL     1      43.695   4.776  10.533  0.00  0.00    +0.000 C 
BRANCH  14  15
ATOM     15  C   UNL     1      44.518   3.873   9.636  0.00  0.00    +0.000 A 
ATOM     16  C   UNL     1      44.518   2.474   9.715  0.00  0.00    +0.000 A 
ATOM     17  C   UNL     1      45.284   1.701   8.831  0.00  0.00    +0.000 A 
ATOM     18  C   UNL     1      46.032   2.308   7.827  0.00  0.00    +0.000 A 
ATOM     19  C   UNL     1      46.078   3.701   7.770  0.00  0.00    +0.000 A 
ATOM     20  C   UNL     1      45.328   4.476   8.659  0.00  0.00    +0.000 A 
BRANCH  18  21
ATOM     21  O   UNL     1      46.788   1.673   6.891  0.00  0.00    +0.000 OA
BRANCH  21  22
ATOM     22  C   UNL     1      47.640   2.431   6.043  0.00  0.00    +0.000 C 
ATOM     23  F   UNL     1      48.073   1.772   4.947  0.00  0.00    +0.000 F 
ATOM     24  F   UNL     1      46.961   3.521   5.620  0.00  0.00    +0.000 F 
ATOM     25  F   UNL     1      48.711   2.853   6.749  0.00  0.00    +0.000 F 
ENDBRANCH  21  22
ENDBRANCH  18  21
ENDBRANCH  14  15
ENDBRANCH   5  14
TORSDOF 5
ENDMDL
MODEL 7
REMARK VINA RESULT:    -6.860      4.571      7.522
REMARK INTER + INTRA:          -9.344
REMARK INTER:                  -9.098
REMARK INTRA:                  -0.246
REMARK UNBOUND:                -0.479
REMARK  Name = 
REMARK  5 active torsions:
REMARK  status: ('A' for Active; 'I' for Inactive)
REMARK    1  A    between atoms: C_2  and  C_4
REMARK    2  A    between atoms: N_8  and  C_9
REMARK    3  A    between atoms: C_9  and  C_10
REMARK    4  A    between atoms: C_13  and  O_14
REMARK    5  A    between atoms: O_14  and  C_15
REMARK                            x       y       z     vdW  Elec       q    Type
REMARK                         _______ _______ _______ _____ _____    ______ ____
ROOT
ATOM      1  C   UNL     1      45.817   8.583  12.157  0.00  0.00    +0.000 A 
ATOM      2  C   UNL     1      44.590   8.066  11.759  0.00  0.00    +0.000 A 
ATOM      3  C   UNL     1      44.373   6.688  11.838  0.00  0.00    +0.000 A 
ATOM      4  C   UNL     1      45.386   5.853  12.299  0.00  0.00    +0.000 A 
ATOM      5  N   UNL     1      45.235   4.496  12.470  0.00  0.00    +0.000 N 
ATOM      6  N   UNL     1      46.583   6.344  12.676  0.00  0.00    +0.000 NA
ATOM      7  C   UNL     1      46.781   7.686  12.591  0.00  0.00    +0.000 A 
ATOM      8  H   UNL     1      46.125   4.092  12.748  0.00  0.00    +0.000 HD
ENDROOT
BRANCH   1  10
ATOM      9  N   UNL     1      45.086  10.902  12.175  0.00  0.00    +0.000 N 
ATOM     10  C   UNL     1      46.136  10.024  12.123  0.00  0.00    +0.000 C 
ATOM     11  O   UNL     1      47.293  10.422  12.082  0.00  0.00    +0.000 OA
ATOM     12  H   UNL     1      45.323  11.880  12.252  0.00  0.00    +0.000 HD
ATOM     13  H   UNL     1      44.160  10.622  12.469  0.00  0.00    +0.000 HD
ENDBRANCH   1  10
BRANCH   5  14
ATOM     14  C   UNL     1      44.420   3.672  11.599  0.00  0.00    +0.000 C 
BRANCH  14  15
ATOM     15  C   UNL     1      44.896   3.574  10.164  0.00  0.00    +0.000 A 
ATOM     16  C   UNL     1      45.305   4.672   9.394  0.00  0.00    +0.000 A 
ATOM     17  C   UNL     1      45.762   4.503   8.080  0.00  0.00    +0.000 A 
ATOM     18  C   UNL     1      45.858   3.231   7.523  0.00  0.00    +0.000 A 
ATOM     19  C   UNL     1      45.408   2.137   8.262  0.00  0.00    +0.000 A 
ATOM     20  C   UNL     1      44.937   2.303   9.567  0.00  0.00    +0.000 A 
BRANCH  18  21
ATOM     21  O   UNL     1      46.313   2.930   6.277  0.00  0.00    +0.000 OA
BRANCH  21  22
ATOM     22  C   UNL     1      47.522   2.199   6.127  0.00  0.00    +0.000 C 
ATOM     23  F   UNL     1      47.410   0.874   6.356  0.00  0.00    +0.000 F 
ATOM     24  F   UNL     1      47.961   2.357   4.857  0.00  0.00    +0.000 F 
ATOM     25  F   UNL     1      48.457   2.708   6.958  0.00  0.00    +0.000 F 
ENDBRANCH  21  22
ENDBRANCH  18  21
ENDBRANCH  14  15
ENDBRANCH   5  14
TORSDOF 5
ENDMDL
MODEL 8
REMARK VINA RESULT:    -6.631      5.466      8.222
REMARK INTER + INTRA:          -9.048
REMARK INTER:                  -8.405
REMARK INTRA:                  -0.643
REMARK UNBOUND:                -0.479
REMARK  Name = 
REMARK  5 active torsions:
REMARK  status: ('A' for Active; 'I' for Inactive)
REMARK    1  A    between atoms: C_2  and  C_4
REMARK    2  A    between atoms: N_8  and  C_9
REMARK    3  A    between atoms: C_9  and  C_10
REMARK    4  A    between atoms: C_13  and  O_14
REMARK    5  A    between atoms: O_14  and  C_15
REMARK                            x       y       z     vdW  Elec       q    Type
REMARK                         _______ _______ _______ _____ _____    ______ ____
ROOT
ATOM      1  C   UNL     1      51.131   2.641  17.543  0.00  0.00    +0.000 A 
ATOM      2  C   UNL     1      50.601   3.919  17.673  0.00  0.00    +0.000 A 
ATOM      3  C   UNL     1      49.376   4.214  17.071  0.00  0.00    +0.000 A 
ATOM      4  C   UNL     1      48.709   3.235  16.342  0.00  0.00    +0.000 A 
ATOM      5  N   UNL     1      47.471   3.421  15.773  0.00  0.00    +0.000 N 
ATOM      6  N   UNL     1      49.221   1.996  16.199  0.00  0.00    +0.000 NA
ATOM      7  C   UNL     1      50.416   1.724  16.788  0.00  0.00    +0.000 A 
ATOM      8  H   UNL     1      47.220   2.595  15.236  0.00  0.00    +0.000 HD
ENDROOT
BRANCH   1  10
ATOM      9  N   UNL     1      52.817   2.903  19.274  0.00  0.00    +0.000 N 
ATOM     10  C   UNL     1      52.411   2.231  18.153  0.00  0.00    +0.000 C 
ATOM     11  O   UNL     1      53.069   1.305  17.695  0.00  0.00    +0.000 OA
ATOM     12  H   UNL     1      53.642   2.547  19.737  0.00  0.00    +0.000 HD
ATOM     13  H   UNL     1      52.189   3.477  19.820  0.00  0.00    +0.000 HD
ENDBRANCH   1  10
BRANCH   5  14
ATOM     14  C   UNL     1      47.036   4.684  15.211  0.00  0.00    +0.000 C 
BRANCH  14  15
ATOM     15  C   UNL     1      46.255   4.586  13.916  0.00  0.00    +0.000 A 
ATOM     16  C   UNL     1      45.642   5.675  13.282  0.00  0.00    +0.000 A 
ATOM     17  C   UNL     1      44.961   5.515  12.068  0.00  0.00    +0.000 A 
ATOM     18  C   UNL     1      44.913   4.272  11.444  0.00  0.00    +0.000 A 
ATOM     19  C   UNL     1      45.476   3.171  12.089  0.00  0.00    +0.000 A 
ATOM     20  C   UNL     1      46.144   3.324  13.307  0.00  0.00    +0.000 A 
BRANCH  18  21
ATOM     21  O   UNL     1      44.314   3.991  10.255  0.00  0.00    +0.000 OA
BRANCH  21  22
ATOM     22  C   UNL     1      45.066   4.074   9.051  0.00  0.00    +0.000 C 
ATOM     23  F   UNL     1      46.002   5.047   9.040  0.00  0.00    +0.000 F 
ATOM     24  F   UNL     1      45.700   2.895   8.863  0.00  0.00    +0.000 F 
ATOM     25  F   UNL     1      44.224   4.267   8.013  0.00  0.00    +0.000 F 
ENDBRANCH  21  22
ENDBRANCH  18  21
ENDBRANCH  14  15
ENDBRANCH   5  14
TORSDOF 5
ENDMDL
MODEL 9
REMARK VINA RESULT:    -6.106      5.396      7.141
REMARK INTER + INTRA:          -8.369
REMARK INTER:                  -7.599
REMARK INTRA:                  -0.770
REMARK UNBOUND:                -0.479
REMARK  Name = 
REMARK  5 active torsions:
REMARK  status: ('A' for Active; 'I' for Inactive)
REMARK    1  A    between atoms: C_2  and  C_4
REMARK    2  A    between atoms: N_8  and  C_9
REMARK    3  A    between atoms: C_9  and  C_10
REMARK    4  A    between atoms: C_13  and  O_14
REMARK    5  A    between atoms: O_14  and  C_15
REMARK                            x       y       z     vdW  Elec       q    Type
REMARK                         _______ _______ _______ _____ _____    ______ ____
ROOT
ATOM      1  C   UNL     1      50.889   9.135  11.155  0.00  0.00    +0.000 A 
ATOM      2  C   UNL     1      50.612   7.789  11.364  0.00  0.00    +0.000 A 
ATOM      3  C   UNL     1      49.325   7.411  11.754  0.00  0.00    +0.000 A 
ATOM      4  C   UNL     1      48.344   8.380  11.939  0.00  0.00    +0.000 A 
ATOM      5  N   UNL     1      47.038   8.089  12.258  0.00  0.00    +0.000 N 
ATOM      6  N   UNL     1      48.606   9.688  11.751  0.00  0.00    +0.000 NA
ATOM      7  C   UNL     1      49.864  10.042  11.375  0.00  0.00    +0.000 A 
ATOM      8  H   UNL     1      46.528   8.956  12.409  0.00  0.00    +0.000 HD
ENDROOT
BRANCH   1  10
ATOM      9  N   UNL     1      52.854  10.505  11.566  0.00  0.00    +0.000 N 
ATOM     10  C   UNL     1      52.213   9.631  10.731  0.00  0.00    +0.000 C 
ATOM     11  O   UNL     1      52.734   9.251   9.690  0.00  0.00    +0.000 OA
ATOM     12  H   UNL     1      53.799  10.758  11.313  0.00  0.00    +0.000 HD
ATOM     13  H   UNL     1      52.582  10.631  12.532  0.00  0.00    +0.000 HD
ENDBRANCH   1  10
BRANCH   5  14
ATOM     14  C   UNL     1      46.655   6.984  13.114  0.00  0.00    +0.000 C 
BRANCH  14  15
ATOM     15  C   UNL     1      46.030   5.799  12.405  0.00  0.00    +0.000 A 
ATOM     16  C   UNL     1      45.910   4.521  12.967  0.00  0.00    +0.000 A 
ATOM     17  C   UNL     1      45.292   3.478  12.263  0.00  0.00    +0.000 A 
ATOM     18  C   UNL     1      44.748   3.702  11.002  0.00  0.00    +0.000 A 
ATOM     19  C   UNL     1      44.905   4.956  10.413  0.00  0.00    +0.000 A 
ATOM     20  C   UNL     1      45.533   5.995  11.106  0.00  0.00    +0.000 A 
BRANCH  18  21
ATOM     21  O   UNL     1      44.098   2.787  10.232  0.00  0.00    +0.000 OA
BRANCH  21  22
ATOM     22  C   UNL     1      44.747   2.237   9.094  0.00  0.00    +0.000 C 
ATOM     23  F   UNL     1      46.093   2.187   9.184  0.00  0.00    +0.000 F 
ATOM     24  F   UNL     1      44.303   0.971   8.920  0.00  0.00    +0.000 F 
ATOM     25  F   UNL     1      44.410   2.953   8.000  0.00  0.00    +0.000 F 
ENDBRANCH  21  22
ENDBRANCH  18  21
ENDBRANCH  14  15
ENDBRANCH   5  14
TORSDOF 5
ENDMDL
