MODEL 1
REMARK VINA RESULT:    -7.798      0.000      0.000
REMARK INTER + INTRA:         -10.256
REMARK INTER:                  -9.621
REMARK INTRA:                  -0.635
REMARK UNBOUND:                -0.635
REMARK  Name = 
REMARK  5 active torsions:
REMARK  status: ('A' for Active; 'I' for Inactive)
REMARK    1  A    between atoms: C_1  and  C_2
REMARK    2  A    between atoms: C_2  and  N_3
REMARK    3  A    between atoms: C_2  and  C_13
REMARK    4  A    between atoms: N_3  and  C_4
REMARK    5  A    between atoms: C_7  and  C_8
REMARK                            x       y       z     vdW  Elec       q    Type
REMARK                         _______ _______ _______ _____ _____    ______ ____
ROOT
ATOM      1  C   UNL     1      44.571   3.419   9.494  0.00  0.00    +0.000 A 
ATOM      2  C   UNL     1      45.134   4.357   8.620  0.00  0.00    +0.000 A 
ATOM      3  C   UNL     1      46.058   3.979   7.654  0.00  0.00    +0.000 A 
ATOM      4  C   UNL     1      46.418   2.644   7.584  0.00  0.00    +0.000 A 
ATOM      5  N   UNL     1      45.893   1.678   8.393  0.00  0.00    +0.000 NA
ATOM      6  C   UNL     1      44.977   2.097   9.314  0.00  0.00    +0.000 A 
ENDROOT
BRANCH   4   7
ATOM      7  C   UNL     1      47.457   2.225   6.587  0.00  0.00    +0.000 C 
ATOM      8  N   UNL     1      47.444   2.888   5.395  0.00  0.00    +0.000 N 
ATOM      9  O   UNL     1      48.270   1.332   6.815  0.00  0.00    +0.000 OA
ATOM     10  H   UNL     1      46.758   3.620   5.231  0.00  0.00    +0.000 HD
ATOM     11  H   UNL     1      48.111   2.636   4.680  0.00  0.00    +0.000 HD
ENDBRANCH   4   7
BRANCH   1  12
ATOM     12  N   UNL     1      43.689   3.897  10.447  0.00  0.00    +0.000 N 
ATOM     13  H   UNL     1      42.762   3.495  10.320  0.00  0.00    +0.000 HD
BRANCH  12  15
ATOM     14  C   UNL     1      42.379   5.456  11.816  0.00  0.00    +0.000 C 
ATOM     15  C   UNL     1      43.648   5.254  10.981  0.00  0.00    +0.000 C 
BRANCH  15  16
ATOM     16  C   UNL     1      44.845   5.483  11.903  0.00  0.00    +0.000 A 
ATOM     17  C   UNL     1      45.040   4.646  13.015  0.00  0.00    +0.000 A 
ATOM     18  C   UNL     1      46.219   4.717  13.762  0.00  0.00    +0.000 A 
ATOM     19  C   UNL     1      47.216   5.626  13.415  0.00  0.00    +0.000 A 
ATOM     20  C   UNL     1      47.020   6.495  12.348  0.00  0.00    +0.000 A 
ATOM     21  C   UNL     1      45.842   6.429  11.602  0.00  0.00    +0.000 A 
ENDBRANCH  15  16
ENDBRANCH  12  15
ENDBRANCH   1  12
TORSDOF 4
ENDMDL
MODEL 2
REMARK VINA RESULT:    -7.606      1.057      1.953
REMARK INTER + INTRA:         -10.020
REMARK INTER:                  -9.624
REMARK INTRA:                  -0.395
REMARK UNBOUND:                -0.635
REMARK  Name = 
REMARK  5 active torsions:
REMARK  status: ('A' for Active; 'I' for Inactive)
REMARK    1  A    between atoms: C_1  and  C_2
REMARK    2  A    between atoms: C_2  and  N_3
REMARK    3  A    between atoms: C_2  and  C_13
REMARK    4  A    between atoms: N_3  and  C_4
REMARK    5  A    between atoms: C_7  and  C_8
REMARK                            x       y       z     vdW  Elec       q    Type
REMARK                         _______ _______ _______ _____ _____    ______ ____
ROOT
ATOM      1  C   UNL     1      44.659   4.055   9.109  0.00  0.00    +0.000 A 
ATOM      2  C   UNL     1      44.468   2.707   9.438  0.00  0.00    +0.000 A 
ATOM      3  C   UNL     1      45.270   1.711   8.893  0.00  0.00    +0.000 A 
ATOM      4  C   UNL     1      46.261   2.088   8.003  0.00  0.00    +0.000 A 
ATOM      5  N   UNL     1      46.511   3.385   7.656  0.00  0.00    +0.000 NA
ATOM      6  C   UNL     1      45.707   4.326   8.231  0.00  0.00    +0.000 A 
ENDROOT
BRANCH   4   7
ATOM      7  C   UNL     1      47.099   1.024   7.360  0.00  0.00    +0.000 C 
ATOM      8  N   UNL     1      46.754  -0.265   7.646  0.00  0.00    +0.000 N 
ATOM      9  O   UNL     1      48.050   1.285   6.626  0.00  0.00    +0.000 OA
ATOM     10  H   UNL     1      45.965  -0.452   8.259  0.00  0.00    +0.000 HD
ATOM     11  H   UNL     1      47.294  -1.022   7.252  0.00  0.00    +0.000 HD
ENDBRANCH   4   7
BRANCH   1  12
ATOM     12  N   UNL     1      43.786   4.969   9.673  0.00  0.00    +0.000 N 
ATOM     13  H   UNL     1      43.652   5.772   9.059  0.00  0.00    +0.000 HD
BRANCH  12  15
ATOM     14  C   UNL     1      42.964   4.216  11.859  0.00  0.00    +0.000 C 
ATOM     15  C   UNL     1      43.695   5.319  11.086  0.00  0.00    +0.000 C 
BRANCH  15  16
ATOM     16  C   UNL     1      45.099   5.441  11.678  0.00  0.00    +0.000 A 
ATOM     17  C   UNL     1      45.936   6.497  11.278  0.00  0.00    +0.000 A 
ATOM     18  C   UNL     1      47.146   6.737  11.936  0.00  0.00    +0.000 A 
ATOM     19  C   UNL     1      47.540   5.925  12.997  0.00  0.00    +0.000 A 
ATOM     20  C   UNL     1      46.748   4.845  13.375  0.00  0.00    +0.000 A 
ATOM     21  C   UNL     1      45.542   4.602  12.717  0.00  0.00    +0.000 A 
ENDBRANCH  15  16
ENDBRANCH  12  15
ENDBRANCH   1  12
TORSDOF 4
ENDMDL
MODEL 3
REMARK VINA RESULT:    -6.807      3.122      6.286
REMARK INTER + INTRA:          -9.034
REMARK INTER:                  -8.633
REMARK INTRA:                  -0.401
REMARK UNBOUND:                -0.635
REMARK  Name = 
REMARK  5 active torsions:
REMARK  status: ('A' for Active; 'I' for Inactive)
REMARK    1  A    between atoms: C_1  and  C_2
REMARK    2  A    between atoms: C_2  and  N_3
REMARK    3  A    between atoms: C_2  and  C_13
REMARK    4  A    between atoms: N_3  and  C_4
REMARK    5  A    between atoms: C_7  and  C_8
REMARK                            x       y       z     vdW  Elec       q    Type
REMARK                         _______ _______ _______ _____ _____    ______ ____
ROOT
ATOM      1  C   UNL     1      44.911   4.078  11.517  0.00  0.00    +0.000 A 
ATOM      2  C   UNL     1      45.724   3.073  12.053  0.00  0.00    +0.000 A 
ATOM      3  C   UNL     1      46.378   3.245  13.268  0.00  0.00    +0.000 A 
ATOM      4  C   UNL     1      46.211   4.448  13.931  0.00  0.00    +0.000 A 
ATOM      5  N   UNL     1      45.417   5.460  13.472  0.00  0.00    +0.000 NA
ATOM      6  C   UNL     1      44.784   5.235  12.284  0.00  0.00    +0.000 A 
ENDROOT
BRANCH   4   7
ATOM      7  C   UNL     1      46.953   4.677  15.214  0.00  0.00    +0.000 C 
ATOM      8  N   UNL     1      47.753   5.781  15.255  0.00  0.00    +0.000 N 
ATOM      9  O   UNL     1      46.862   3.915  16.176  0.00  0.00    +0.000 OA
ATOM     10  H   UNL     1      47.813   6.392  14.445  0.00  0.00    +0.000 HD
ATOM     11  H   UNL     1      48.288   5.975  16.089  0.00  0.00    +0.000 HD
ENDBRANCH   4   7
BRANCH   1  12
ATOM     12  N   UNL     1      44.333   3.829  10.284  0.00  0.00    +0.000 N 
ATOM     13  H   UNL     1      43.975   2.876  10.235  0.00  0.00    +0.000 HD
BRANCH  12  15
ATOM     14  C   UNL     1      45.791   5.476   9.196  0.00  0.00    +0.000 C 
ATOM     15  C   UNL     1      44.804   4.320   8.995  0.00  0.00    +0.000 C 
BRANCH  15  16
ATOM     16  C   UNL     1      45.547   3.206   8.257  0.00  0.00    +0.000 A 
ATOM     17  C   UNL     1      46.459   3.531   7.238  0.00  0.00    +0.000 A 
ATOM     18  C   UNL     1      47.282   2.550   6.679  0.00  0.00    +0.000 A 
ATOM     19  C   UNL     1      47.204   1.232   7.123  0.00  0.00    +0.000 A 
ATOM     20  C   UNL     1      46.274   0.883   8.096  0.00  0.00    +0.000 A 
ATOM     21  C   UNL     1      45.447   1.860   8.654  0.00  0.00    +0.000 A 
ENDBRANCH  15  16
ENDBRANCH  12  15
ENDBRANCH   1  12
TORSDOF 4
ENDMDL
MODEL 4
REMARK VINA RESULT:    -6.389      3.606      6.590
REMARK INTER + INTRA:          -8.518
REMARK INTER:                  -8.080
REMARK INTRA:                  -0.438
REMARK UNBOUND:                -0.635
REMARK  Name = 
REMARK  5 active torsions:
REMARK  status: ('A' for Active; 'I' for Inactive)
REMARK    1  A    between atoms: C_1  and  C_2
REMARK    2  A    between atoms: C_2  and  N_3
REMARK    3  A    between atoms: C_2  and  C_13
REMARK    4  A    between atoms: N_3  and  C_4
REMARK    5  A    between atoms: C_7  and  C_8
REMARK                            x       y       z     vdW  Elec       q    Type
REMARK                         _______ _______ _______ _____ _____    ______ ____
ROOT
ATOM      1  C   UNL     1      46.303   5.021  12.712  0.00  0.00    +0.000 A 
ATOM      2  C   UNL     1      46.919   6.156  13.253  0.00  0.00    +0.000 A 
ATOM      3  C   UNL     1      47.579   6.105  14.476  0.00  0.00    +0.000 A 
ATOM      4  C   UNL     1      47.600   4.899  15.154  0.00  0.00    +0.000 A 
ATOM      5  N   UNL     1      47.035   3.752  14.672  0.00  0.00    +0.000 NA
ATOM      6  C   UNL     1      46.415   3.850  13.461  0.00  0.00    +0.000 A 
ENDROOT
BRANCH   4   7
ATOM      7  C   UNL     1      48.255   4.836  16.501  0.00  0.00    +0.000 C 
ATOM      8  N   UNL     1      47.552   5.381  17.535  0.00  0.00    +0.000 N 
ATOM      9  O   UNL     1      49.365   4.336  16.674  0.00  0.00    +0.000 OA
ATOM     10  H   UNL     1      46.638   5.791  17.363  0.00  0.00    +0.000 HD
ATOM     11  H   UNL     1      47.952   5.381  18.462  0.00  0.00    +0.000 HD
ENDBRANCH   4   7
BRANCH   1  12
ATOM     12  N   UNL     1      45.639   5.180  11.508  0.00  0.00    +0.000 N 
ATOM     13  H   UNL     1      45.441   6.163  11.328  0.00  0.00    +0.000 HD
BRANCH  12  15
ATOM     14  C   UNL     1      43.350   5.080  10.628  0.00  0.00    +0.000 C 
ATOM     15  C   UNL     1      44.622   4.290  10.960  0.00  0.00    +0.000 C 
BRANCH  15  16
ATOM     16  C   UNL     1      45.128   3.668   9.658  0.00  0.00    +0.000 A 
ATOM     17  C   UNL     1      45.672   4.491   8.657  0.00  0.00    +0.000 A 
ATOM     18  C   UNL     1      46.307   3.934   7.543  0.00  0.00    +0.000 A 
ATOM     19  C   UNL     1      46.402   2.550   7.410  0.00  0.00    +0.000 A 
ATOM     20  C   UNL     1      45.826   1.721   8.366  0.00  0.00    +0.000 A 
ATOM     21  C   UNL     1      45.188   2.275   9.477  0.00  0.00    +0.000 A 
ENDBRANCH  15  16
ENDBRANCH  12  15
ENDBRANCH   1  12
TORSDOF 4
ENDMDL
MODEL 5
REMARK VINA RESULT:    -6.154      3.724      6.347
REMARK INTER + INTRA:          -8.228
REMARK INTER:                  -7.734
REMARK INTRA:                  -0.494
REMARK UNBOUND:                -0.635
REMARK  Name = 
REMARK  5 active torsions:
REMARK  status: ('A' for Active; 'I' for Inactive)
REMARK    1  A    between atoms: C_1  and  C_2
REMARK    2  A    between atoms: C_2  and  N_3
REMARK    3  A    between atoms: C_2  and  C_13
REMARK    4  A    between atoms: N_3  and  C_4
REMARK    5  A    between atoms: C_7  and  C_8
REMARK                            x       y       z     vdW  Elec       q    Type
REMARK                         _______ _______ _______ _____ _____    ______ ____
ROOT
ATOM      1  C   UNL     1      46.433   6.124  12.158  0.00  0.00    +0.000 A 
ATOM      2  C   UNL     1      47.240   7.253  11.972  0.00  0.00    +0.000 A 
ATOM      3  C   UNL     1      48.285   7.543  12.842  0.00  0.00    +0.000 A 
ATOM      4  C   UNL     1      48.502   6.687  13.907  0.00  0.00    +0.000 A 
ATOM      5  N   UNL     1      47.764   5.560  14.132  0.00  0.00    +0.000 NA
ATOM      6  C   UNL     1      46.760   5.311  13.242  0.00  0.00    +0.000 A 
ENDROOT
BRANCH   4   7
ATOM      7  C   UNL     1      49.587   7.013  14.889  0.00  0.00    +0.000 C 
ATOM      8  N   UNL     1      50.281   8.164  14.654  0.00  0.00    +0.000 N 
ATOM      9  O   UNL     1      49.852   6.289  15.847  0.00  0.00    +0.000 OA
ATOM     10  H   UNL     1      50.044   8.742  13.853  0.00  0.00    +0.000 HD
ATOM     11  H   UNL     1      51.033   8.425  15.275  0.00  0.00    +0.000 HD
ENDBRANCH   4   7
BRANCH   1  12
ATOM     12  N   UNL     1      45.393   5.940  11.263  0.00  0.00    +0.000 N 
ATOM     13  H   UNL     1      44.860   6.800  11.141  0.00  0.00    +0.000 HD
BRANCH  12  15
ATOM     14  C   UNL     1      43.096   5.130  10.969  0.00  0.00    +0.000 C 
ATOM     15  C   UNL     1      44.570   4.744  11.129  0.00  0.00    +0.000 C 
BRANCH  15  16
ATOM     16  C   UNL     1      44.981   3.972   9.875  0.00  0.00    +0.000 A 
ATOM     17  C   UNL     1      45.588   4.651   8.805  0.00  0.00    +0.000 A 
ATOM     18  C   UNL     1      46.138   3.945   7.732  0.00  0.00    +0.000 A 
ATOM     19  C   UNL     1      46.084   2.553   7.707  0.00  0.00    +0.000 A 
ATOM     20  C   UNL     1      45.444   1.866   8.734  0.00  0.00    +0.000 A 
ATOM     21  C   UNL     1      44.891   2.570   9.805  0.00  0.00    +0.000 A 
ENDBRANCH  15  16
ENDBRANCH  12  15
ENDBRANCH   1  12
TORSDOF 4
ENDMDL
MODEL 6
REMARK VINA RESULT:    -5.830      4.272      7.108
REMARK INTER + INTRA:          -7.829
REMARK INTER:                  -7.283
REMARK INTRA:                  -0.545
REMARK UNBOUND:                -0.635
REMARK  Name = 
REMARK  5 active torsions:
REMARK  status: ('A' for Active; 'I' for Inactive)
REMARK    1  A    between atoms: C_1  and  C_2
REMARK    2  A    between atoms: C_2  and  N_3
REMARK    3  A    between atoms: C_2  and  C_13
REMARK    4  A    between atoms: N_3  and  C_4
REMARK    5  A    between atoms: C_7  and  C_8
REMARK                            x       y       z     vdW  Elec       q    Type
REMARK                         _______ _______ _______ _____ _____    ______ ____
ROOT
ATOM      1  C   UNL     1      47.149   5.580  13.612  0.00  0.00    +0.000 A 
ATOM      2  C   UNL     1      46.626   4.449  14.249  0.00  0.00    +0.000 A 
ATOM      3  C   UNL     1      47.040   4.082  15.524  0.00  0.00    +0.000 A 
ATOM      4  C   UNL     1      47.998   4.864  16.146  0.00  0.00    +0.000 A 
ATOM      5  N   UNL     1      48.533   5.989  15.588  0.00  0.00    +0.000 NA
ATOM      6  C   UNL     1      48.081   6.316  14.343  0.00  0.00    +0.000 A 
ENDROOT
BRANCH   4   7
ATOM      7  C   UNL     1      48.501   4.453  17.498  0.00  0.00    +0.000 C 
ATOM      8  N   UNL     1      47.651   3.695  18.248  0.00  0.00    +0.000 N 
ATOM      9  O   UNL     1      49.608   4.784  17.920  0.00  0.00    +0.000 OA
ATOM     10  H   UNL     1      46.740   3.439  17.877  0.00  0.00    +0.000 HD
ATOM     11  H   UNL     1      47.932   3.403  19.173  0.00  0.00    +0.000 HD
ENDBRANCH   4   7
BRANCH   1  12
ATOM     12  N   UNL     1      46.703   5.842  12.328  0.00  0.00    +0.000 N 
ATOM     13  H   UNL     1      47.280   6.551  11.879  0.00  0.00    +0.000 HD
BRANCH  12  15
ATOM     14  C   UNL     1      44.960   7.293  11.389  0.00  0.00    +0.000 C 
ATOM     15  C   UNL     1      45.312   5.888  11.891  0.00  0.00    +0.000 C 
BRANCH  15  16
ATOM     16  C   UNL     1      45.105   4.920  10.725  0.00  0.00    +0.000 A 
ATOM     17  C   UNL     1      45.646   5.221   9.464  0.00  0.00    +0.000 A 
ATOM     18  C   UNL     1      45.632   4.273   8.437  0.00  0.00    +0.000 A 
ATOM     19  C   UNL     1      45.072   3.015   8.651  0.00  0.00    +0.000 A 
ATOM     20  C   UNL     1      44.488   2.717   9.878  0.00  0.00    +0.000 A 
ATOM     21  C   UNL     1      44.498   3.664  10.904  0.00  0.00    +0.000 A 
ENDBRANCH  15  16
ENDBRANCH  12  15
ENDBRANCH   1  12
TORSDOF 4
ENDMDL
MODEL 7
REMARK VINA RESULT:    -5.812      3.916      6.641
REMARK INTER + INTRA:          -7.805
REMARK INTER:                  -7.326
REMARK INTRA:                  -0.480
REMARK UNBOUND:                -0.635
REMARK  Name = 
REMARK  5 active torsions:
REMARK  status: ('A' for Active; 'I' for Inactive)
REMARK    1  A    between atoms: C_1  and  C_2
REMARK    2  A    between atoms: C_2  and  N_3
REMARK    3  A    between atoms: C_2  and  C_13
REMARK    4  A    between atoms: N_3  and  C_4
REMARK    5  A    between atoms: C_7  and  C_8
REMARK                            x       y       z     vdW  Elec       q    Type
REMARK                         _______ _______ _______ _____ _____    ______ ____
ROOT
ATOM      1  C   UNL     1      45.731   6.907  11.943  0.00  0.00    +0.000 A 
ATOM      2  C   UNL     1      45.476   8.255  12.219  0.00  0.00    +0.000 A 
ATOM      3  C   UNL     1      46.285   8.979  13.088  0.00  0.00    +0.000 A 
ATOM      4  C   UNL     1      47.348   8.324  13.684  0.00  0.00    +0.000 A 
ATOM      5  N   UNL     1      47.661   7.017  13.442  0.00  0.00    +0.000 NA
ATOM      6  C   UNL     1      46.848   6.356  12.569  0.00  0.00    +0.000 A 
ENDROOT
BRANCH   4   7
ATOM      7  C   UNL     1      48.198   9.071  14.669  0.00  0.00    +0.000 C 
ATOM      8  N   UNL     1      47.656   9.258  15.906  0.00  0.00    +0.000 N 
ATOM      9  O   UNL     1      49.314   9.503  14.385  0.00  0.00    +0.000 OA
ATOM     10  H   UNL     1      46.730   8.894  16.113  0.00  0.00    +0.000 HD
ATOM     11  H   UNL     1      48.178   9.767  16.605  0.00  0.00    +0.000 HD
ENDBRANCH   4   7
BRANCH   1  12
ATOM     12  N   UNL     1      44.848   6.261  11.095  0.00  0.00    +0.000 N 
ATOM     13  H   UNL     1      44.079   6.876  10.832  0.00  0.00    +0.000 HD
BRANCH  12  15
ATOM     14  C   UNL     1      42.926   4.736  11.050  0.00  0.00    +0.000 C 
ATOM     15  C   UNL     1      44.449   4.860  11.169  0.00  0.00    +0.000 C 
BRANCH  15  16
ATOM     16  C   UNL     1      45.064   4.086  10.003  0.00  0.00    +0.000 A 
ATOM     17  C   UNL     1      44.917   2.690   9.937  0.00  0.00    +0.000 A 
ATOM     18  C   UNL     1      45.307   1.984   8.796  0.00  0.00    +0.000 A 
ATOM     19  C   UNL     1      45.855   2.659   7.708  0.00  0.00    +0.000 A 
ATOM     20  C   UNL     1      46.055   4.034   7.774  0.00  0.00    +0.000 A 
ATOM     21  C   UNL     1      45.669   4.740   8.915  0.00  0.00    +0.000 A 
ENDBRANCH  15  16
ENDBRANCH  12  15
ENDBRANCH   1  12
TORSDOF 4
ENDMDL
MODEL 8
REMARK VINA RESULT:    -5.680      3.097      4.950
REMARK INTER + INTRA:          -7.643
REMARK INTER:                  -7.109
REMARK INTRA:                  -0.534
REMARK UNBOUND:                -0.635
REMARK  Name = 
REMARK  5 active torsions:
REMARK  status: ('A' for Active; 'I' for Inactive)
REMARK    1  A    between atoms: C_1  and  C_2
REMARK    2  A    between atoms: C_2  and  N_3
REMARK    3  A    between atoms: C_2  and  C_13
REMARK    4  A    between atoms: N_3  and  C_4
REMARK    5  A    between atoms: C_7  and  C_8
REMARK                            x       y       z     vdW  Elec       q    Type
REMARK                         _______ _______ _______ _____ _____    ______ ____
ROOT
ATOM      1  C   UNL     1      46.049   5.281  12.873  0.00  0.00    +0.000 A 
ATOM      2  C   UNL     1      45.703   3.925  12.910  0.00  0.00    +0.000 A 
ATOM      3  C   UNL     1      45.173   3.285  11.795  0.00  0.00    +0.000 A 
ATOM      4  C   UNL     1      44.986   4.031  10.645  0.00  0.00    +0.000 A 
ATOM      5  N   UNL     1      45.320   5.351  10.538  0.00  0.00    +0.000 NA
ATOM      6  C   UNL     1      45.852   5.928  11.654  0.00  0.00    +0.000 A 
ENDROOT
BRANCH   4   7
ATOM      7  C   UNL     1      44.362   3.375   9.450  0.00  0.00    +0.000 C 
ATOM      8  N   UNL     1      44.157   4.177   8.365  0.00  0.00    +0.000 N 
ATOM      9  O   UNL     1      44.040   2.188   9.439  0.00  0.00    +0.000 OA
ATOM     10  H   UNL     1      44.429   5.155   8.402  0.00  0.00    +0.000 HD
ATOM     11  H   UNL     1      43.726   3.791   7.538  0.00  0.00    +0.000 HD
ENDBRANCH   4   7
BRANCH   1  12
ATOM     12  N   UNL     1      46.533   5.838  14.044  0.00  0.00    +0.000 N 
ATOM     13  H   UNL     1      46.095   6.739  14.227  0.00  0.00    +0.000 HD
BRANCH  12  15
ATOM     14  C   UNL     1      48.497   7.181  14.647  0.00  0.00    +0.000 C 
ATOM     15  C   UNL     1      47.908   5.771  14.528  0.00  0.00    +0.000 C 
BRANCH  15  16
ATOM     16  C   UNL     1      47.934   5.143  15.922  0.00  0.00    +0.000 A 
ATOM     17  C   UNL     1      47.310   3.902  16.140  0.00  0.00    +0.000 A 
ATOM     18  C   UNL     1      47.477   3.223  17.350  0.00  0.00    +0.000 A 
ATOM     19  C   UNL     1      48.263   3.774  18.360  0.00  0.00    +0.000 A 
ATOM     20  C   UNL     1      48.847   5.023  18.180  0.00  0.00    +0.000 A 
ATOM     21  C   UNL     1      48.679   5.705  16.974  0.00  0.00    +0.000 A 
ENDBRANCH  15  16
ENDBRANCH  12  15
ENDBRANCH   1  12
TORSDOF 4
ENDMDL
MODEL 9
REMARK VINA RESULT:    -5.364      3.396      5.465
REMARK INTER + INTRA:          -7.253
REMARK INTER:                  -6.862
REMARK INTRA:                  -0.391
REMARK UNBOUND:                -0.635
REMARK  Name = 
REMARK  5 active torsions:
REMARK  status: ('A' for Active; 'I' for Inactive)
REMARK    1  A    between atoms: C_1  and  C_2
REMARK    2  A    between atoms: C_2  and  N_3
REMARK    3  A    between atoms: C_2  and  C_13
REMARK    4  A    between atoms: N_3  and  C_4
REMARK    5  A    between atoms: C_7  and  C_8
REMARK                            x       y       z     vdW  Elec       q    Type
REMARK                         _______ _______ _______ _____ _____    ______ ____
ROOT
ATOM      1  C   UNL     1      45.773   6.386  12.641  0.00  0.00    +0.000 A 
ATOM      2  C   UNL     1      45.563   5.248  13.428  0.00  0.00    +0.000 A 
ATOM      3  C   UNL     1      45.000   4.095  12.892  0.00  0.00    +0.000 A 
ATOM      4  C   UNL     1      44.641   4.107  11.555  0.00  0.00    +0.000 A 
ATOM      5  N   UNL     1      44.837   5.177  10.731  0.00  0.00    +0.000 NA
ATOM      6  C   UNL     1      45.408   6.278  11.300  0.00  0.00    +0.000 A 
ENDROOT
BRANCH   4   7
ATOM      7  C   UNL     1      43.980   2.894  10.972  0.00  0.00    +0.000 C 
ATOM      8  N   UNL     1      44.594   2.341   9.886  0.00  0.00    +0.000 N 
ATOM      9  O   UNL     1      42.941   2.422  11.430  0.00  0.00    +0.000 OA
ATOM     10  H   UNL     1      45.449   2.753   9.526  0.00  0.00    +0.000 HD
ATOM     11  H   UNL     1      44.184   1.532   9.443  0.00  0.00    +0.000 HD
ENDBRANCH   4   7
BRANCH   1  12
ATOM     12  N   UNL     1      46.302   7.498  13.274  0.00  0.00    +0.000 N 
ATOM     13  H   UNL     1      45.653   8.282  13.239  0.00  0.00    +0.000 HD
BRANCH  12  15
ATOM     14  C   UNL     1      48.558   6.873  12.536  0.00  0.00    +0.000 C 
ATOM     15  C   UNL     1      47.698   7.921  13.250  0.00  0.00    +0.000 C 
BRANCH  15  16
ATOM     16  C   UNL     1      47.827   9.229  12.469  0.00  0.00    +0.000 A 
ATOM     17  C   UNL     1      49.062   9.581  11.895  0.00  0.00    +0.000 A 
ATOM     18  C   UNL     1      49.160  10.671  11.027  0.00  0.00    +0.000 A 
ATOM     19  C   UNL     1      48.031  11.429  10.723  0.00  0.00    +0.000 A 
ATOM     20  C   UNL     1      46.812  11.126  11.320  0.00  0.00    +0.000 A 
ATOM     21  C   UNL     1      46.712  10.040  12.191  0.00  0.00    +0.000 A 
ENDBRANCH  15  16
ENDBRANCH  12  15
ENDBRANCH   1  12
TORSDOF 4
ENDMDL
