MODEL 1
REMARK VINA RESULT:    -7.135      0.000      0.000
REMARK INTER + INTRA:          -9.146
REMARK INTER:                  -8.386
REMARK INTRA:                  -0.759
REMARK UNBOUND:                -0.759
REMARK  Name = 
REMARK  6 active torsions:
REMARK  status: ('A' for Active; 'I' for Inactive)
REMARK    1  A    between atoms: C_1  and  C_2
REMARK    2  A    between atoms: C_2  and  C_3
REMARK    3  A    between atoms: C_2  and  C_4
REMARK    4  A    between atoms: C_2  and  C_5
REMARK    5  A    between atoms: C_8  and  C_9
REMARK    6  A    between atoms: C_9  and  N_10
REMARK                            x       y       z     vdW  Elec       q    Type
REMARK                         _______ _______ _______ _____ _____    ______ ____
ROOT
ATOM      1  C   UNL     1      46.044   2.710   7.879  0.00  0.00    +0.000 A 
ATOM      2  C   UNL     1      45.322   1.970   8.832  0.00  0.00    +0.000 A 
ATOM      3  C   UNL     1      44.569   2.595   9.834  0.00  0.00    +0.000 A 
ATOM      4  C   UNL     1      44.521   3.987   9.928  0.00  0.00    +0.000 A 
ATOM      5  C   UNL     1      45.233   4.739   8.989  0.00  0.00    +0.000 A 
ATOM      6  C   UNL     1      45.983   4.110   7.986  0.00  0.00    +0.000 A 
ENDROOT
BRANCH   1   8
ATOM      7  C   UNL     1      46.388   2.208   5.384  0.00  0.00    +0.000 C 
ATOM      8  C   UNL     1      46.925   2.015   6.823  0.00  0.00    +0.000 C 
ATOM      9  C   UNL     1      46.952   0.505   7.132  0.00  0.00    +0.000 C 
ATOM     10  C   UNL     1      48.380   2.535   6.813  0.00  0.00    +0.000 C 
ENDBRANCH   1   8
BRANCH   4  11
ATOM     11  C   UNL     1      43.746   4.656  11.034  0.00  0.00    +0.000 C 
BRANCH  11  12
ATOM     12  N   UNL     1      44.620   5.342  11.980  0.00  0.00    +0.000 N 
ATOM     13  C   UNL     1      45.409   4.698  12.906  0.00  0.00    +0.000 A 
ATOM     14  C   UNL     1      46.187   5.640  13.541  0.00  0.00    +0.000 A 
ATOM     15  C   UNL     1      45.865   6.897  12.980  0.00  0.00    +0.000 A 
ATOM     16  N   UNL     1      46.394   8.111  13.273  0.00  0.00    +0.000 NA
ATOM     17  C   UNL     1      45.885   9.135  12.564  0.00  0.00    +0.000 A 
ATOM     18  C   UNL     1      44.892   9.035  11.601  0.00  0.00    +0.000 A 
ATOM     19  C   UNL     1      44.354   7.785  11.304  0.00  0.00    +0.000 A 
ATOM     20  C   UNL     1      44.875   6.701  12.017  0.00  0.00    +0.000 A 
ENDBRANCH  11  12
ENDBRANCH   4  11
TORSDOF 3
ENDMDL
MODEL 2
REMARK VINA RESULT:    -6.356      2.224      6.700
REMARK INTER + INTRA:          -8.230
REMARK INTER:                  -7.687
REMARK INTRA:                  -0.543
REMARK UNBOUND:                -0.759
REMARK  Name = 
REMARK  6 active torsions:
REMARK  status: ('A' for Active; 'I' for Inactive)
REMARK    1  A    between atoms: C_1  and  C_2
REMARK    2  A    between atoms: C_2  and  C_3
REMARK    3  A    between atoms: C_2  and  C_4
REMARK    4  A    between atoms: C_2  and  C_5
REMARK    5  A    between atoms: C_8  and  C_9
REMARK    6  A    between atoms: C_9  and  N_10
REMARK                            x       y       z     vdW  Elec       q    Type
REMARK                         _______ _______ _______ _____ _____    ______ ____
ROOT
ATOM      1  C   UNL     1      47.652   7.576  13.663  0.00  0.00    +0.000 A 
ATOM      2  C   UNL     1      47.409   6.233  13.328  0.00  0.00    +0.000 A 
ATOM      3  C   UNL     1      46.261   5.845  12.626  0.00  0.00    +0.000 A 
ATOM      4  C   UNL     1      45.304   6.788  12.244  0.00  0.00    +0.000 A 
ATOM      5  C   UNL     1      45.529   8.128  12.568  0.00  0.00    +0.000 A 
ATOM      6  C   UNL     1      46.682   8.513  13.269  0.00  0.00    +0.000 A 
ENDROOT
BRANCH   1   8
ATOM      7  C   UNL     1      50.154   8.154  13.628  0.00  0.00    +0.000 C 
ATOM      8  C   UNL     1      48.883   7.985  14.495  0.00  0.00    +0.000 C 
ATOM      9  C   UNL     1      49.150   6.883  15.539  0.00  0.00    +0.000 C 
ATOM     10  C   UNL     1      48.689   9.325  15.241  0.00  0.00    +0.000 C 
ENDBRANCH   1   8
BRANCH   4  11
ATOM     11  C   UNL     1      44.048   6.362  11.528  0.00  0.00    +0.000 C 
BRANCH  11  12
ATOM     12  N   UNL     1      44.029   4.928  11.257  0.00  0.00    +0.000 N 
ATOM     13  C   UNL     1      43.334   4.011  12.012  0.00  0.00    +0.000 A 
ATOM     14  C   UNL     1      43.438   2.781  11.402  0.00  0.00    +0.000 A 
ATOM     15  C   UNL     1      44.217   2.956  10.235  0.00  0.00    +0.000 A 
ATOM     16  N   UNL     1      44.563   2.030   9.308  0.00  0.00    +0.000 NA
ATOM     17  C   UNL     1      45.315   2.500   8.294  0.00  0.00    +0.000 A 
ATOM     18  C   UNL     1      45.746   3.809   8.149  0.00  0.00    +0.000 A 
ATOM     19  C   UNL     1      45.386   4.756   9.106  0.00  0.00    +0.000 A 
ATOM     20  C   UNL     1      44.593   4.297  10.163  0.00  0.00    +0.000 A 
ENDBRANCH  11  12
ENDBRANCH   4  11
TORSDOF 3
ENDMDL
MODEL 3
REMARK VINA RESULT:    -6.299      2.388      6.271
REMARK INTER + INTRA:          -8.163
REMARK INTER:                  -7.518
REMARK INTRA:                  -0.645
REMARK UNBOUND:                -0.759
REMARK  Name = 
REMARK  6 active torsions:
REMARK  status: ('A' for Active; 'I' for Inactive)
REMARK    1  A    between atoms: C_1  and  C_2
REMARK    2  A    between atoms: C_2  and  C_3
REMARK    3  A    between atoms: C_2  and  C_4
REMARK    4  A    between atoms: C_2  and  C_5
REMARK    5  A    between atoms: C_8  and  C_9
REMARK    6  A    between atoms: C_9  and  N_10
REMARK                            x       y       z     vdW  Elec       q    Type
REMARK                         _______ _______ _______ _____ _____    ______ ____
ROOT
ATOM      1  C   UNL     1      48.058   7.652  12.683  0.00  0.00    +0.000 A 
ATOM      2  C   UNL     1      46.979   8.363  12.131  0.00  0.00    +0.000 A 
ATOM      3  C   UNL     1      45.686   7.826  12.089  0.00  0.00    +0.000 A 
ATOM      4  C   UNL     1      45.428   6.547  12.588  0.00  0.00    +0.000 A 
ATOM      5  C   UNL     1      46.489   5.826  13.141  0.00  0.00    +0.000 A 
ATOM      6  C   UNL     1      47.782   6.369  13.184  0.00  0.00    +0.000 A 
ENDROOT
BRANCH   1   8
ATOM      7  C   UNL     1      49.509   9.771  12.643  0.00  0.00    +0.000 C 
ATOM      8  C   UNL     1      49.489   8.224  12.662  0.00  0.00    +0.000 C 
ATOM      9  C   UNL     1      50.197   7.713  11.391  0.00  0.00    +0.000 C 
ATOM     10  C   UNL     1      50.327   7.797  13.890  0.00  0.00    +0.000 C 
ENDBRANCH   1   8
BRANCH   4  11
ATOM     11  C   UNL     1      44.046   5.954  12.502  0.00  0.00    +0.000 C 
BRANCH  11  12
ATOM     12  N   UNL     1      44.057   4.615  11.922  0.00  0.00    +0.000 N 
ATOM     13  C   UNL     1      43.464   3.518  12.505  0.00  0.00    +0.000 A 
ATOM     14  C   UNL     1      43.562   2.459  11.631  0.00  0.00    +0.000 A 
ATOM     15  C   UNL     1      44.231   2.927  10.477  0.00  0.00    +0.000 A 
ATOM     16  N   UNL     1      44.531   2.246   9.343  0.00  0.00    +0.000 NA
ATOM     17  C   UNL     1      45.175   2.967   8.406  0.00  0.00    +0.000 A 
ATOM     18  C   UNL     1      45.542   4.298   8.523  0.00  0.00    +0.000 A 
ATOM     19  C   UNL     1      45.230   4.992   9.690  0.00  0.00    +0.000 A 
ATOM     20  C   UNL     1      44.548   4.271  10.676  0.00  0.00    +0.000 A 
ENDBRANCH  11  12
ENDBRANCH   4  11
TORSDOF 3
ENDMDL
MODEL 4
REMARK VINA RESULT:    -5.482      3.288      5.981
REMARK INTER + INTRA:          -7.202
REMARK INTER:                  -6.457
REMARK INTRA:                  -0.745
REMARK UNBOUND:                -0.759
REMARK  Name = 
REMARK  6 active torsions:
REMARK  status: ('A' for Active; 'I' for Inactive)
REMARK    1  A    between atoms: C_1  and  C_2
REMARK    2  A    between atoms: C_2  and  C_3
REMARK    3  A    between atoms: C_2  and  C_4
REMARK    4  A    between atoms: C_2  and  C_5
REMARK    5  A    between atoms: C_8  and  C_9
REMARK    6  A    between atoms: C_9  and  N_10
REMARK                            x       y       z     vdW  Elec       q    Type
REMARK                         _______ _______ _______ _____ _____    ______ ____
ROOT
ATOM      1  C   UNL     1      45.171   5.237  12.053  0.00  0.00    +0.000 A 
ATOM      2  C   UNL     1      45.772   4.757  13.230  0.00  0.00    +0.000 A 
ATOM      3  C   UNL     1      46.972   5.291  13.716  0.00  0.00    +0.000 A 
ATOM      4  C   UNL     1      47.624   6.320  13.033  0.00  0.00    +0.000 A 
ATOM      5  C   UNL     1      47.041   6.810  11.861  0.00  0.00    +0.000 A 
ATOM      6  C   UNL     1      45.838   6.274  11.379  0.00  0.00    +0.000 A 
ENDROOT
BRANCH   1   8
ATOM      7  C   UNL     1      43.571   3.230  12.143  0.00  0.00    +0.000 C 
ATOM      8  C   UNL     1      43.888   4.597  11.490  0.00  0.00    +0.000 C 
ATOM      9  C   UNL     1      44.079   4.378   9.975  0.00  0.00    +0.000 C 
ATOM     10  C   UNL     1      42.634   5.476  11.699  0.00  0.00    +0.000 C 
ENDBRANCH   1   8
BRANCH   4  11
ATOM     11  C   UNL     1      48.938   6.862  13.534  0.00  0.00    +0.000 C 
BRANCH  11  12
ATOM     12  N   UNL     1      48.781   7.634  14.762  0.00  0.00    +0.000 N 
ATOM     13  C   UNL     1      48.325   8.932  14.803  0.00  0.00    +0.000 A 
ATOM     14  C   UNL     1      48.187   9.299  16.123  0.00  0.00    +0.000 A 
ATOM     15  C   UNL     1      48.566   8.188  16.910  0.00  0.00    +0.000 A 
ATOM     16  N   UNL     1      48.569   8.075  18.261  0.00  0.00    +0.000 NA
ATOM     17  C   UNL     1      48.981   6.881  18.727  0.00  0.00    +0.000 A 
ATOM     18  C   UNL     1      49.392   5.810  17.949  0.00  0.00    +0.000 A 
ATOM     19  C   UNL     1      49.386   5.932  16.561  0.00  0.00    +0.000 A 
ATOM     20  C   UNL     1      48.949   7.159  16.050  0.00  0.00    +0.000 A 
ENDBRANCH  11  12
ENDBRANCH   4  11
TORSDOF 3
ENDMDL
MODEL 5
REMARK VINA RESULT:    -5.330      3.547      7.907
REMARK INTER + INTRA:          -7.024
REMARK INTER:                  -6.392
REMARK INTRA:                  -0.632
REMARK UNBOUND:                -0.759
REMARK  Name = 
REMARK  6 active torsions:
REMARK  status: ('A' for Active; 'I' for Inactive)
REMARK    1  A    between atoms: C_1  and  C_2
REMARK    2  A    between atoms: C_2  and  C_3
REMARK    3  A    between atoms: C_2  and  C_4
REMARK    4  A    between atoms: C_2  and  C_5
REMARK    5  A    between atoms: C_8  and  C_9
REMARK    6  A    between atoms: C_9  and  N_10
REMARK                            x       y       z     vdW  Elec       q    Type
REMARK                         _______ _______ _______ _____ _____    ______ ____
ROOT
ATOM      1  C   UNL     1      48.230   5.500  17.139  0.00  0.00    +0.000 A 
ATOM      2  C   UNL     1      48.786   6.560  16.403  0.00  0.00    +0.000 A 
ATOM      3  C   UNL     1      48.595   6.677  15.020  0.00  0.00    +0.000 A 
ATOM      4  C   UNL     1      47.849   5.727  14.319  0.00  0.00    +0.000 A 
ATOM      5  C   UNL     1      47.288   4.667  15.036  0.00  0.00    +0.000 A 
ATOM      6  C   UNL     1      47.479   4.555  16.420  0.00  0.00    +0.000 A 
ENDROOT
BRANCH   1   8
ATOM      7  C   UNL     1      49.839   5.989  19.080  0.00  0.00    +0.000 C 
ATOM      8  C   UNL     1      48.501   5.342  18.648  0.00  0.00    +0.000 C 
ATOM      9  C   UNL     1      48.563   3.836  18.974  0.00  0.00    +0.000 C 
ATOM     10  C   UNL     1      47.406   5.986  19.529  0.00  0.00    +0.000 C 
ENDBRANCH   1   8
BRANCH   4  11
ATOM     11  C   UNL     1      47.682   5.831  12.825  0.00  0.00    +0.000 C 
BRANCH  11  12
ATOM     12  N   UNL     1      46.307   6.135  12.445  0.00  0.00    +0.000 N 
ATOM     13  C   UNL     1      45.839   7.406  12.197  0.00  0.00    +0.000 A 
ATOM     14  C   UNL     1      44.542   7.308  11.747  0.00  0.00    +0.000 A 
ATOM     15  C   UNL     1      44.211   5.934  11.714  0.00  0.00    +0.000 A 
ATOM     16  N   UNL     1      43.051   5.357  11.316  0.00  0.00    +0.000 NA
ATOM     17  C   UNL     1      43.033   4.013  11.394  0.00  0.00    +0.000 A 
ATOM     18  C   UNL     1      44.075   3.217  11.842  0.00  0.00    +0.000 A 
ATOM     19  C   UNL     1      45.265   3.817  12.249  0.00  0.00    +0.000 A 
ATOM     20  C   UNL     1      45.315   5.212  12.166  0.00  0.00    +0.000 A 
ENDBRANCH  11  12
ENDBRANCH   4  11
TORSDOF 3
ENDMDL
MODEL 6
REMARK VINA RESULT:    -5.247      3.476      5.807
REMARK INTER + INTRA:          -6.927
REMARK INTER:                  -6.392
REMARK INTRA:                  -0.535
REMARK UNBOUND:                -0.759
REMARK  Name = 
REMARK  6 active torsions:
REMARK  status: ('A' for Active; 'I' for Inactive)
REMARK    1  A    between atoms: C_1  and  C_2
REMARK    2  A    between atoms: C_2  and  C_3
REMARK    3  A    between atoms: C_2  and  C_4
REMARK    4  A    between atoms: C_2  and  C_5
REMARK    5  A    between atoms: C_8  and  C_9
REMARK    6  A    between atoms: C_9  and  N_10
REMARK                            x       y       z     vdW  Elec       q    Type
REMARK                         _______ _______ _______ _____ _____    ______ ____
ROOT
ATOM      1  C   UNL     1      45.101   5.158  11.893  0.00  0.00    +0.000 A 
ATOM      2  C   UNL     1      45.662   4.800  13.131  0.00  0.00    +0.000 A 
ATOM      3  C   UNL     1      46.861   5.361  13.587  0.00  0.00    +0.000 A 
ATOM      4  C   UNL     1      47.553   6.294  12.812  0.00  0.00    +0.000 A 
ATOM      5  C   UNL     1      47.010   6.662  11.578  0.00  0.00    +0.000 A 
ATOM      6  C   UNL     1      45.808   6.101  11.127  0.00  0.00    +0.000 A 
ENDROOT
BRANCH   1   8
ATOM      7  C   UNL     1      43.595   3.080  11.977  0.00  0.00    +0.000 C 
ATOM      8  C   UNL     1      43.818   4.486  11.369  0.00  0.00    +0.000 C 
ATOM      9  C   UNL     1      43.937   4.339   9.839  0.00  0.00    +0.000 C 
ATOM     10  C   UNL     1      42.540   5.298  11.681  0.00  0.00    +0.000 C 
ENDBRANCH   1   8
BRANCH   4  11
ATOM     11  C   UNL     1      48.866   6.863  13.285  0.00  0.00    +0.000 C 
BRANCH  11  12
ATOM     12  N   UNL     1      49.149   8.163  12.688  0.00  0.00    +0.000 N 
ATOM     13  C   UNL     1      48.504   9.328  13.036  0.00  0.00    +0.000 A 
ATOM     14  C   UNL     1      49.105  10.371  12.368  0.00  0.00    +0.000 A 
ATOM     15  C   UNL     1      50.153   9.825  11.593  0.00  0.00    +0.000 A 
ATOM     16  N   UNL     1      51.033  10.473  10.791  0.00  0.00    +0.000 NA
ATOM     17  C   UNL     1      51.931   9.678  10.178  0.00  0.00    +0.000 A 
ATOM     18  C   UNL     1      52.004   8.300  10.302  0.00  0.00    +0.000 A 
ATOM     19  C   UNL     1      51.097   7.640  11.129  0.00  0.00    +0.000 A 
ATOM     20  C   UNL     1      50.162   8.444  11.789  0.00  0.00    +0.000 A 
ENDBRANCH  11  12
ENDBRANCH   4  11
TORSDOF 3
ENDMDL
MODEL 7
REMARK VINA RESULT:    -5.165      3.113      6.805
REMARK INTER + INTRA:          -6.830
REMARK INTER:                  -6.158
REMARK INTRA:                  -0.672
REMARK UNBOUND:                -0.759
REMARK  Name = 
REMARK  6 active torsions:
REMARK  status: ('A' for Active; 'I' for Inactive)
REMARK    1  A    between atoms: C_1  and  C_2
REMARK    2  A    between atoms: C_2  and  C_3
REMARK    3  A    between atoms: C_2  and  C_4
REMARK    4  A    between atoms: C_2  and  C_5
REMARK    5  A    between atoms: C_8  and  C_9
REMARK    6  A    between atoms: C_9  and  N_10
REMARK                            x       y       z     vdW  Elec       q    Type
REMARK                         _______ _______ _______ _____ _____    ______ ____
ROOT
ATOM      1  C   UNL     1      49.564   8.688  12.632  0.00  0.00    +0.000 A 
ATOM      2  C   UNL     1      49.232   7.722  11.666  0.00  0.00    +0.000 A 
ATOM      3  C   UNL     1      47.902   7.381  11.392  0.00  0.00    +0.000 A 
ATOM      4  C   UNL     1      46.852   7.986  12.086  0.00  0.00    +0.000 A 
ATOM      5  C   UNL     1      47.164   8.949  13.050  0.00  0.00    +0.000 A 
ATOM      6  C   UNL     1      48.497   9.290  13.319  0.00  0.00    +0.000 A 
ENDROOT
BRANCH   1   8
ATOM      7  C   UNL     1      51.458   8.435  14.348  0.00  0.00    +0.000 C 
ATOM      8  C   UNL     1      51.032   9.007  12.975  0.00  0.00    +0.000 C 
ATOM      9  C   UNL     1      51.199  10.539  13.014  0.00  0.00    +0.000 C 
ATOM     10  C   UNL     1      52.031   8.436  11.941  0.00  0.00    +0.000 C 
ENDBRANCH   1   8
BRANCH   4  11
ATOM     11  C   UNL     1      45.423   7.586  11.821  0.00  0.00    +0.000 C 
BRANCH  11  12
ATOM     12  N   UNL     1      45.221   6.148  11.961  0.00  0.00    +0.000 N 
ATOM     13  C   UNL     1      44.919   5.524  13.152  0.00  0.00    +0.000 A 
ATOM     14  C   UNL     1      44.676   4.194  12.893  0.00  0.00    +0.000 A 
ATOM     15  C   UNL     1      44.828   4.002  11.501  0.00  0.00    +0.000 A 
ATOM     16  N   UNL     1      44.664   2.863  10.785  0.00  0.00    +0.000 NA
ATOM     17  C   UNL     1      44.876   2.991   9.462  0.00  0.00    +0.000 A 
ATOM     18  C   UNL     1      45.243   4.160   8.814  0.00  0.00    +0.000 A 
ATOM     19  C   UNL     1      45.410   5.328   9.555  0.00  0.00    +0.000 A 
ATOM     20  C   UNL     1      45.183   5.225  10.931  0.00  0.00    +0.000 A 
ENDBRANCH  11  12
ENDBRANCH   4  11
TORSDOF 3
ENDMDL
MODEL 8
REMARK VINA RESULT:    -5.021      3.314      5.423
REMARK INTER + INTRA:          -6.661
REMARK INTER:                  -6.094
REMARK INTRA:                  -0.567
REMARK UNBOUND:                -0.759
REMARK  Name = 
REMARK  6 active torsions:
REMARK  status: ('A' for Active; 'I' for Inactive)
REMARK    1  A    between atoms: C_1  and  C_2
REMARK    2  A    between atoms: C_2  and  C_3
REMARK    3  A    between atoms: C_2  and  C_4
REMARK    4  A    between atoms: C_2  and  C_5
REMARK    5  A    between atoms: C_8  and  C_9
REMARK    6  A    between atoms: C_9  and  N_10
REMARK                            x       y       z     vdW  Elec       q    Type
REMARK                         _______ _______ _______ _____ _____    ______ ____
ROOT
ATOM      1  C   UNL     1      45.074   5.203  11.938  0.00  0.00    +0.000 A 
ATOM      2  C   UNL     1      45.752   4.683  13.054  0.00  0.00    +0.000 A 
ATOM      3  C   UNL     1      46.983   5.200  13.476  0.00  0.00    +0.000 A 
ATOM      4  C   UNL     1      47.590   6.252  12.786  0.00  0.00    +0.000 A 
ATOM      5  C   UNL     1      46.930   6.782  11.674  0.00  0.00    +0.000 A 
ATOM      6  C   UNL     1      45.696   6.263  11.257  0.00  0.00    +0.000 A 
ENDROOT
BRANCH   1   8
ATOM      7  C   UNL     1      43.451   3.220  12.108  0.00  0.00    +0.000 C 
ATOM      8  C   UNL     1      43.754   4.583  11.440  0.00  0.00    +0.000 C 
ATOM      9  C   UNL     1      43.864   4.364   9.918  0.00  0.00    +0.000 C 
ATOM     10  C   UNL     1      42.525   5.480  11.715  0.00  0.00    +0.000 C 
ENDBRANCH   1   8
BRANCH   4  11
ATOM     11  C   UNL     1      48.935   6.777  13.216  0.00  0.00    +0.000 C 
BRANCH  11  12
ATOM     12  N   UNL     1      48.849   7.587  14.426  0.00  0.00    +0.000 N 
ATOM     13  C   UNL     1      48.795   7.066  15.699  0.00  0.00    +0.000 A 
ATOM     14  C   UNL     1      48.845   8.111  16.595  0.00  0.00    +0.000 A 
ATOM     15  C   UNL     1      48.938   9.305  15.844  0.00  0.00    +0.000 A 
ATOM     16  N   UNL     1      49.036  10.579  16.297  0.00  0.00    +0.000 NA
ATOM     17  C   UNL     1      49.114  11.516  15.333  0.00  0.00    +0.000 A 
ATOM     18  C   UNL     1      49.093  11.274  13.969  0.00  0.00    +0.000 A 
ATOM     19  C   UNL     1      48.994   9.962  13.510  0.00  0.00    +0.000 A 
ATOM     20  C   UNL     1      48.924   8.967  14.491  0.00  0.00    +0.000 A 
ENDBRANCH  11  12
ENDBRANCH   4  11
TORSDOF 3
ENDMDL
MODEL 9
REMARK VINA RESULT:    -5.011      4.253      8.387
REMARK INTER + INTRA:          -6.650
REMARK INTER:                  -6.354
REMARK INTRA:                  -0.296
REMARK UNBOUND:                -0.759
REMARK  Name = 
REMARK  6 active torsions:
REMARK  status: ('A' for Active; 'I' for Inactive)
REMARK    1  A    between atoms: C_1  and  C_2
REMARK    2  A    between atoms: C_2  and  C_3
REMARK    3  A    between atoms: C_2  and  C_4
REMARK    4  A    between atoms: C_2  and  C_5
REMARK    5  A    between atoms: C_8  and  C_9
REMARK    6  A    between atoms: C_9  and  N_10
REMARK                            x       y       z     vdW  Elec       q    Type
REMARK                         _______ _______ _______ _____ _____    ______ ____
ROOT
ATOM      1  C   UNL     1      48.183   5.799  18.180  0.00  0.00    +0.000 A 
ATOM      2  C   UNL     1      47.381   4.649  18.083  0.00  0.00    +0.000 A 
ATOM      3  C   UNL     1      47.055   4.081  16.845  0.00  0.00    +0.000 A 
ATOM      4  C   UNL     1      47.511   4.652  15.655  0.00  0.00    +0.000 A 
ATOM      5  C   UNL     1      48.311   5.795  15.733  0.00  0.00    +0.000 A 
ATOM      6  C   UNL     1      48.637   6.360  16.975  0.00  0.00    +0.000 A 
ENDROOT
BRANCH   1   8
ATOM      7  C   UNL     1      47.423   6.100  20.615  0.00  0.00    +0.000 C 
ATOM      8  C   UNL     1      48.480   6.457  19.542  0.00  0.00    +0.000 C 
ATOM      9  C   UNL     1      48.482   7.987  19.352  0.00  0.00    +0.000 C 
ATOM     10  C   UNL     1      49.848   6.038  20.129  0.00  0.00    +0.000 C 
ENDBRANCH   1   8
BRANCH   4  11
ATOM     11  C   UNL     1      47.122   4.064  14.323  0.00  0.00    +0.000 C 
BRANCH  11  12
ATOM     12  N   UNL     1      46.626   5.078  13.398  0.00  0.00    +0.000 N 
ATOM     13  C   UNL     1      47.430   5.989  12.750  0.00  0.00    +0.000 A 
ATOM     14  C   UNL     1      46.649   6.704  11.870  0.00  0.00    +0.000 A 
ATOM     15  C   UNL     1      45.329   6.209  11.981  0.00  0.00    +0.000 A 
ATOM     16  N   UNL     1      44.226   6.592  11.293  0.00  0.00    +0.000 NA
ATOM     17  C   UNL     1      43.100   5.929  11.618  0.00  0.00    +0.000 A 
ATOM     18  C   UNL     1      42.999   4.930  12.573  0.00  0.00    +0.000 A 
ATOM     19  C   UNL     1      44.138   4.541  13.276  0.00  0.00    +0.000 A 
ATOM     20  C   UNL     1      45.324   5.205  12.949  0.00  0.00    +0.000 A 
ENDBRANCH  11  12
ENDBRANCH   4  11
TORSDOF 3
ENDMDL
