MODEL 1
REMARK VINA RESULT:    -7.846      0.000      0.000
REMARK INTER + INTRA:         -10.000
REMARK INTER:                  -9.910
REMARK INTRA:                  -0.090
REMARK UNBOUND:                -0.090
REMARK  Name = 
REMARK  5 active torsions:
REMARK  status: ('A' for Active; 'I' for Inactive)
REMARK    1  A    between atoms: N_1  and  C_2
REMARK    2  A    between atoms: C_2  and  C_3
REMARK    3  A    between atoms: C_6  and  C_7
REMARK    4  A    between atoms: C_7  and  N_8
REMARK    5  A    between atoms: C_13  and  C_14
REMARK                            x       y       z     vdW  Elec       q    Type
REMARK                         _______ _______ _______ _____ _____    ______ ____
ROOT
ATOM      1  N   UNL     1      43.872   4.382  10.424  0.00  0.00    +0.000 N 
ATOM      2  C   UNL     1      43.466   3.293  11.159  0.00  0.00    +0.000 A 
ATOM      3  C   UNL     1      44.046   2.170  10.623  0.00  0.00    +0.000 A 
ATOM      4  C   UNL     1      44.887   2.589   9.562  0.00  0.00    +0.000 A 
ATOM      5  C   UNL     1      45.713   1.898   8.663  0.00  0.00    +0.000 A 
ATOM      6  C   UNL     1      46.431   2.671   7.762  0.00  0.00    +0.000 A 
ATOM      7  N   UNL     1      46.410   4.034   7.725  0.00  0.00    +0.000 NA
ATOM      8  C   UNL     1      45.609   4.701   8.595  0.00  0.00    +0.000 A 
ATOM      9  C   UNL     1      44.817   3.986   9.492  0.00  0.00    +0.000 A 
ENDROOT
BRANCH   6  10
ATOM     10  C   UNL     1      47.277   1.975   6.733  0.00  0.00    +0.000 C 
ATOM     11  N   UNL     1      48.167   2.774   6.063  0.00  0.00    +0.000 N 
ATOM     12  O   UNL     1      47.178   0.782   6.485  0.00  0.00    +0.000 OA
ATOM     13  H   UNL     1      48.200   3.765   6.270  0.00  0.00    +0.000 HD
ATOM     14  H   UNL     1      48.734   2.378   5.332  0.00  0.00    +0.000 HD
ENDBRANCH   6  10
BRANCH   1  15
ATOM     15  C   UNL     1      43.395   5.734  10.687  0.00  0.00    +0.000 C 
BRANCH  15  19
ATOM     16  C   UNL     1      45.838   5.068  12.797  0.00  0.00    +0.000 C 
ATOM     17  C   UNL     1      46.593   6.222  12.143  0.00  0.00    +0.000 C 
ATOM     18  C   UNL     1      45.557   6.923  11.263  0.00  0.00    +0.000 C 
ATOM     19  C   UNL     1      44.162   6.506  11.784  0.00  0.00    +0.000 C 
ATOM     20  C   UNL     1      44.470   5.700  13.060  0.00  0.00    +0.000 C 
BRANCH  16  21
ATOM     21  C   UNL     1      46.555   4.540  14.041  0.00  0.00    +0.000 C 
BRANCH  21  22
ATOM     22  N   UNL     1      47.128   3.219  13.810  0.00  0.00    +0.000 NA
ATOM     23  H   UNL     1      46.936   2.932  12.850  0.00  0.00    +0.000 HD
ATOM     24  H   UNL     1      46.666   2.535  14.407  0.00  0.00    +0.000 HD
ENDBRANCH  21  22
ENDBRANCH  16  21
ENDBRANCH  15  19
ENDBRANCH   1  15
TORSDOF 5
ENDMDL
MODEL 2
REMARK VINA RESULT:    -7.413      1.338      1.672
REMARK INTER + INTRA:          -9.453
REMARK INTER:                  -8.863
REMARK INTRA:                  -0.589
REMARK UNBOUND:                -0.090
REMARK  Name = 
REMARK  5 active torsions:
REMARK  status: ('A' for Active; 'I' for Inactive)
REMARK    1  A    between atoms: N_1  and  C_2
REMARK    2  A    between atoms: C_2  and  C_3
REMARK    3  A    between atoms: C_6  and  C_7
REMARK    4  A    between atoms: C_7  and  N_8
REMARK    5  A    between atoms: C_13  and  C_14
REMARK                            x       y       z     vdW  Elec       q    Type
REMARK                         _______ _______ _______ _____ _____    ______ ____
ROOT
ATOM      1  N   UNL     1      44.391   4.884  10.701  0.00  0.00    +0.000 N 
ATOM      2  C   UNL     1      43.833   3.815  11.361  0.00  0.00    +0.000 A 
ATOM      3  C   UNL     1      44.122   2.674  10.655  0.00  0.00    +0.000 A 
ATOM      4  C   UNL     1      44.938   3.045   9.557  0.00  0.00    +0.000 A 
ATOM      5  C   UNL     1      45.524   2.321   8.509  0.00  0.00    +0.000 A 
ATOM      6  C   UNL     1      46.306   3.042   7.619  0.00  0.00    +0.000 A 
ATOM      7  N   UNL     1      46.564   4.377   7.722  0.00  0.00    +0.000 NA
ATOM      8  C   UNL     1      45.994   5.077   8.736  0.00  0.00    +0.000 A 
ATOM      9  C   UNL     1      45.151   4.428   9.636  0.00  0.00    +0.000 A 
ENDROOT
BRANCH   6  10
ATOM     10  C   UNL     1      46.900   2.323   6.439  0.00  0.00    +0.000 C 
ATOM     11  N   UNL     1      47.116   3.095   5.327  0.00  0.00    +0.000 N 
ATOM     12  O   UNL     1      47.161   1.129   6.449  0.00  0.00    +0.000 OA
ATOM     13  H   UNL     1      46.858   4.074   5.342  0.00  0.00    +0.000 HD
ATOM     14  H   UNL     1      47.473   2.666   4.490  0.00  0.00    +0.000 HD
ENDBRANCH   6  10
BRANCH   1  15
ATOM     15  C   UNL     1      44.227   6.262  11.149  0.00  0.00    +0.000 C 
BRANCH  15  19
ATOM     16  C   UNL     1      47.320   7.153  11.857  0.00  0.00    +0.000 C 
ATOM     17  C   UNL     1      46.721   8.433  12.435  0.00  0.00    +0.000 C 
ATOM     18  C   UNL     1      45.214   8.175  12.485  0.00  0.00    +0.000 C 
ATOM     19  C   UNL     1      45.013   6.643  12.424  0.00  0.00    +0.000 C 
ATOM     20  C   UNL     1      46.444   6.079  12.504  0.00  0.00    +0.000 C 
BRANCH  16  21
ATOM     21  C   UNL     1      48.815   7.032  12.153  0.00  0.00    +0.000 C 
BRANCH  21  22
ATOM     22  N   UNL     1      49.058   6.378  13.434  0.00  0.00    +0.000 NA
ATOM     23  H   UNL     1      49.832   6.844  13.909  0.00  0.00    +0.000 HD
ATOM     24  H   UNL     1      49.359   5.418  13.279  0.00  0.00    +0.000 HD
ENDBRANCH  21  22
ENDBRANCH  16  21
ENDBRANCH  15  19
ENDBRANCH   1  15
TORSDOF 5
ENDMDL
MODEL 3
REMARK VINA RESULT:    -7.188      2.744      6.085
REMARK INTER + INTRA:          -9.169
REMARK INTER:                  -8.858
REMARK INTRA:                  -0.311
REMARK UNBOUND:                -0.090
REMARK  Name = 
REMARK  5 active torsions:
REMARK  status: ('A' for Active; 'I' for Inactive)
REMARK    1  A    between atoms: N_1  and  C_2
REMARK    2  A    between atoms: C_2  and  C_3
REMARK    3  A    between atoms: C_6  and  C_7
REMARK    4  A    between atoms: C_7  and  N_8
REMARK    5  A    between atoms: C_13  and  C_14
REMARK                            x       y       z     vdW  Elec       q    Type
REMARK                         _______ _______ _______ _____ _____    ______ ____
ROOT
ATOM      1  N   UNL     1      44.495   4.183  10.639  0.00  0.00    +0.000 N 
ATOM      2  C   UNL     1      43.568   3.418  11.306  0.00  0.00    +0.000 A 
ATOM      3  C   UNL     1      43.913   3.383  12.635  0.00  0.00    +0.000 A 
ATOM      4  C   UNL     1      45.055   4.205  12.802  0.00  0.00    +0.000 A 
ATOM      5  C   UNL     1      45.841   4.541  13.914  0.00  0.00    +0.000 A 
ATOM      6  C   UNL     1      46.884   5.427  13.690  0.00  0.00    +0.000 A 
ATOM      7  N   UNL     1      47.162   6.007  12.488  0.00  0.00    +0.000 NA
ATOM      8  C   UNL     1      46.402   5.680  11.411  0.00  0.00    +0.000 A 
ATOM      9  C   UNL     1      45.370   4.752  11.551  0.00  0.00    +0.000 A 
ENDROOT
BRANCH   6  10
ATOM     10  C   UNL     1      47.798   5.764  14.835  0.00  0.00    +0.000 C 
ATOM     11  N   UNL     1      47.423   5.266  16.055  0.00  0.00    +0.000 N 
ATOM     12  O   UNL     1      48.802   6.450  14.707  0.00  0.00    +0.000 OA
ATOM     13  H   UNL     1      46.568   4.728  16.132  0.00  0.00    +0.000 HD
ATOM     14  H   UNL     1      47.969   5.489  16.870  0.00  0.00    +0.000 HD
ENDBRANCH   6  10
BRANCH   1  15
ATOM     15  C   UNL     1      44.463   4.384   9.196  0.00  0.00    +0.000 C 
BRANCH  15  19
ATOM     16  C   UNL     1      46.583   3.002   7.085  0.00  0.00    +0.000 C 
ATOM     17  C   UNL     1      46.592   1.799   8.024  0.00  0.00    +0.000 C 
ATOM     18  C   UNL     1      45.446   2.056   9.005  0.00  0.00    +0.000 C 
ATOM     19  C   UNL     1      44.508   3.094   8.345  0.00  0.00    +0.000 C 
ATOM     20  C   UNL     1      45.085   3.265   6.928  0.00  0.00    +0.000 C 
BRANCH  16  21
ATOM     21  C   UNL     1      47.330   2.720   5.781  0.00  0.00    +0.000 C 
BRANCH  21  22
ATOM     22  N   UNL     1      48.389   1.736   5.970  0.00  0.00    +0.000 NA
ATOM     23  H   UNL     1      48.851   1.906   6.863  0.00  0.00    +0.000 HD
ATOM     24  H   UNL     1      49.105   1.857   5.255  0.00  0.00    +0.000 HD
ENDBRANCH  21  22
ENDBRANCH  16  21
ENDBRANCH  15  19
ENDBRANCH   1  15
TORSDOF 5
ENDMDL
MODEL 4
REMARK VINA RESULT:    -6.875      3.165      6.324
REMARK INTER + INTRA:          -8.773
REMARK INTER:                  -8.284
REMARK INTRA:                  -0.489
REMARK UNBOUND:                -0.090
REMARK  Name = 
REMARK  5 active torsions:
REMARK  status: ('A' for Active; 'I' for Inactive)
REMARK    1  A    between atoms: N_1  and  C_2
REMARK    2  A    between atoms: C_2  and  C_3
REMARK    3  A    between atoms: C_6  and  C_7
REMARK    4  A    between atoms: C_7  and  N_8
REMARK    5  A    between atoms: C_13  and  C_14
REMARK                            x       y       z     vdW  Elec       q    Type
REMARK                         _______ _______ _______ _____ _____    ______ ____
ROOT
ATOM      1  N   UNL     1      44.469   4.558  10.924  0.00  0.00    +0.000 N 
ATOM      2  C   UNL     1      43.160   4.967  10.815  0.00  0.00    +0.000 A 
ATOM      3  C   UNL     1      43.066   6.247  11.302  0.00  0.00    +0.000 A 
ATOM      4  C   UNL     1      44.372   6.663  11.664  0.00  0.00    +0.000 A 
ATOM      5  C   UNL     1      44.883   7.849  12.213  0.00  0.00    +0.000 A 
ATOM      6  C   UNL     1      46.256   7.903  12.400  0.00  0.00    +0.000 A 
ATOM      7  N   UNL     1      47.123   6.909  12.055  0.00  0.00    +0.000 NA
ATOM      8  C   UNL     1      46.627   5.761  11.525  0.00  0.00    +0.000 A 
ATOM      9  C   UNL     1      45.251   5.615  11.360  0.00  0.00    +0.000 A 
ENDROOT
BRANCH   6  10
ATOM     10  C   UNL     1      46.845   9.124  13.049  0.00  0.00    +0.000 C 
ATOM     11  N   UNL     1      47.064   9.026  14.399  0.00  0.00    +0.000 N 
ATOM     12  O   UNL     1      47.100  10.149  12.434  0.00  0.00    +0.000 OA
ATOM     13  H   UNL     1      46.812   8.174  14.884  0.00  0.00    +0.000 HD
ATOM     14  H   UNL     1      47.419   9.822  14.902  0.00  0.00    +0.000 HD
ENDBRANCH   6  10
BRANCH   1  15
ATOM     15  C   UNL     1      44.912   3.221  10.550  0.00  0.00    +0.000 C 
BRANCH  15  19
ATOM     16  C   UNL     1      46.787   2.712   7.887  0.00  0.00    +0.000 C 
ATOM     17  C   UNL     1      46.188   1.309   7.847  0.00  0.00    +0.000 C 
ATOM     18  C   UNL     1      45.036   1.343   8.852  0.00  0.00    +0.000 C 
ATOM     19  C   UNL     1      44.670   2.830   9.074  0.00  0.00    +0.000 C 
ATOM     20  C   UNL     1      45.538   3.581   8.047  0.00  0.00    +0.000 C 
BRANCH  16  21
ATOM     21  C   UNL     1      47.630   3.015   6.648  0.00  0.00    +0.000 C 
BRANCH  21  22
ATOM     22  N   UNL     1      48.361   1.837   6.194  0.00  0.00    +0.000 NA
ATOM     23  H   UNL     1      48.445   1.176   6.966  0.00  0.00    +0.000 HD
ATOM     24  H   UNL     1      49.312   2.098   5.941  0.00  0.00    +0.000 HD
ENDBRANCH  21  22
ENDBRANCH  16  21
ENDBRANCH  15  19
ENDBRANCH   1  15
TORSDOF 5
ENDMDL
MODEL 5
REMARK VINA RESULT:    -6.463      3.184      5.514
REMARK INTER + INTRA:          -8.252
REMARK INTER:                  -7.798
REMARK INTRA:                  -0.454
REMARK UNBOUND:                -0.090
REMARK  Name = 
REMARK  5 active torsions:
REMARK  status: ('A' for Active; 'I' for Inactive)
REMARK    1  A    between atoms: N_1  and  C_2
REMARK    2  A    between atoms: C_2  and  C_3
REMARK    3  A    between atoms: C_6  and  C_7
REMARK    4  A    between atoms: C_7  and  N_8
REMARK    5  A    between atoms: C_13  and  C_14
REMARK                            x       y       z     vdW  Elec       q    Type
REMARK                         _______ _______ _______ _____ _____    ______ ____
ROOT
ATOM      1  N   UNL     1      47.600   6.370  13.724  0.00  0.00    +0.000 N 
ATOM      2  C   UNL     1      47.070   7.581  13.344  0.00  0.00    +0.000 A 
ATOM      3  C   UNL     1      45.978   7.343  12.547  0.00  0.00    +0.000 A 
ATOM      4  C   UNL     1      45.792   5.939  12.485  0.00  0.00    +0.000 A 
ATOM      5  C   UNL     1      44.859   5.123  11.828  0.00  0.00    +0.000 A 
ATOM      6  C   UNL     1      44.975   3.757  12.039  0.00  0.00    +0.000 A 
ATOM      7  N   UNL     1      45.898   3.176  12.856  0.00  0.00    +0.000 NA
ATOM      8  C   UNL     1      46.802   3.967  13.490  0.00  0.00    +0.000 A 
ATOM      9  C   UNL     1      46.779   5.345  13.281  0.00  0.00    +0.000 A 
ENDROOT
BRANCH   6  10
ATOM     10  C   UNL     1      44.042   2.836  11.302  0.00  0.00    +0.000 C 
ATOM     11  N   UNL     1      44.479   2.415  10.074  0.00  0.00    +0.000 N 
ATOM     12  O   UNL     1      42.957   2.491  11.748  0.00  0.00    +0.000 OA
ATOM     13  H   UNL     1      45.368   2.745   9.720  0.00  0.00    +0.000 HD
ATOM     14  H   UNL     1      43.884   1.829   9.511  0.00  0.00    +0.000 HD
ENDBRANCH   6  10
BRANCH   1  15
ATOM     15  C   UNL     1      48.808   6.256  14.532  0.00  0.00    +0.000 C 
BRANCH  15  19
ATOM     16  C   UNL     1      48.670   4.123  17.041  0.00  0.00    +0.000 C 
ATOM     17  C   UNL     1      49.830   4.906  17.650  0.00  0.00    +0.000 C 
ATOM     18  C   UNL     1      49.944   6.170  16.795  0.00  0.00    +0.000 C 
ATOM     19  C   UNL     1      48.595   6.345  16.060  0.00  0.00    +0.000 C 
ATOM     20  C   UNL     1      47.701   5.244  16.662  0.00  0.00    +0.000 C 
BRANCH  16  21
ATOM     21  C   UNL     1      48.107   3.082  18.009  0.00  0.00    +0.000 C 
BRANCH  21  22
ATOM     22  N   UNL     1      46.698   2.812  17.747  0.00  0.00    +0.000 NA
ATOM     23  H   UNL     1      46.288   3.607  17.257  0.00  0.00    +0.000 HD
ATOM     24  H   UNL     1      46.193   2.733  18.628  0.00  0.00    +0.000 HD
ENDBRANCH  21  22
ENDBRANCH  16  21
ENDBRANCH  15  19
ENDBRANCH   1  15
TORSDOF 5
ENDMDL
MODEL 6
REMARK VINA RESULT:    -6.381      3.482      6.790
REMARK INTER + INTRA:          -8.149
REMARK INTER:                  -7.812
REMARK INTRA:                  -0.337
REMARK UNBOUND:                -0.090
REMARK  Name = 
REMARK  5 active torsions:
REMARK  status: ('A' for Active; 'I' for Inactive)
REMARK    1  A    between atoms: N_1  and  C_2
REMARK    2  A    between atoms: C_2  and  C_3
REMARK    3  A    between atoms: C_6  and  C_7
REMARK    4  A    between atoms: C_7  and  N_8
REMARK    5  A    between atoms: C_13  and  C_14
REMARK                            x       y       z     vdW  Elec       q    Type
REMARK                         _______ _______ _______ _____ _____    ______ ____
ROOT
ATOM      1  N   UNL     1      45.299   5.504  11.696  0.00  0.00    +0.000 N 
ATOM      2  C   UNL     1      44.500   6.485  11.158  0.00  0.00    +0.000 A 
ATOM      3  C   UNL     1      44.861   7.688  11.715  0.00  0.00    +0.000 A 
ATOM      4  C   UNL     1      45.960   7.447  12.576  0.00  0.00    +0.000 A 
ATOM      5  C   UNL     1      46.731   8.278  13.402  0.00  0.00    +0.000 A 
ATOM      6  C   UNL     1      47.775   7.674  14.087  0.00  0.00    +0.000 A 
ATOM      7  N   UNL     1      48.112   6.358  13.978  0.00  0.00    +0.000 NA
ATOM      8  C   UNL     1      47.364   5.554  13.179  0.00  0.00    +0.000 A 
ATOM      9  C   UNL     1      46.265   6.082  12.504  0.00  0.00    +0.000 A 
ENDROOT
BRANCH   6  10
ATOM     10  C   UNL     1      48.587   8.508  15.038  0.00  0.00    +0.000 C 
ATOM     11  N   UNL     1      47.865   9.245  15.940  0.00  0.00    +0.000 N 
ATOM     12  O   UNL     1      49.809   8.551  15.012  0.00  0.00    +0.000 OA
ATOM     13  H   UNL     1      46.853   9.211  15.915  0.00  0.00    +0.000 HD
ATOM     14  H   UNL     1      48.346   9.856  16.579  0.00  0.00    +0.000 HD
ENDBRANCH   6  10
BRANCH   1  15
ATOM     15  C   UNL     1      45.145   4.092  11.366  0.00  0.00    +0.000 C 
BRANCH  15  19
ATOM     16  C   UNL     1      46.082   2.847   8.462  0.00  0.00    +0.000 C 
ATOM     17  C   UNL     1      45.006   1.785   8.674  0.00  0.00    +0.000 C 
ATOM     18  C   UNL     1      44.193   2.282   9.871  0.00  0.00    +0.000 C 
ATOM     19  C   UNL     1      44.467   3.797  10.009  0.00  0.00    +0.000 C 
ATOM     20  C   UNL     1      45.314   4.134   8.767  0.00  0.00    +0.000 C 
BRANCH  16  21
ATOM     21  C   UNL     1      46.693   2.776   7.062  0.00  0.00    +0.000 C 
BRANCH  21  22
ATOM     22  N   UNL     1      46.864   4.103   6.482  0.00  0.00    +0.000 NA
ATOM     23  H   UNL     1      47.288   4.015   5.559  0.00  0.00    +0.000 HD
ATOM     24  H   UNL     1      47.520   4.642   7.044  0.00  0.00    +0.000 HD
ENDBRANCH  21  22
ENDBRANCH  16  21
ENDBRANCH  15  19
ENDBRANCH   1  15
TORSDOF 5
ENDMDL
MODEL 7
REMARK VINA RESULT:    -6.253      4.443      8.134
REMARK INTER + INTRA:          -7.987
REMARK INTER:                  -7.600
REMARK INTRA:                  -0.388
REMARK UNBOUND:                -0.090
REMARK  Name = 
REMARK  5 active torsions:
REMARK  status: ('A' for Active; 'I' for Inactive)
REMARK    1  A    between atoms: N_1  and  C_2
REMARK    2  A    between atoms: C_2  and  C_3
REMARK    3  A    between atoms: C_6  and  C_7
REMARK    4  A    between atoms: C_7  and  N_8
REMARK    5  A    between atoms: C_13  and  C_14
REMARK                            x       y       z     vdW  Elec       q    Type
REMARK                         _______ _______ _______ _____ _____    ______ ____
ROOT
ATOM      1  N   UNL     1      47.073   5.161  14.386  0.00  0.00    +0.000 N 
ATOM      2  C   UNL     1      47.781   6.251  13.939  0.00  0.00    +0.000 A 
ATOM      3  C   UNL     1      48.600   6.679  14.954  0.00  0.00    +0.000 A 
ATOM      4  C   UNL     1      48.436   5.785  16.042  0.00  0.00    +0.000 A 
ATOM      5  C   UNL     1      48.997   5.723  17.325  0.00  0.00    +0.000 A 
ATOM      6  C   UNL     1      48.611   4.653  18.119  0.00  0.00    +0.000 A 
ATOM      7  N   UNL     1      47.765   3.660  17.720  0.00  0.00    +0.000 NA
ATOM      8  C   UNL     1      47.221   3.722  16.478  0.00  0.00    +0.000 A 
ATOM      9  C   UNL     1      47.522   4.800  15.646  0.00  0.00    +0.000 A 
ENDROOT
BRANCH   6  10
ATOM     10  C   UNL     1      49.131   4.579  19.527  0.00  0.00    +0.000 C 
ATOM     11  N   UNL     1      48.532   3.641  20.328  0.00  0.00    +0.000 N 
ATOM     12  O   UNL     1      50.015   5.309  19.951  0.00  0.00    +0.000 OA
ATOM     13  H   UNL     1      47.781   3.074  19.956  0.00  0.00    +0.000 HD
ATOM     14  H   UNL     1      48.805   3.568  21.294  0.00  0.00    +0.000 HD
ENDBRANCH   6  10
BRANCH   1  15
ATOM     15  C   UNL     1      46.064   4.489  13.576  0.00  0.00    +0.000 C 
BRANCH  15  19
ATOM     16  C   UNL     1      44.494   4.283  10.685  0.00  0.00    +0.000 C 
ATOM     17  C   UNL     1      43.214   4.574  11.464  0.00  0.00    +0.000 C 
ATOM     18  C   UNL     1      43.687   4.993  12.857  0.00  0.00    +0.000 C 
ATOM     19  C   UNL     1      45.168   5.418  12.725  0.00  0.00    +0.000 C 
ATOM     20  C   UNL     1      45.432   5.372  11.208  0.00  0.00    +0.000 C 
BRANCH  16  21
ATOM     21  C   UNL     1      44.265   4.299   9.173  0.00  0.00    +0.000 C 
BRANCH  21  22
ATOM     22  N   UNL     1      45.413   4.848   8.462  0.00  0.00    +0.000 NA
ATOM     23  H   UNL     1      46.261   4.663   8.998  0.00  0.00    +0.000 HD
ATOM     24  H   UNL     1      45.331   5.861   8.406  0.00  0.00    +0.000 HD
ENDBRANCH  21  22
ENDBRANCH  16  21
ENDBRANCH  15  19
ENDBRANCH   1  15
TORSDOF 5
ENDMDL
MODEL 8
REMARK VINA RESULT:    -6.091      2.302      3.156
REMARK INTER + INTRA:          -7.783
REMARK INTER:                  -7.756
REMARK INTRA:                  -0.027
REMARK UNBOUND:                -0.090
REMARK  Name = 
REMARK  5 active torsions:
REMARK  status: ('A' for Active; 'I' for Inactive)
REMARK    1  A    between atoms: N_1  and  C_2
REMARK    2  A    between atoms: C_2  and  C_3
REMARK    3  A    between atoms: C_6  and  C_7
REMARK    4  A    between atoms: C_7  and  N_8
REMARK    5  A    between atoms: C_13  and  C_14
REMARK                            x       y       z     vdW  Elec       q    Type
REMARK                         _______ _______ _______ _____ _____    ______ ____
ROOT
ATOM      1  N   UNL     1      44.027   4.860  11.053  0.00  0.00    +0.000 N 
ATOM      2  C   UNL     1      43.472   3.784  11.705  0.00  0.00    +0.000 A 
ATOM      3  C   UNL     1      43.766   2.648  10.992  0.00  0.00    +0.000 A 
ATOM      4  C   UNL     1      44.584   3.030   9.899  0.00  0.00    +0.000 A 
ATOM      5  C   UNL     1      45.176   2.315   8.847  0.00  0.00    +0.000 A 
ATOM      6  C   UNL     1      45.958   3.044   7.965  0.00  0.00    +0.000 A 
ATOM      7  N   UNL     1      46.210   4.379   8.077  0.00  0.00    +0.000 NA
ATOM      8  C   UNL     1      45.636   5.071   9.094  0.00  0.00    +0.000 A 
ATOM      9  C   UNL     1      44.792   4.412   9.988  0.00  0.00    +0.000 A 
ENDROOT
BRANCH   6  10
ATOM     10  C   UNL     1      46.557   2.336   6.782  0.00  0.00    +0.000 C 
ATOM     11  N   UNL     1      47.136   1.123   7.052  0.00  0.00    +0.000 N 
ATOM     12  O   UNL     1      46.552   2.803   5.652  0.00  0.00    +0.000 OA
ATOM     13  H   UNL     1      47.151   0.780   8.005  0.00  0.00    +0.000 HD
ATOM     14  H   UNL     1      47.591   0.616   6.312  0.00  0.00    +0.000 HD
ENDBRANCH   6  10
BRANCH   1  15
ATOM     15  C   UNL     1      43.857   6.233  11.510  0.00  0.00    +0.000 C 
BRANCH  15  19
ATOM     16  C   UNL     1      44.562   9.405  12.066  0.00  0.00    +0.000 C 
ATOM     17  C   UNL     1      45.683   8.902  12.970  0.00  0.00    +0.000 C 
ATOM     18  C   UNL     1      45.771   7.400  12.692  0.00  0.00    +0.000 C 
ATOM     19  C   UNL     1      45.088   7.151  11.327  0.00  0.00    +0.000 C 
ATOM     20  C   UNL     1      44.777   8.566  10.805  0.00  0.00    +0.000 C 
BRANCH  16  21
ATOM     21  C   UNL     1      44.626  10.918  11.854  0.00  0.00    +0.000 C 
BRANCH  21  22
ATOM     22  N   UNL     1      43.296  11.515  11.835  0.00  0.00    +0.000 NA
ATOM     23  H   UNL     1      42.601  10.784  11.679  0.00  0.00    +0.000 HD
ATOM     24  H   UNL     1      43.216  12.153  11.045  0.00  0.00    +0.000 HD
ENDBRANCH  21  22
ENDBRANCH  16  21
ENDBRANCH  15  19
ENDBRANCH   1  15
TORSDOF 5
ENDMDL
MODEL 9
REMARK VINA RESULT:    -6.035      3.500      5.415
REMARK INTER + INTRA:          -7.712
REMARK INTER:                  -7.172
REMARK INTRA:                  -0.540
REMARK UNBOUND:                -0.090
REMARK  Name = 
REMARK  5 active torsions:
REMARK  status: ('A' for Active; 'I' for Inactive)
REMARK    1  A    between atoms: N_1  and  C_2
REMARK    2  A    between atoms: C_2  and  C_3
REMARK    3  A    between atoms: C_6  and  C_7
REMARK    4  A    between atoms: C_7  and  N_8
REMARK    5  A    between atoms: C_13  and  C_14
REMARK                            x       y       z     vdW  Elec       q    Type
REMARK                         _______ _______ _______ _____ _____    ______ ____
ROOT
ATOM      1  N   UNL     1      46.476   7.332  13.073  0.00  0.00    +0.000 N 
ATOM      2  C   UNL     1      45.891   8.312  12.306  0.00  0.00    +0.000 A 
ATOM      3  C   UNL     1      45.010   7.713  11.440  0.00  0.00    +0.000 A 
ATOM      4  C   UNL     1      45.005   6.325  11.727  0.00  0.00    +0.000 A 
ATOM      5  C   UNL     1      44.318   5.234  11.175  0.00  0.00    +0.000 A 
ATOM      6  C   UNL     1      44.550   3.997  11.758  0.00  0.00    +0.000 A 
ATOM      7  N   UNL     1      45.359   3.790  12.836  0.00  0.00    +0.000 NA
ATOM      8  C   UNL     1      46.025   4.847  13.368  0.00  0.00    +0.000 A 
ATOM      9  C   UNL     1      45.882   6.111  12.798  0.00  0.00    +0.000 A 
ENDROOT
BRANCH   6  10
ATOM     10  C   UNL     1      43.892   2.786  11.159  0.00  0.00    +0.000 C 
ATOM     11  N   UNL     1      44.460   2.319  10.002  0.00  0.00    +0.000 N 
ATOM     12  O   UNL     1      42.907   2.251  11.647  0.00  0.00    +0.000 OA
ATOM     13  H   UNL     1      45.256   2.803   9.606  0.00  0.00    +0.000 HD
ATOM     14  H   UNL     1      44.043   1.535   9.527  0.00  0.00    +0.000 HD
ENDBRANCH   6  10
BRANCH   1  15
ATOM     15  C   UNL     1      47.509   7.615  14.062  0.00  0.00    +0.000 C 
BRANCH  15  19
ATOM     16  C   UNL     1      50.187   8.363  12.293  0.00  0.00    +0.000 C 
ATOM     17  C   UNL     1      50.962   8.293  13.606  0.00  0.00    +0.000 C 
ATOM     18  C   UNL     1      49.982   7.680  14.609  0.00  0.00    +0.000 C 
ATOM     19  C   UNL     1      48.884   6.962  13.790  0.00  0.00    +0.000 C 
ATOM     20  C   UNL     1      49.381   7.064  12.336  0.00  0.00    +0.000 C 
BRANCH  16  21
ATOM     21  C   UNL     1      51.114   8.508  11.085  0.00  0.00    +0.000 C 
BRANCH  21  22
ATOM     22  N   UNL     1      51.873   7.287  10.840  0.00  0.00    +0.000 NA
ATOM     23  H   UNL     1      52.146   7.251   9.858  0.00  0.00    +0.000 HD
ATOM     24  H   UNL     1      51.280   6.475  10.997  0.00  0.00    +0.000 HD
ENDBRANCH  21  22
ENDBRANCH  16  21
ENDBRANCH  15  19
ENDBRANCH   1  15
TORSDOF 5
ENDMDL
