MODEL 1
REMARK VINA RESULT:    -8.298      0.000      0.000
REMARK INTER + INTRA:         -14.730
REMARK INTER:                 -12.906
REMARK INTRA:                  -1.824
REMARK UNBOUND:                -1.824
REMARK  Name = 
REMARK  10 active torsions:
REMARK  status: ('A' for Active; 'I' for Inactive)
REMARK    1  A    between atoms: N_1  and  C_2
REMARK    2  A    between atoms: C_2  and  C_3
REMARK    3  A    between atoms: C_3  and  N_4
REMARK    4  A    between atoms: N_4  and  C_5
REMARK    5  A    between atoms: N_4  and  C_12
REMARK    6  A    between atoms: C_5  and  C_6
REMARK    7  A    between atoms: C_12  and  C_13
REMARK    8  A    between atoms: C_16  and  C_17
REMARK    9  A    between atoms: C_17  and  N_18
REMARK   10  A    between atoms: C_19  and  C_21
REMARK                            x       y       z     vdW  Elec       q    Type
REMARK                         _______ _______ _______ _____ _____    ______ ____
ROOT
ATOM      1  C   UNL     1      44.855   5.766  10.791  0.00  0.00    +0.000 A 
ATOM      2  C   UNL     1      46.219   5.913  10.545  0.00  0.00    +0.000 A 
ATOM      3  C   UNL     1      46.968   6.744  11.373  0.00  0.00    +0.000 A 
ATOM      4  C   UNL     1      46.341   7.431  12.414  0.00  0.00    +0.000 A 
ATOM      5  C   UNL     1      44.973   7.241  12.571  0.00  0.00    +0.000 A 
ATOM      6  N   UNL     1      44.220   6.431  11.789  0.00  0.00    +0.000 NA
ENDROOT
BRANCH   1   7
ATOM      7  C   UNL     1      44.040   4.765   9.982  0.00  0.00    +0.000 C 
BRANCH   7   8
ATOM      8  N   UNL     1      44.367   3.340  10.289  0.00  0.00    +0.000 NA
BRANCH   8   9
ATOM      9  C   UNL     1      43.430   2.845  11.331  0.00  0.00    +0.000 C 
BRANCH   9  10
ATOM     10  C   UNL     1      43.970   2.895  12.778  0.00  0.00    +0.000 C 
BRANCH  10  11
ATOM     11  N   UNL     1      45.437   2.879  12.806  0.00  0.00    +0.000 NA
ATOM     12  H   UNL     1      45.761   3.319  13.665  0.00  0.00    +0.000 HD
ATOM     13  H   UNL     1      45.796   3.448  12.038  0.00  0.00    +0.000 HD
ENDBRANCH  10  11
ENDBRANCH   9  10
ENDBRANCH   8   9
BRANCH   8  14
ATOM     14  C   UNL     1      44.261   2.525   9.053  0.00  0.00    +0.000 C 
BRANCH  14  15
ATOM     15  C   UNL     1      45.561   2.370   8.278  0.00  0.00    +0.000 A 
ATOM     16  C   UNL     1      46.107   3.448   7.584  0.00  0.00    +0.000 A 
ATOM     17  C   UNL     1      47.255   3.246   6.822  0.00  0.00    +0.000 A 
ATOM     18  C   UNL     1      47.834   1.983   6.785  0.00  0.00    +0.000 A 
ATOM     19  C   UNL     1      47.243   0.971   7.521  0.00  0.00    +0.000 A 
ATOM     20  N   UNL     1      46.125   1.135   8.262  0.00  0.00    +0.000 NA
ENDBRANCH  14  15
ENDBRANCH   8  14
ENDBRANCH   7   8
ENDBRANCH   1   7
BRANCH   4  21
ATOM     21  C   UNL     1      47.115   8.307  13.351  0.00  0.00    +0.000 C 
BRANCH  21  22
ATOM     22  N   UNL     1      47.470   7.617  14.569  0.00  0.00    +0.000 N 
ATOM     23  C   UNL     1      48.672   6.962  14.667  0.00  0.00    +0.000 C 
ATOM     24  O   UNL     1      49.496   6.990  13.755  0.00  0.00    +0.000 OA
ATOM     25  H   UNL     1      46.727   7.406  15.231  0.00  0.00    +0.000 HD
BRANCH  23  26
ATOM     26  C   UNL     1      48.961   6.266  15.927  0.00  0.00    +0.000 A 
ATOM     27  C   UNL     1      49.988   6.729  16.739  0.00  0.00    +0.000 A 
ATOM     28  S   UNL     1      50.194   5.827  18.170  0.00  0.00    +0.000 S 
ATOM     29  C   UNL     1      48.947   4.754  17.733  0.00  0.00    +0.000 A 
ATOM     30  N   UNL     1      48.629   3.699  18.527  0.00  0.00    +0.000 NA
ATOM     31  C   UNL     1      47.681   2.953  18.066  0.00  0.00    +0.000 A 
ATOM     32  N   UNL     1      47.017   3.172  16.888  0.00  0.00    +0.000 N 
ATOM     33  C   UNL     1      47.288   4.241  16.064  0.00  0.00    +0.000 A 
ATOM     34  O   UNL     1      46.655   4.432  15.031  0.00  0.00    +0.000 OA
ATOM     35  C   UNL     1      48.361   5.100  16.528  0.00  0.00    +0.000 A 
ATOM     36  H   UNL     1      46.271   2.558  16.594  0.00  0.00    +0.000 HD
ENDBRANCH  23  26
ENDBRANCH  21  22
ENDBRANCH   4  21
TORSDOF 10
ENDMDL
MODEL 2
REMARK VINA RESULT:    -7.128      2.341      2.901
REMARK INTER + INTRA:         -12.911
REMARK INTER:                 -12.011
REMARK INTRA:                  -0.900
REMARK UNBOUND:                -1.824
REMARK  Name = 
REMARK  10 active torsions:
REMARK  status: ('A' for Active; 'I' for Inactive)
REMARK    1  A    between atoms: N_1  and  C_2
REMARK    2  A    between atoms: C_2  and  C_3
REMARK    3  A    between atoms: C_3  and  N_4
REMARK    4  A    between atoms: N_4  and  C_5
REMARK    5  A    between atoms: N_4  and  C_12
REMARK    6  A    between atoms: C_5  and  C_6
REMARK    7  A    between atoms: C_12  and  C_13
REMARK    8  A    between atoms: C_16  and  C_17
REMARK    9  A    between atoms: C_17  and  N_18
REMARK   10  A    between atoms: C_19  and  C_21
REMARK                            x       y       z     vdW  Elec       q    Type
REMARK                         _______ _______ _______ _____ _____    ______ ____
ROOT
ATOM      1  C   UNL     1      46.733   6.269  11.867  0.00  0.00    +0.000 A 
ATOM      2  C   UNL     1      46.861   5.341  12.899  0.00  0.00    +0.000 A 
ATOM      3  C   UNL     1      47.503   5.724  14.075  0.00  0.00    +0.000 A 
ATOM      4  C   UNL     1      48.024   7.013  14.190  0.00  0.00    +0.000 A 
ATOM      5  C   UNL     1      47.869   7.864  13.102  0.00  0.00    +0.000 A 
ATOM      6  N   UNL     1      47.242   7.524  11.951  0.00  0.00    +0.000 NA
ENDROOT
BRANCH   1   7
ATOM      7  C   UNL     1      45.925   5.917  10.625  0.00  0.00    +0.000 C 
BRANCH   7   8
ATOM      8  N   UNL     1      44.811   4.957  10.888  0.00  0.00    +0.000 NA
BRANCH   8   9
ATOM      9  C   UNL     1      43.802   5.617  11.758  0.00  0.00    +0.000 C 
BRANCH   9  10
ATOM     10  C   UNL     1      43.000   4.665  12.673  0.00  0.00    +0.000 C 
BRANCH  10  11
ATOM     11  N   UNL     1      43.808   3.515  13.094  0.00  0.00    +0.000 NA
ATOM     12  H   UNL     1      44.077   3.633  14.069  0.00  0.00    +0.000 HD
ATOM     13  H   UNL     1      44.675   3.496  12.557  0.00  0.00    +0.000 HD
ENDBRANCH  10  11
ENDBRANCH   9  10
ENDBRANCH   8   9
BRANCH   8  14
ATOM     14  C   UNL     1      44.202   4.533   9.602  0.00  0.00    +0.000 C 
BRANCH  14  15
ATOM     15  C   UNL     1      45.076   3.622   8.753  0.00  0.00    +0.000 A 
ATOM     16  C   UNL     1      45.189   2.265   9.053  0.00  0.00    +0.000 A 
ATOM     17  C   UNL     1      46.061   1.481   8.302  0.00  0.00    +0.000 A 
ATOM     18  C   UNL     1      46.782   2.065   7.267  0.00  0.00    +0.000 A 
ATOM     19  C   UNL     1      46.595   3.413   7.019  0.00  0.00    +0.000 A 
ATOM     20  N   UNL     1      45.764   4.202   7.736  0.00  0.00    +0.000 NA
ENDBRANCH  14  15
ENDBRANCH   8  14
ENDBRANCH   7   8
ENDBRANCH   1   7
BRANCH   4  21
ATOM     21  C   UNL     1      48.689   7.478  15.450  0.00  0.00    +0.000 C 
BRANCH  21  22
ATOM     22  N   UNL     1      49.747   6.588  15.865  0.00  0.00    +0.000 N 
ATOM     23  C   UNL     1      49.700   5.984  17.096  0.00  0.00    +0.000 C 
ATOM     24  O   UNL     1      48.740   6.135  17.849  0.00  0.00    +0.000 OA
ATOM     25  H   UNL     1      50.629   6.626  15.358  0.00  0.00    +0.000 HD
BRANCH  23  26
ATOM     26  C   UNL     1      50.818   5.106  17.462  0.00  0.00    +0.000 A 
ATOM     27  C   UNL     1      52.005   5.668  17.914  0.00  0.00    +0.000 A 
ATOM     28  S   UNL     1      53.202   4.522  18.310  0.00  0.00    +0.000 S 
ATOM     29  C   UNL     1      52.193   3.232  17.848  0.00  0.00    +0.000 A 
ATOM     30  N   UNL     1      52.635   1.949  17.906  0.00  0.00    +0.000 NA
ATOM     31  C   UNL     1      51.777   1.072  17.504  0.00  0.00    +0.000 A 
ATOM     32  N   UNL     1      50.514   1.361  17.059  0.00  0.00    +0.000 N 
ATOM     33  C   UNL     1      50.014   2.643  17.006  0.00  0.00    +0.000 A 
ATOM     34  O   UNL     1      48.868   2.870  16.633  0.00  0.00    +0.000 OA
ATOM     35  C   UNL     1      50.948   3.669  17.428  0.00  0.00    +0.000 A 
ATOM     36  H   UNL     1      49.885   0.624  16.776  0.00  0.00    +0.000 HD
ENDBRANCH  23  26
ENDBRANCH  21  22
ENDBRANCH   4  21
TORSDOF 10
ENDMDL
MODEL 3
REMARK VINA RESULT:    -6.701      2.037      2.776
REMARK INTER + INTRA:         -12.247
REMARK INTER:                 -10.959
REMARK INTRA:                  -1.288
REMARK UNBOUND:                -1.824
REMARK  Name = 
REMARK  10 active torsions:
REMARK  status: ('A' for Active; 'I' for Inactive)
REMARK    1  A    between atoms: N_1  and  C_2
REMARK    2  A    between atoms: C_2  and  C_3
REMARK    3  A    between atoms: C_3  and  N_4
REMARK    4  A    between atoms: N_4  and  C_5
REMARK    5  A    between atoms: N_4  and  C_12
REMARK    6  A    between atoms: C_5  and  C_6
REMARK    7  A    between atoms: C_12  and  C_13
REMARK    8  A    between atoms: C_16  and  C_17
REMARK    9  A    between atoms: C_17  and  N_18
REMARK   10  A    between atoms: C_19  and  C_21
REMARK                            x       y       z     vdW  Elec       q    Type
REMARK                         _______ _______ _______ _____ _____    ______ ____
ROOT
ATOM      1  C   UNL     1      45.254   6.403  11.374  0.00  0.00    +0.000 A 
ATOM      2  C   UNL     1      44.783   7.250  12.376  0.00  0.00    +0.000 A 
ATOM      3  C   UNL     1      45.701   7.950  13.155  0.00  0.00    +0.000 A 
ATOM      4  C   UNL     1      47.069   7.776  12.936  0.00  0.00    +0.000 A 
ATOM      5  C   UNL     1      47.447   6.895  11.930  0.00  0.00    +0.000 A 
ATOM      6  N   UNL     1      46.578   6.208  11.150  0.00  0.00    +0.000 NA
ENDROOT
BRANCH   1   7
ATOM      7  C   UNL     1      44.273   5.727  10.427  0.00  0.00    +0.000 C 
BRANCH   7   8
ATOM      8  N   UNL     1      44.580   4.287  10.175  0.00  0.00    +0.000 NA
BRANCH   8   9
ATOM      9  C   UNL     1      43.625   3.449  10.948  0.00  0.00    +0.000 C 
BRANCH   9  10
ATOM     10  C   UNL     1      44.005   3.214  12.426  0.00  0.00    +0.000 C 
BRANCH  10  11
ATOM     11  N   UNL     1      45.417   2.841  12.566  0.00  0.00    +0.000 NA
ATOM     12  H   UNL     1      45.497   1.826  12.581  0.00  0.00    +0.000 HD
ATOM     13  H   UNL     1      45.767   3.169  13.467  0.00  0.00    +0.000 HD
ENDBRANCH  10  11
ENDBRANCH   9  10
ENDBRANCH   8   9
BRANCH   8  14
ATOM     14  C   UNL     1      44.477   4.000   8.722  0.00  0.00    +0.000 C 
BRANCH  14  15
ATOM     15  C   UNL     1      45.597   3.134   8.163  0.00  0.00    +0.000 A 
ATOM     16  C   UNL     1      46.557   3.677   7.311  0.00  0.00    +0.000 A 
ATOM     17  C   UNL     1      47.518   2.835   6.757  0.00  0.00    +0.000 A 
ATOM     18  C   UNL     1      47.506   1.484   7.079  0.00  0.00    +0.000 A 
ATOM     19  C   UNL     1      46.533   1.028   7.951  0.00  0.00    +0.000 A 
ATOM     20  N   UNL     1      45.582   1.818   8.497  0.00  0.00    +0.000 NA
ENDBRANCH  14  15
ENDBRANCH   8  14
ENDBRANCH   7   8
ENDBRANCH   1   7
BRANCH   4  21
ATOM     21  C   UNL     1      48.090   8.537  13.725  0.00  0.00    +0.000 C 
BRANCH  21  22
ATOM     22  N   UNL     1      48.101   8.149  15.116  0.00  0.00    +0.000 N 
ATOM     23  C   UNL     1      48.833   7.062  15.525  0.00  0.00    +0.000 C 
ATOM     24  O   UNL     1      49.537   6.430  14.740  0.00  0.00    +0.000 OA
ATOM     25  H   UNL     1      47.369   8.518  15.719  0.00  0.00    +0.000 HD
BRANCH  23  26
ATOM     26  C   UNL     1      48.784   6.712  16.950  0.00  0.00    +0.000 A 
ATOM     27  C   UNL     1      48.425   5.422  17.321  0.00  0.00    +0.000 A 
ATOM     28  S   UNL     1      48.427   5.167  19.006  0.00  0.00    +0.000 S 
ATOM     29  C   UNL     1      48.863   6.785  19.303  0.00  0.00    +0.000 A 
ATOM     30  N   UNL     1      48.999   7.245  20.574  0.00  0.00    +0.000 NA
ATOM     31  C   UNL     1      49.310   8.496  20.655  0.00  0.00    +0.000 A 
ATOM     32  N   UNL     1      49.507   9.324  19.582  0.00  0.00    +0.000 N 
ATOM     33  C   UNL     1      49.406   8.896  18.278  0.00  0.00    +0.000 A 
ATOM     34  O   UNL     1      49.620   9.651  17.336  0.00  0.00    +0.000 OA
ATOM     35  C   UNL     1      49.037   7.501  18.131  0.00  0.00    +0.000 A 
ATOM     36  H   UNL     1      49.768  10.290  19.717  0.00  0.00    +0.000 HD
ENDBRANCH  23  26
ENDBRANCH  21  22
ENDBRANCH   4  21
TORSDOF 10
ENDMDL
MODEL 4
REMARK VINA RESULT:    -6.549      1.760      2.478
REMARK INTER + INTRA:         -12.010
REMARK INTER:                 -10.665
REMARK INTRA:                  -1.345
REMARK UNBOUND:                -1.824
REMARK  Name = 
REMARK  10 active torsions:
REMARK  status: ('A' for Active; 'I' for Inactive)
REMARK    1  A    between atoms: N_1  and  C_2
REMARK    2  A    between atoms: C_2  and  C_3
REMARK    3  A    between atoms: C_3  and  N_4
REMARK    4  A    between atoms: N_4  and  C_5
REMARK    5  A    between atoms: N_4  and  C_12
REMARK    6  A    between atoms: C_5  and  C_6
REMARK    7  A    between atoms: C_12  and  C_13
REMARK    8  A    between atoms: C_16  and  C_17
REMARK    9  A    between atoms: C_17  and  N_18
REMARK   10  A    between atoms: C_19  and  C_21
REMARK                            x       y       z     vdW  Elec       q    Type
REMARK                         _______ _______ _______ _____ _____    ______ ____
ROOT
ATOM      1  C   UNL     1      46.377   7.313  12.002  0.00  0.00    +0.000 A 
ATOM      2  C   UNL     1      47.656   6.789  11.820  0.00  0.00    +0.000 A 
ATOM      3  C   UNL     1      48.720   7.344  12.526  0.00  0.00    +0.000 A 
ATOM      4  C   UNL     1      48.494   8.423  13.381  0.00  0.00    +0.000 A 
ATOM      5  C   UNL     1      47.191   8.894  13.484  0.00  0.00    +0.000 A 
ATOM      6  N   UNL     1      46.135   8.369  12.819  0.00  0.00    +0.000 NA
ENDROOT
BRANCH   1   7
ATOM      7  C   UNL     1      45.179   6.643  11.343  0.00  0.00    +0.000 C 
BRANCH   7   8
ATOM      8  N   UNL     1      45.287   5.154  11.277  0.00  0.00    +0.000 NA
BRANCH   8   9
ATOM      9  C   UNL     1      44.874   4.584  12.586  0.00  0.00    +0.000 C 
BRANCH   9  10
ATOM     10  C   UNL     1      43.372   4.249  12.713  0.00  0.00    +0.000 C 
BRANCH  10  11
ATOM     11  N   UNL     1      42.648   5.292  13.449  0.00  0.00    +0.000 NA
ATOM     12  H   UNL     1      42.009   4.854  14.109  0.00  0.00    +0.000 HD
ATOM     13  H   UNL     1      42.069   5.824  12.799  0.00  0.00    +0.000 HD
ENDBRANCH  10  11
ENDBRANCH   9  10
ENDBRANCH   8   9
BRANCH   8  14
ATOM     14  C   UNL     1      44.428   4.638  10.181  0.00  0.00    +0.000 C 
BRANCH  14  15
ATOM     15  C   UNL     1      45.156   3.795   9.145  0.00  0.00    +0.000 A 
ATOM     16  C   UNL     1      45.197   2.406   9.261  0.00  0.00    +0.000 A 
ATOM     17  C   UNL     1      45.940   1.676   8.338  0.00  0.00    +0.000 A 
ATOM     18  C   UNL     1      46.606   2.345   7.318  0.00  0.00    +0.000 A 
ATOM     19  C   UNL     1      46.495   3.723   7.258  0.00  0.00    +0.000 A 
ATOM     20  N   UNL     1      45.790   4.459   8.145  0.00  0.00    +0.000 NA
ENDBRANCH  14  15
ENDBRANCH   8  14
ENDBRANCH   7   8
ENDBRANCH   1   7
BRANCH   4  21
ATOM     21  C   UNL     1      49.603   9.027  14.188  0.00  0.00    +0.000 C 
BRANCH  21  22
ATOM     22  N   UNL     1      49.693   8.445  15.506  0.00  0.00    +0.000 N 
ATOM     23  C   UNL     1      50.807   7.731  15.873  0.00  0.00    +0.000 C 
ATOM     24  O   UNL     1      51.772   7.616  15.121  0.00  0.00    +0.000 OA
ATOM     25  H   UNL     1      48.835   8.348  16.044  0.00  0.00    +0.000 HD
BRANCH  23  26
ATOM     26  C   UNL     1      50.825   7.151  17.221  0.00  0.00    +0.000 A 
ATOM     27  C   UNL     1      51.768   7.595  18.140  0.00  0.00    +0.000 A 
ATOM     28  S   UNL     1      51.653   6.838  19.662  0.00  0.00    +0.000 S 
ATOM     29  C   UNL     1      50.368   5.856  19.135  0.00  0.00    +0.000 A 
ATOM     30  N   UNL     1      49.815   4.932  19.963  0.00  0.00    +0.000 NA
ATOM     31  C   UNL     1      48.865   4.239  19.428  0.00  0.00    +0.000 A 
ATOM     32  N   UNL     1      48.412   4.394  18.145  0.00  0.00    +0.000 N 
ATOM     33  C   UNL     1      48.924   5.334  17.279  0.00  0.00    +0.000 A 
ATOM     34  O   UNL     1      48.477   5.473  16.145  0.00  0.00    +0.000 OA
ATOM     35  C   UNL     1      50.010   6.125  17.825  0.00  0.00    +0.000 A 
ATOM     36  H   UNL     1      47.651   3.831  17.795  0.00  0.00    +0.000 HD
ENDBRANCH  23  26
ENDBRANCH  21  22
ENDBRANCH   4  21
TORSDOF 10
ENDMDL
MODEL 5
REMARK VINA RESULT:    -6.406      2.930      4.050
REMARK INTER + INTRA:         -11.787
REMARK INTER:                 -11.076
REMARK INTRA:                  -0.711
REMARK UNBOUND:                -1.824
REMARK  Name = 
REMARK  10 active torsions:
REMARK  status: ('A' for Active; 'I' for Inactive)
REMARK    1  A    between atoms: N_1  and  C_2
REMARK    2  A    between atoms: C_2  and  C_3
REMARK    3  A    between atoms: C_3  and  N_4
REMARK    4  A    between atoms: N_4  and  C_5
REMARK    5  A    between atoms: N_4  and  C_12
REMARK    6  A    between atoms: C_5  and  C_6
REMARK    7  A    between atoms: C_12  and  C_13
REMARK    8  A    between atoms: C_16  and  C_17
REMARK    9  A    between atoms: C_17  and  N_18
REMARK   10  A    between atoms: C_19  and  C_21
REMARK                            x       y       z     vdW  Elec       q    Type
REMARK                         _______ _______ _______ _____ _____    ______ ____
ROOT
ATOM      1  C   UNL     1      46.280   4.509  12.676  0.00  0.00    +0.000 A 
ATOM      2  C   UNL     1      46.764   5.788  12.946  0.00  0.00    +0.000 A 
ATOM      3  C   UNL     1      47.320   6.049  14.196  0.00  0.00    +0.000 A 
ATOM      4  C   UNL     1      47.362   5.039  15.159  0.00  0.00    +0.000 A 
ATOM      5  C   UNL     1      46.837   3.801  14.809  0.00  0.00    +0.000 A 
ATOM      6  N   UNL     1      46.300   3.514  13.599  0.00  0.00    +0.000 NA
ENDROOT
BRANCH   1   7
ATOM      7  C   UNL     1      45.787   4.162  11.278  0.00  0.00    +0.000 C 
BRANCH   7   8
ATOM      8  N   UNL     1      44.321   3.876  11.214  0.00  0.00    +0.000 NA
BRANCH   8   9
ATOM      9  C   UNL     1      43.597   5.140  10.917  0.00  0.00    +0.000 C 
BRANCH   9  10
ATOM     10  C   UNL     1      42.432   5.471  11.875  0.00  0.00    +0.000 C 
BRANCH  10  11
ATOM     11  N   UNL     1      42.887   5.556  13.267  0.00  0.00    +0.000 NA
ATOM     12  H   UNL     1      43.674   6.199  13.324  0.00  0.00    +0.000 HD
ATOM     13  H   UNL     1      43.238   4.645  13.564  0.00  0.00    +0.000 HD
ENDBRANCH  10  11
ENDBRANCH   9  10
ENDBRANCH   8   9
BRANCH   8  14
ATOM     14  C   UNL     1      44.055   2.857  10.168  0.00  0.00    +0.000 C 
BRANCH  14  15
ATOM     15  C   UNL     1      45.109   2.777   9.073  0.00  0.00    +0.000 A 
ATOM     16  C   UNL     1      45.378   3.882   8.266  0.00  0.00    +0.000 A 
ATOM     17  C   UNL     1      46.291   3.745   7.224  0.00  0.00    +0.000 A 
ATOM     18  C   UNL     1      46.920   2.522   7.025  0.00  0.00    +0.000 A 
ATOM     19  C   UNL     1      46.615   1.482   7.885  0.00  0.00    +0.000 A 
ATOM     20  N   UNL     1      45.727   1.581   8.898  0.00  0.00    +0.000 NA
ENDBRANCH  14  15
ENDBRANCH   8  14
ENDBRANCH   7   8
ENDBRANCH   1   7
BRANCH   4  21
ATOM     21  C   UNL     1      47.985   5.266  16.503  0.00  0.00    +0.000 C 
BRANCH  21  22
ATOM     22  N   UNL     1      49.264   4.608  16.625  0.00  0.00    +0.000 N 
ATOM     23  C   UNL     1      49.426   3.570  17.509  0.00  0.00    +0.000 C 
ATOM     24  O   UNL     1      48.485   3.138  18.172  0.00  0.00    +0.000 OA
ATOM     25  H   UNL     1      50.083   5.085  16.255  0.00  0.00    +0.000 HD
BRANCH  23  26
ATOM     26  C   UNL     1      50.757   2.958  17.597  0.00  0.00    +0.000 A 
ATOM     27  C   UNL     1      50.891   1.589  17.404  0.00  0.00    +0.000 A 
ATOM     28  S   UNL     1      52.496   1.031  17.523  0.00  0.00    +0.000 S 
ATOM     29  C   UNL     1      53.067   2.593  17.884  0.00  0.00    +0.000 A 
ATOM     30  N   UNL     1      54.383   2.809  18.141  0.00  0.00    +0.000 NA
ATOM     31  C   UNL     1      54.675   4.036  18.423  0.00  0.00    +0.000 A 
ATOM     32  N   UNL     1      53.772   5.065  18.461  0.00  0.00    +0.000 N 
ATOM     33  C   UNL     1      52.434   4.898  18.183  0.00  0.00    +0.000 A 
ATOM     34  O   UNL     1      51.654   5.844  18.193  0.00  0.00    +0.000 OA
ATOM     35  C   UNL     1      52.050   3.533  17.881  0.00  0.00    +0.000 A 
ATOM     36  H   UNL     1      54.072   6.006  18.670  0.00  0.00    +0.000 HD
ENDBRANCH  23  26
ENDBRANCH  21  22
ENDBRANCH   4  21
TORSDOF 10
ENDMDL
MODEL 6
REMARK VINA RESULT:    -6.249      2.993      8.311
REMARK INTER + INTRA:         -11.544
REMARK INTER:                 -10.095
REMARK INTRA:                  -1.449
REMARK UNBOUND:                -1.824
REMARK  Name = 
REMARK  10 active torsions:
REMARK  status: ('A' for Active; 'I' for Inactive)
REMARK    1  A    between atoms: N_1  and  C_2
REMARK    2  A    between atoms: C_2  and  C_3
REMARK    3  A    between atoms: C_3  and  N_4
REMARK    4  A    between atoms: N_4  and  C_5
REMARK    5  A    between atoms: N_4  and  C_12
REMARK    6  A    between atoms: C_5  and  C_6
REMARK    7  A    between atoms: C_12  and  C_13
REMARK    8  A    between atoms: C_16  and  C_17
REMARK    9  A    between atoms: C_17  and  N_18
REMARK   10  A    between atoms: C_19  and  C_21
REMARK                            x       y       z     vdW  Elec       q    Type
REMARK                         _______ _______ _______ _____ _____    ______ ____
ROOT
ATOM      1  C   UNL     1      49.477   7.873  15.409  0.00  0.00    +0.000 A 
ATOM      2  C   UNL     1      48.472   8.833  15.307  0.00  0.00    +0.000 A 
ATOM      3  C   UNL     1      47.699   8.880  14.150  0.00  0.00    +0.000 A 
ATOM      4  C   UNL     1      47.957   7.988  13.109  0.00  0.00    +0.000 A 
ATOM      5  C   UNL     1      48.993   7.079  13.290  0.00  0.00    +0.000 A 
ATOM      6  N   UNL     1      49.755   7.002  14.407  0.00  0.00    +0.000 NA
ENDROOT
BRANCH   1   7
ATOM      7  C   UNL     1      50.250   7.716  16.712  0.00  0.00    +0.000 C 
BRANCH   7   8
ATOM      8  N   UNL     1      51.128   6.508  16.746  0.00  0.00    +0.000 NA
BRANCH   8   9
ATOM      9  C   UNL     1      52.540   6.944  16.904  0.00  0.00    +0.000 C 
BRANCH   9  10
ATOM     10  C   UNL     1      53.088   7.825  15.760  0.00  0.00    +0.000 C 
BRANCH  10  11
ATOM     11  N   UNL     1      53.588   7.012  14.646  0.00  0.00    +0.000 NA
ATOM     12  H   UNL     1      53.816   6.080  14.987  0.00  0.00    +0.000 HD
ATOM     13  H   UNL     1      54.460   7.413  14.299  0.00  0.00    +0.000 HD
ENDBRANCH  10  11
ENDBRANCH   9  10
ENDBRANCH   8   9
BRANCH   8  14
ATOM     14  C   UNL     1      50.720   5.623  17.866  0.00  0.00    +0.000 C 
BRANCH  14  15
ATOM     15  C   UNL     1      49.549   4.702  17.556  0.00  0.00    +0.000 A 
ATOM     16  C   UNL     1      48.237   5.127  17.761  0.00  0.00    +0.000 A 
ATOM     17  C   UNL     1      47.197   4.228  17.541  0.00  0.00    +0.000 A 
ATOM     18  C   UNL     1      47.490   2.940  17.110  0.00  0.00    +0.000 A 
ATOM     19  C   UNL     1      48.817   2.604  16.908  0.00  0.00    +0.000 A 
ATOM     20  N   UNL     1      49.848   3.451  17.121  0.00  0.00    +0.000 NA
ENDBRANCH  14  15
ENDBRANCH   8  14
ENDBRANCH   7   8
ENDBRANCH   1   7
BRANCH   4  21
ATOM     21  C   UNL     1      47.126   7.979  11.863  0.00  0.00    +0.000 C 
BRANCH  21  22
ATOM     22  N   UNL     1      46.559   6.678  11.598  0.00  0.00    +0.000 N 
ATOM     23  C   UNL     1      45.199   6.496  11.630  0.00  0.00    +0.000 C 
ATOM     24  O   UNL     1      44.430   7.435  11.825  0.00  0.00    +0.000 OA
ATOM     25  H   UNL     1      47.175   5.870  11.651  0.00  0.00    +0.000 HD
BRANCH  23  26
ATOM     26  C   UNL     1      44.691   5.144  11.369  0.00  0.00    +0.000 A 
ATOM     27  C   UNL     1      43.938   4.500  12.343  0.00  0.00    +0.000 A 
ATOM     28  S   UNL     1      43.411   2.945  11.889  0.00  0.00    +0.000 S 
ATOM     29  C   UNL     1      44.209   3.055  10.390  0.00  0.00    +0.000 A 
ATOM     30  N   UNL     1      44.187   2.018   9.514  0.00  0.00    +0.000 NA
ATOM     31  C   UNL     1      44.852   2.227   8.426  0.00  0.00    +0.000 A 
ATOM     32  N   UNL     1      45.528   3.382   8.133  0.00  0.00    +0.000 N 
ATOM     33  C   UNL     1      45.558   4.468   8.979  0.00  0.00    +0.000 A 
ATOM     34  O   UNL     1      46.144   5.501   8.677  0.00  0.00    +0.000 OA
ATOM     35  C   UNL     1      44.842   4.276  10.226  0.00  0.00    +0.000 A 
ATOM     36  H   UNL     1      46.014   3.486   7.254  0.00  0.00    +0.000 HD
ENDBRANCH  23  26
ENDBRANCH  21  22
ENDBRANCH   4  21
TORSDOF 10
ENDMDL
MODEL 7
REMARK VINA RESULT:    -6.213      4.952      6.628
REMARK INTER + INTRA:         -11.488
REMARK INTER:                 -10.159
REMARK INTRA:                  -1.329
REMARK UNBOUND:                -1.824
REMARK  Name = 
REMARK  10 active torsions:
REMARK  status: ('A' for Active; 'I' for Inactive)
REMARK    1  A    between atoms: N_1  and  C_2
REMARK    2  A    between atoms: C_2  and  C_3
REMARK    3  A    between atoms: C_3  and  N_4
REMARK    4  A    between atoms: N_4  and  C_5
REMARK    5  A    between atoms: N_4  and  C_12
REMARK    6  A    between atoms: C_5  and  C_6
REMARK    7  A    between atoms: C_12  and  C_13
REMARK    8  A    between atoms: C_16  and  C_17
REMARK    9  A    between atoms: C_17  and  N_18
REMARK   10  A    between atoms: C_19  and  C_21
REMARK                            x       y       z     vdW  Elec       q    Type
REMARK                         _______ _______ _______ _____ _____    ______ ____
ROOT
ATOM      1  C   UNL     1      47.236   7.394  12.283  0.00  0.00    +0.000 A 
ATOM      2  C   UNL     1      47.378   8.729  11.911  0.00  0.00    +0.000 A 
ATOM      3  C   UNL     1      48.656   9.238  11.696  0.00  0.00    +0.000 A 
ATOM      4  C   UNL     1      49.768   8.415  11.879  0.00  0.00    +0.000 A 
ATOM      5  C   UNL     1      49.533   7.103  12.272  0.00  0.00    +0.000 A 
ATOM      6  N   UNL     1      48.302   6.577  12.479  0.00  0.00    +0.000 NA
ENDROOT
BRANCH   1   7
ATOM      7  C   UNL     1      45.848   6.779  12.398  0.00  0.00    +0.000 C 
BRANCH   7   8
ATOM      8  N   UNL     1      45.769   5.377  11.887  0.00  0.00    +0.000 NA
BRANCH   8   9
ATOM      9  C   UNL     1      45.354   4.483  12.999  0.00  0.00    +0.000 C 
BRANCH   9  10
ATOM     10  C   UNL     1      46.300   3.294  13.275  0.00  0.00    +0.000 C 
BRANCH  10  11
ATOM     11  N   UNL     1      47.535   3.731  13.937  0.00  0.00    +0.000 NA
ATOM     12  H   UNL     1      47.302   4.379  14.687  0.00  0.00    +0.000 HD
ATOM     13  H   UNL     1      48.108   4.254  13.273  0.00  0.00    +0.000 HD
ENDBRANCH  10  11
ENDBRANCH   9  10
ENDBRANCH   8   9
BRANCH   8  14
ATOM     14  C   UNL     1      44.802   5.308  10.763  0.00  0.00    +0.000 C 
BRANCH  14  15
ATOM     15  C   UNL     1      45.198   4.361   9.640  0.00  0.00    +0.000 A 
ATOM     16  C   UNL     1      44.912   2.999   9.725  0.00  0.00    +0.000 A 
ATOM     17  C   UNL     1      45.361   2.153   8.715  0.00  0.00    +0.000 A 
ATOM     18  C   UNL     1      46.067   2.687   7.643  0.00  0.00    +0.000 A 
ATOM     19  C   UNL     1      46.288   4.053   7.621  0.00  0.00    +0.000 A 
ATOM     20  N   UNL     1      45.873   4.897   8.591  0.00  0.00    +0.000 NA
ENDBRANCH  14  15
ENDBRANCH   8  14
ENDBRANCH   7   8
ENDBRANCH   1   7
BRANCH   4  21
ATOM     21  C   UNL     1      51.158   8.911  11.623  0.00  0.00    +0.000 C 
BRANCH  21  22
ATOM     22  N   UNL     1      52.065   7.837  11.294  0.00  0.00    +0.000 N 
ATOM     23  C   UNL     1      52.770   7.864  10.117  0.00  0.00    +0.000 C 
ATOM     24  O   UNL     1      52.696   8.817   9.344  0.00  0.00    +0.000 OA
ATOM     25  H   UNL     1      51.973   6.962  11.805  0.00  0.00    +0.000 HD
BRANCH  23  26
ATOM     26  C   UNL     1      53.661   6.730   9.837  0.00  0.00    +0.000 A 
ATOM     27  C   UNL     1      54.618   6.370  10.777  0.00  0.00    +0.000 A 
ATOM     28  S   UNL     1      55.565   5.030  10.314  0.00  0.00    +0.000 S 
ATOM     29  C   UNL     1      54.760   4.912   8.819  0.00  0.00    +0.000 A 
ATOM     30  N   UNL     1      55.121   3.971   7.909  0.00  0.00    +0.000 NA
ATOM     31  C   UNL     1      54.444   4.008   6.809  0.00  0.00    +0.000 A 
ATOM     32  N   UNL     1      53.434   4.894   6.543  0.00  0.00    +0.000 N 
ATOM     33  C   UNL     1      53.017   5.847   7.444  0.00  0.00    +0.000 A 
ATOM     34  O   UNL     1      52.088   6.607   7.192  0.00  0.00    +0.000 OA
ATOM     35  C   UNL     1      53.761   5.861   8.690  0.00  0.00    +0.000 A 
ATOM     36  H   UNL     1      52.932   4.856   5.668  0.00  0.00    +0.000 HD
ENDBRANCH  23  26
ENDBRANCH  21  22
ENDBRANCH   4  21
TORSDOF 10
ENDMDL
MODEL 8
REMARK VINA RESULT:    -6.212      2.305      3.169
REMARK INTER + INTRA:         -11.487
REMARK INTER:                 -11.082
REMARK INTRA:                  -0.405
REMARK UNBOUND:                -1.824
REMARK  Name = 
REMARK  10 active torsions:
REMARK  status: ('A' for Active; 'I' for Inactive)
REMARK    1  A    between atoms: N_1  and  C_2
REMARK    2  A    between atoms: C_2  and  C_3
REMARK    3  A    between atoms: C_3  and  N_4
REMARK    4  A    between atoms: N_4  and  C_5
REMARK    5  A    between atoms: N_4  and  C_12
REMARK    6  A    between atoms: C_5  and  C_6
REMARK    7  A    between atoms: C_12  and  C_13
REMARK    8  A    between atoms: C_16  and  C_17
REMARK    9  A    between atoms: C_17  and  N_18
REMARK   10  A    between atoms: C_19  and  C_21
REMARK                            x       y       z     vdW  Elec       q    Type
REMARK                         _______ _______ _______ _____ _____    ______ ____
ROOT
ATOM      1  C   UNL     1      45.864   5.732  11.425  0.00  0.00    +0.000 A 
ATOM      2  C   UNL     1      45.755   7.121  11.425  0.00  0.00    +0.000 A 
ATOM      3  C   UNL     1      46.450   7.853  12.385  0.00  0.00    +0.000 A 
ATOM      4  C   UNL     1      47.220   7.186  13.339  0.00  0.00    +0.000 A 
ATOM      5  C   UNL     1      47.253   5.798  13.276  0.00  0.00    +0.000 A 
ATOM      6  N   UNL     1      46.597   5.061  12.350  0.00  0.00    +0.000 NA
ENDROOT
BRANCH   1   7
ATOM      7  C   UNL     1      45.220   4.918  10.311  0.00  0.00    +0.000 C 
BRANCH   7   8
ATOM      8  N   UNL     1      44.470   3.722  10.800  0.00  0.00    +0.000 NA
BRANCH   8   9
ATOM      9  C   UNL     1      43.218   4.177  11.460  0.00  0.00    +0.000 C 
BRANCH   9  10
ATOM     10  C   UNL     1      43.270   4.232  13.003  0.00  0.00    +0.000 C 
BRANCH  10  11
ATOM     11  N   UNL     1      42.739   5.500  13.514  0.00  0.00    +0.000 NA
ATOM     12  H   UNL     1      43.482   6.197  13.521  0.00  0.00    +0.000 HD
ATOM     13  H   UNL     1      42.451   5.380  14.486  0.00  0.00    +0.000 HD
ENDBRANCH  10  11
ENDBRANCH   9  10
ENDBRANCH   8   9
BRANCH   8  14
ATOM     14  C   UNL     1      44.168   2.820   9.660  0.00  0.00    +0.000 C 
BRANCH  14  15
ATOM     15  C   UNL     1      45.294   2.676   8.647  0.00  0.00    +0.000 A 
ATOM     16  C   UNL     1      45.590   3.712   7.762  0.00  0.00    +0.000 A 
ATOM     17  C   UNL     1      46.574   3.512   6.798  0.00  0.00    +0.000 A 
ATOM     18  C   UNL     1      47.244   2.296   6.750  0.00  0.00    +0.000 A 
ATOM     19  C   UNL     1      46.908   1.327   7.680  0.00  0.00    +0.000 A 
ATOM     20  N   UNL     1      45.952   1.488   8.621  0.00  0.00    +0.000 NA
ENDBRANCH  14  15
ENDBRANCH   8  14
ENDBRANCH   7   8
ENDBRANCH   1   7
BRANCH   4  21
ATOM     21  C   UNL     1      48.013   7.936  14.366  0.00  0.00    +0.000 C 
BRANCH  21  22
ATOM     22  N   UNL     1      49.051   7.120  14.951  0.00  0.00    +0.000 N 
ATOM     23  C   UNL     1      49.152   7.003  16.315  0.00  0.00    +0.000 C 
ATOM     24  O   UNL     1      48.339   7.535  17.067  0.00  0.00    +0.000 OA
ATOM     25  H   UNL     1      49.841   6.860  14.364  0.00  0.00    +0.000 HD
BRANCH  23  26
ATOM     26  C   UNL     1      50.241   6.172  16.843  0.00  0.00    +0.000 A 
ATOM     27  C   UNL     1      49.951   5.178  17.769  0.00  0.00    +0.000 A 
ATOM     28  S   UNL     1      51.315   4.292  18.277  0.00  0.00    +0.000 S 
ATOM     29  C   UNL     1      52.352   5.237  17.312  0.00  0.00    +0.000 A 
ATOM     30  N   UNL     1      53.692   5.019  17.314  0.00  0.00    +0.000 NA
ATOM     31  C   UNL     1      54.363   5.821  16.556  0.00  0.00    +0.000 A 
ATOM     32  N   UNL     1      53.812   6.814  15.789  0.00  0.00    +0.000 N 
ATOM     33  C   UNL     1      52.458   7.055  15.736  0.00  0.00    +0.000 A 
ATOM     34  O   UNL     1      51.990   7.930  15.016  0.00  0.00    +0.000 OA
ATOM     35  C   UNL     1      51.661   6.193  16.588  0.00  0.00    +0.000 A 
ATOM     36  H   UNL     1      54.394   7.395  15.204  0.00  0.00    +0.000 HD
ENDBRANCH  23  26
ENDBRANCH  21  22
ENDBRANCH   4  21
TORSDOF 10
ENDMDL
MODEL 9
REMARK VINA RESULT:    -6.088      3.070      5.470
REMARK INTER + INTRA:         -11.294
REMARK INTER:                 -10.080
REMARK INTRA:                  -1.214
REMARK UNBOUND:                -1.824
REMARK  Name = 
REMARK  10 active torsions:
REMARK  status: ('A' for Active; 'I' for Inactive)
REMARK    1  A    between atoms: N_1  and  C_2
REMARK    2  A    between atoms: C_2  and  C_3
REMARK    3  A    between atoms: C_3  and  N_4
REMARK    4  A    between atoms: N_4  and  C_5
REMARK    5  A    between atoms: N_4  and  C_12
REMARK    6  A    between atoms: C_5  and  C_6
REMARK    7  A    between atoms: C_12  and  C_13
REMARK    8  A    between atoms: C_16  and  C_17
REMARK    9  A    between atoms: C_17  and  N_18
REMARK   10  A    between atoms: C_19  and  C_21
REMARK                            x       y       z     vdW  Elec       q    Type
REMARK                         _______ _______ _______ _____ _____    ______ ____
ROOT
ATOM      1  C   UNL     1      46.942   4.678  14.287  0.00  0.00    +0.000 A 
ATOM      2  C   UNL     1      47.774   5.766  14.029  0.00  0.00    +0.000 A 
ATOM      3  C   UNL     1      48.528   6.301  15.070  0.00  0.00    +0.000 A 
ATOM      4  C   UNL     1      48.421   5.758  16.351  0.00  0.00    +0.000 A 
ATOM      5  C   UNL     1      47.551   4.688  16.521  0.00  0.00    +0.000 A 
ATOM      6  N   UNL     1      46.813   4.140  15.526  0.00  0.00    +0.000 NA
ENDROOT
BRANCH   1   7
ATOM      7  C   UNL     1      46.207   3.994  13.143  0.00  0.00    +0.000 C 
BRANCH   7   8
ATOM      8  N   UNL     1      45.672   4.945  12.122  0.00  0.00    +0.000 NA
BRANCH   8   9
ATOM      9  C   UNL     1      44.983   4.170  11.057  0.00  0.00    +0.000 C 
BRANCH   9  10
ATOM     10  C   UNL     1      45.229   4.670   9.616  0.00  0.00    +0.000 C 
BRANCH  10  11
ATOM     11  N   UNL     1      44.101   4.348   8.735  0.00  0.00    +0.000 NA
ATOM     12  H   UNL     1      43.841   5.178   8.206  0.00  0.00    +0.000 HD
ATOM     13  H   UNL     1      43.288   4.102   9.301  0.00  0.00    +0.000 HD
ENDBRANCH  10  11
ENDBRANCH   9  10
ENDBRANCH   8   9
BRANCH   8  14
ATOM     14  C   UNL     1      44.737   5.900  12.769  0.00  0.00    +0.000 C 
BRANCH  14  15
ATOM     15  C   UNL     1      44.876   7.342  12.304  0.00  0.00    +0.000 A 
ATOM     16  C   UNL     1      45.802   8.195  12.903  0.00  0.00    +0.000 A 
ATOM     17  C   UNL     1      45.844   9.529  12.504  0.00  0.00    +0.000 A 
ATOM     18  C   UNL     1      44.977   9.970  11.513  0.00  0.00    +0.000 A 
ATOM     19  C   UNL     1      44.104   9.054  10.951  0.00  0.00    +0.000 A 
ATOM     20  N   UNL     1      44.034   7.758  11.324  0.00  0.00    +0.000 NA
ENDBRANCH  14  15
ENDBRANCH   8  14
ENDBRANCH   7   8
ENDBRANCH   1   7
BRANCH   4  21
ATOM     21  C   UNL     1      49.242   6.279  17.492  0.00  0.00    +0.000 C 
BRANCH  21  22
ATOM     22  N   UNL     1      50.220   5.316  17.940  0.00  0.00    +0.000 N 
ATOM     23  C   UNL     1      51.486   5.320  17.410  0.00  0.00    +0.000 C 
ATOM     24  O   UNL     1      51.838   6.166  16.592  0.00  0.00    +0.000 OA
ATOM     25  H   UNL     1      49.887   4.496  18.440  0.00  0.00    +0.000 HD
BRANCH  23  26
ATOM     26  C   UNL     1      52.425   4.302  17.898  0.00  0.00    +0.000 A 
ATOM     27  C   UNL     1      53.621   4.703  18.480  0.00  0.00    +0.000 A 
ATOM     28  S   UNL     1      54.597   3.409  19.007  0.00  0.00    +0.000 S 
ATOM     29  C   UNL     1      53.477   2.263  18.433  0.00  0.00    +0.000 A 
ATOM     30  N   UNL     1      53.729   0.933  18.540  0.00  0.00    +0.000 NA
ATOM     31  C   UNL     1      52.808   0.176  18.044  0.00  0.00    +0.000 A 
ATOM     32  N   UNL     1      51.654   0.629  17.460  0.00  0.00    +0.000 N 
ATOM     33  C   UNL     1      51.345   1.966  17.353  0.00  0.00    +0.000 A 
ATOM     34  O   UNL     1      50.290   2.343  16.855  0.00  0.00    +0.000 OA
ATOM     35  C   UNL     1      52.359   2.861  17.877  0.00  0.00    +0.000 A 
ATOM     36  H   UNL     1      50.965  -0.020  17.108  0.00  0.00    +0.000 HD
ENDBRANCH  23  26
ENDBRANCH  21  22
ENDBRANCH   4  21
TORSDOF 10
ENDMDL
