MODEL 1
REMARK VINA RESULT:    -9.451      0.000      0.000
REMARK INTER + INTRA:         -13.232
REMARK INTER:                 -12.213
REMARK INTRA:                  -1.018
REMARK UNBOUND:                -1.018
REMARK  Name = 
REMARK  5 active torsions:
REMARK  status: ('A' for Active; 'I' for Inactive)
REMARK    1  A    between atoms: C_2  and  C_4
REMARK    2  A    between atoms: N_8  and  C_9
REMARK    3  A    between atoms: C_9  and  C_10
REMARK    4  A    between atoms: C_14  and  C_15
REMARK    5  A    between atoms: C_19  and  C_20
REMARK                            x       y       z     vdW  Elec       q    Type
REMARK                         _______ _______ _______ _____ _____    ______ ____
ROOT
ATOM      1  C   UNL     1      43.941   4.851  11.642  0.00  0.00    +0.000 C 
ATOM      2  C   UNL     1      42.748   4.789  12.595  0.00  0.00    +0.000 C 
ATOM      3  C   UNL     1      42.669   5.637  11.373  0.00  0.00    +0.000 C 
ENDROOT
BRANCH   1   8
ATOM      4  C   UNL     1      46.421   2.764   7.541  0.00  0.00    +0.000 A 
ATOM      5  C   UNL     1      46.153   4.096   7.844  0.00  0.00    +0.000 A 
ATOM      6  C   UNL     1      45.410   4.399   8.987  0.00  0.00    +0.000 A 
ATOM      7  C   UNL     1      44.972   3.375   9.816  0.00  0.00    +0.000 A 
ATOM      8  N   UNL     1      44.242   3.584  10.979  0.00  0.00    +0.000 N 
ATOM      9  N   UNL     1      45.214   2.078   9.521  0.00  0.00    +0.000 NA
ATOM     10  C   UNL     1      45.911   1.796   8.388  0.00  0.00    +0.000 A 
ATOM     11  H   UNL     1      44.101   2.703  11.460  0.00  0.00    +0.000 HD
BRANCH   4  13
ATOM     12  N   UNL     1      47.156   3.180   5.269  0.00  0.00    +0.000 N 
ATOM     13  C   UNL     1      47.200   2.352   6.356  0.00  0.00    +0.000 C 
ATOM     14  O   UNL     1      47.883   1.337   6.357  0.00  0.00    +0.000 OA
ATOM     15  H   UNL     1      47.770   2.946   4.498  0.00  0.00    +0.000 HD
ATOM     16  H   UNL     1      46.827   4.133   5.327  0.00  0.00    +0.000 HD
ENDBRANCH   4  13
ENDBRANCH   1   8
BRANCH   1  17
ATOM     17  C   UNL     1      45.155   5.679  12.058  0.00  0.00    +0.000 A 
ATOM     18  C   UNL     1      45.446   6.907  11.443  0.00  0.00    +0.000 A 
ATOM     19  C   UNL     1      46.485   7.720  11.891  0.00  0.00    +0.000 A 
ATOM     20  C   UNL     1      47.257   7.324  12.980  0.00  0.00    +0.000 A 
ATOM     21  C   UNL     1      47.016   6.109  13.637  0.00  0.00    +0.000 A 
ATOM     22  C   UNL     1      45.980   5.293  13.134  0.00  0.00    +0.000 A 
BRANCH  21  23
ATOM     23  C   UNL     1      47.772   5.719  14.846  0.00  0.00    +0.000 A 
ATOM     24  C   UNL     1      48.698   6.578  15.446  0.00  0.00    +0.000 A 
ATOM     25  N   UNL     1      49.398   6.308  16.575  0.00  0.00    +0.000 NA
ATOM     26  C   UNL     1      49.160   5.120  17.169  0.00  0.00    +0.000 A 
ATOM     27  C   UNL     1      48.264   4.184  16.682  0.00  0.00    +0.000 A 
ATOM     28  C   UNL     1      47.576   4.494  15.499  0.00  0.00    +0.000 A 
BRANCH  27  29
ATOM     29  C   UNL     1      48.028   2.898  17.408  0.00  0.00    +0.000 C 
ATOM     30  F   UNL     1      46.711   2.602  17.584  0.00  0.00    +0.000 F 
ATOM     31  F   UNL     1      48.564   1.830  16.753  0.00  0.00    +0.000 F 
ATOM     32  F   UNL     1      48.583   2.889  18.650  0.00  0.00    +0.000 F 
ENDBRANCH  27  29
ENDBRANCH  21  23
ENDBRANCH   1  17
TORSDOF 5
ENDMDL
MODEL 2
REMARK VINA RESULT:    -8.612      1.673      2.013
REMARK INTER + INTRA:         -12.147
REMARK INTER:                 -11.101
REMARK INTRA:                  -1.046
REMARK UNBOUND:                -1.018
REMARK  Name = 
REMARK  5 active torsions:
REMARK  status: ('A' for Active; 'I' for Inactive)
REMARK    1  A    between atoms: C_2  and  C_4
REMARK    2  A    between atoms: N_8  and  C_9
REMARK    3  A    between atoms: C_9  and  C_10
REMARK    4  A    between atoms: C_14  and  C_15
REMARK    5  A    between atoms: C_19  and  C_20
REMARK                            x       y       z     vdW  Elec       q    Type
REMARK                         _______ _______ _______ _____ _____    ______ ____
ROOT
ATOM      1  C   UNL     1      44.141   4.857  11.525  0.00  0.00    +0.000 C 
ATOM      2  C   UNL     1      42.832   4.847  12.313  0.00  0.00    +0.000 C 
ATOM      3  C   UNL     1      43.014   5.821  11.201  0.00  0.00    +0.000 C 
ENDROOT
BRANCH   1   8
ATOM      4  C   UNL     1      46.558   3.006   7.276  0.00  0.00    +0.000 A 
ATOM      5  C   UNL     1      46.355   4.319   7.691  0.00  0.00    +0.000 A 
ATOM      6  C   UNL     1      45.615   4.561   8.851  0.00  0.00    +0.000 A 
ATOM      7  C   UNL     1      45.116   3.493   9.586  0.00  0.00    +0.000 A 
ATOM      8  N   UNL     1      44.385   3.638  10.757  0.00  0.00    +0.000 N 
ATOM      9  N   UNL     1      45.295   2.215   9.180  0.00  0.00    +0.000 NA
ATOM     10  C   UNL     1      45.989   1.996   8.032  0.00  0.00    +0.000 A 
ATOM     11  H   UNL     1      44.194   2.727  11.159  0.00  0.00    +0.000 HD
BRANCH   4  13
ATOM     12  N   UNL     1      48.642   2.325   6.241  0.00  0.00    +0.000 N 
ATOM     13  C   UNL     1      47.328   2.659   6.064  0.00  0.00    +0.000 C 
ATOM     14  O   UNL     1      46.806   2.633   4.958  0.00  0.00    +0.000 OA
ATOM     15  H   UNL     1      49.136   1.990   5.422  0.00  0.00    +0.000 HD
ATOM     16  H   UNL     1      49.023   2.083   7.144  0.00  0.00    +0.000 HD
ENDBRANCH   4  13
ENDBRANCH   1   8
BRANCH   1  17
ATOM     17  C   UNL     1      45.373   5.476  12.182  0.00  0.00    +0.000 A 
ATOM     18  C   UNL     1      45.893   6.705  11.744  0.00  0.00    +0.000 A 
ATOM     19  C   UNL     1      46.947   7.330  12.409  0.00  0.00    +0.000 A 
ATOM     20  C   UNL     1      47.503   6.739  13.540  0.00  0.00    +0.000 A 
ATOM     21  C   UNL     1      47.028   5.513  14.026  0.00  0.00    +0.000 A 
ATOM     22  C   UNL     1      45.985   4.890  13.309  0.00  0.00    +0.000 A 
BRANCH  21  23
ATOM     23  C   UNL     1      47.553   4.920  15.275  0.00  0.00    +0.000 A 
ATOM     24  C   UNL     1      47.272   3.600  15.641  0.00  0.00    +0.000 A 
ATOM     25  N   UNL     1      47.748   2.976  16.746  0.00  0.00    +0.000 NA
ATOM     26  C   UNL     1      48.572   3.691  17.540  0.00  0.00    +0.000 A 
ATOM     27  C   UNL     1      48.936   5.002  17.287  0.00  0.00    +0.000 A 
ATOM     28  C   UNL     1      48.404   5.617  16.144  0.00  0.00    +0.000 A 
BRANCH  27  29
ATOM     29  C   UNL     1      49.879   5.725  18.195  0.00  0.00    +0.000 C 
ATOM     30  F   UNL     1      49.538   5.650  19.511  0.00  0.00    +0.000 F 
ATOM     31  F   UNL     1      51.149   5.241  18.114  0.00  0.00    +0.000 F 
ATOM     32  F   UNL     1      49.968   7.052  17.908  0.00  0.00    +0.000 F 
ENDBRANCH  27  29
ENDBRANCH  21  23
ENDBRANCH   1  17
TORSDOF 5
ENDMDL
MODEL 3
REMARK VINA RESULT:    -7.869      4.272      8.065
REMARK INTER + INTRA:         -11.187
REMARK INTER:                 -11.068
REMARK INTRA:                  -0.119
REMARK UNBOUND:                -1.018
REMARK  Name = 
REMARK  5 active torsions:
REMARK  status: ('A' for Active; 'I' for Inactive)
REMARK    1  A    between atoms: C_2  and  C_4
REMARK    2  A    between atoms: N_8  and  C_9
REMARK    3  A    between atoms: C_9  and  C_10
REMARK    4  A    between atoms: C_14  and  C_15
REMARK    5  A    between atoms: C_19  and  C_20
REMARK                            x       y       z     vdW  Elec       q    Type
REMARK                         _______ _______ _______ _____ _____    ______ ____
ROOT
ATOM      1  C   UNL     1      48.543   8.027  12.593  0.00  0.00    +0.000 C 
ATOM      2  C   UNL     1      49.667   7.668  11.622  0.00  0.00    +0.000 C 
ATOM      3  C   UNL     1      49.254   9.091  11.776  0.00  0.00    +0.000 C 
ENDROOT
BRANCH   1   8
ATOM      4  C   UNL     1      47.831   4.586  16.464  0.00  0.00    +0.000 A 
ATOM      5  C   UNL     1      47.238   4.656  15.206  0.00  0.00    +0.000 A 
ATOM      6  C   UNL     1      47.555   5.722  14.361  0.00  0.00    +0.000 A 
ATOM      7  C   UNL     1      48.472   6.680  14.774  0.00  0.00    +0.000 A 
ATOM      8  N   UNL     1      48.859   7.763  13.995  0.00  0.00    +0.000 N 
ATOM      9  N   UNL     1      49.040   6.629  16.001  0.00  0.00    +0.000 NA
ATOM     10  C   UNL     1      48.697   5.603  16.825  0.00  0.00    +0.000 A 
ATOM     11  H   UNL     1      49.591   8.282  14.467  0.00  0.00    +0.000 HD
BRANCH   4  13
ATOM     12  N   UNL     1      48.536   3.205  18.328  0.00  0.00    +0.000 N 
ATOM     13  C   UNL     1      47.555   3.495  17.420  0.00  0.00    +0.000 C 
ATOM     14  O   UNL     1      46.485   2.902  17.427  0.00  0.00    +0.000 OA
ATOM     15  H   UNL     1      48.302   2.528  19.044  0.00  0.00    +0.000 HD
ATOM     16  H   UNL     1      49.302   3.836  18.517  0.00  0.00    +0.000 HD
ENDBRANCH   4  13
ENDBRANCH   1   8
BRANCH   1  17
ATOM     17  C   UNL     1      47.105   7.723  12.177  0.00  0.00    +0.000 A 
ATOM     18  C   UNL     1      46.098   8.698  12.268  0.00  0.00    +0.000 A 
ATOM     19  C   UNL     1      44.812   8.465  11.787  0.00  0.00    +0.000 A 
ATOM     20  C   UNL     1      44.502   7.246  11.191  0.00  0.00    +0.000 A 
ATOM     21  C   UNL     1      45.464   6.232  11.071  0.00  0.00    +0.000 A 
ATOM     22  C   UNL     1      46.747   6.488  11.601  0.00  0.00    +0.000 A 
BRANCH  21  23
ATOM     23  C   UNL     1      45.171   4.967  10.363  0.00  0.00    +0.000 A 
ATOM     24  C   UNL     1      44.104   4.145  10.733  0.00  0.00    +0.000 A 
ATOM     25  N   UNL     1      43.749   2.995  10.109  0.00  0.00    +0.000 NA
ATOM     26  C   UNL     1      44.482   2.635   9.035  0.00  0.00    +0.000 A 
ATOM     27  C   UNL     1      45.558   3.364   8.561  0.00  0.00    +0.000 A 
ATOM     28  C   UNL     1      45.905   4.537   9.249  0.00  0.00    +0.000 A 
BRANCH  27  29
ATOM     29  C   UNL     1      46.310   2.921   7.346  0.00  0.00    +0.000 C 
ATOM     30  F   UNL     1      46.582   1.587   7.326  0.00  0.00    +0.000 F 
ATOM     31  F   UNL     1      45.628   3.177   6.195  0.00  0.00    +0.000 F 
ATOM     32  F   UNL     1      47.510   3.549   7.215  0.00  0.00    +0.000 F 
ENDBRANCH  27  29
ENDBRANCH  21  23
ENDBRANCH   1  17
TORSDOF 5
ENDMDL
MODEL 4
REMARK VINA RESULT:    -7.544      4.728      8.528
REMARK INTER + INTRA:         -10.768
REMARK INTER:                  -9.637
REMARK INTRA:                  -1.131
REMARK UNBOUND:                -1.018
REMARK  Name = 
REMARK  5 active torsions:
REMARK  status: ('A' for Active; 'I' for Inactive)
REMARK    1  A    between atoms: C_2  and  C_4
REMARK    2  A    between atoms: N_8  and  C_9
REMARK    3  A    between atoms: C_9  and  C_10
REMARK    4  A    between atoms: C_14  and  C_15
REMARK    5  A    between atoms: C_19  and  C_20
REMARK                            x       y       z     vdW  Elec       q    Type
REMARK                         _______ _______ _______ _____ _____    ______ ____
ROOT
ATOM      1  C   UNL     1      49.236   7.887  12.615  0.00  0.00    +0.000 C 
ATOM      2  C   UNL     1      50.138   7.875  11.382  0.00  0.00    +0.000 C 
ATOM      3  C   UNL     1      49.926   9.148  12.125  0.00  0.00    +0.000 C 
ENDROOT
BRANCH   1   8
ATOM      4  C   UNL     1      49.061   7.398  17.817  0.00  0.00    +0.000 A 
ATOM      5  C   UNL     1      48.576   8.412  16.995  0.00  0.00    +0.000 A 
ATOM      6  C   UNL     1      48.803   8.341  15.618  0.00  0.00    +0.000 A 
ATOM      7  C   UNL     1      49.485   7.253  15.087  0.00  0.00    +0.000 A 
ATOM      8  N   UNL     1      49.742   7.092  13.732  0.00  0.00    +0.000 N 
ATOM      9  N   UNL     1      49.974   6.273  15.880  0.00  0.00    +0.000 NA
ATOM     10  C   UNL     1      49.773   6.371  17.221  0.00  0.00    +0.000 A 
ATOM     11  H   UNL     1      50.180   6.193  13.570  0.00  0.00    +0.000 HD
BRANCH   4  13
ATOM     12  N   UNL     1      47.579   7.290  19.733  0.00  0.00    +0.000 N 
ATOM     13  C   UNL     1      48.866   7.391  19.280  0.00  0.00    +0.000 C 
ATOM     14  O   UNL     1      49.812   7.434  20.054  0.00  0.00    +0.000 OA
ATOM     15  H   UNL     1      47.460   7.183  20.733  0.00  0.00    +0.000 HD
ATOM     16  H   UNL     1      46.818   6.992  19.140  0.00  0.00    +0.000 HD
ENDBRANCH   4  13
ENDBRANCH   1   8
BRANCH   1  17
ATOM     17  C   UNL     1      47.724   7.835  12.405  0.00  0.00    +0.000 A 
ATOM     18  C   UNL     1      46.970   9.010  12.246  0.00  0.00    +0.000 A 
ATOM     19  C   UNL     1      45.610   8.968  11.943  0.00  0.00    +0.000 A 
ATOM     20  C   UNL     1      44.971   7.741  11.781  0.00  0.00    +0.000 A 
ATOM     21  C   UNL     1      45.671   6.534  11.927  0.00  0.00    +0.000 A 
ATOM     22  C   UNL     1      47.037   6.612  12.269  0.00  0.00    +0.000 A 
BRANCH  21  23
ATOM     23  C   UNL     1      45.023   5.229  11.672  0.00  0.00    +0.000 A 
ATOM     24  C   UNL     1      44.080   4.689  12.551  0.00  0.00    +0.000 A 
ATOM     25  N   UNL     1      43.416   3.522  12.366  0.00  0.00    +0.000 NA
ATOM     26  C   UNL     1      43.683   2.844  11.230  0.00  0.00    +0.000 A 
ATOM     27  C   UNL     1      44.588   3.273  10.275  0.00  0.00    +0.000 A 
ATOM     28  C   UNL     1      45.269   4.476  10.515  0.00  0.00    +0.000 A 
BRANCH  27  29
ATOM     29  C   UNL     1      44.813   2.486   9.023  0.00  0.00    +0.000 C 
ATOM     30  F   UNL     1      44.248   1.247   9.046  0.00  0.00    +0.000 F 
ATOM     31  F   UNL     1      44.303   3.106   7.924  0.00  0.00    +0.000 F 
ATOM     32  F   UNL     1      46.134   2.288   8.760  0.00  0.00    +0.000 F 
ENDBRANCH  27  29
ENDBRANCH  21  23
ENDBRANCH   1  17
TORSDOF 5
ENDMDL
MODEL 5
REMARK VINA RESULT:    -7.459      4.596      8.454
REMARK INTER + INTRA:         -10.658
REMARK INTER:                  -9.484
REMARK INTRA:                  -1.174
REMARK UNBOUND:                -1.018
REMARK  Name = 
REMARK  5 active torsions:
REMARK  status: ('A' for Active; 'I' for Inactive)
REMARK    1  A    between atoms: C_2  and  C_4
REMARK    2  A    between atoms: N_8  and  C_9
REMARK    3  A    between atoms: C_9  and  C_10
REMARK    4  A    between atoms: C_14  and  C_15
REMARK    5  A    between atoms: C_19  and  C_20
REMARK                            x       y       z     vdW  Elec       q    Type
REMARK                         _______ _______ _______ _____ _____    ______ ____
ROOT
ATOM      1  C   UNL     1      49.528   6.977  17.211  0.00  0.00    +0.000 C 
ATOM      2  C   UNL     1      49.191   8.210  18.050  0.00  0.00    +0.000 C 
ATOM      3  C   UNL     1      48.329   6.998  18.143  0.00  0.00    +0.000 C 
ENDROOT
BRANCH   1   8
ATOM      4  C   UNL     1      51.898   2.339  17.653  0.00  0.00    +0.000 A 
ATOM      5  C   UNL     1      50.557   2.644  17.437  0.00  0.00    +0.000 A 
ATOM      6  C   UNL     1      50.156   3.982  17.418  0.00  0.00    +0.000 A 
ATOM      7  C   UNL     1      51.099   4.987  17.588  0.00  0.00    +0.000 A 
ATOM      8  N   UNL     1      50.795   6.341  17.567  0.00  0.00    +0.000 N 
ATOM      9  N   UNL     1      52.401   4.699  17.815  0.00  0.00    +0.000 NA
ATOM     10  C   UNL     1      52.771   3.392  17.864  0.00  0.00    +0.000 A 
ATOM     11  H   UNL     1      51.647   6.887  17.634  0.00  0.00    +0.000 HD
BRANCH   4  13
ATOM     12  N   UNL     1      51.574  -0.001  18.197  0.00  0.00    +0.000 N 
ATOM     13  C   UNL     1      52.410   0.955  17.689  0.00  0.00    +0.000 C 
ATOM     14  O   UNL     1      53.515   0.667  17.249  0.00  0.00    +0.000 OA
ATOM     15  H   UNL     1      51.890  -0.961  18.124  0.00  0.00    +0.000 HD
ATOM     16  H   UNL     1      50.584   0.154  18.317  0.00  0.00    +0.000 HD
ENDBRANCH   4  13
ENDBRANCH   1   8
BRANCH   1  17
ATOM     17  C   UNL     1      49.208   7.011  15.719  0.00  0.00    +0.000 A 
ATOM     18  C   UNL     1      50.025   7.708  14.813  0.00  0.00    +0.000 A 
ATOM     19  C   UNL     1      49.804   7.652  13.439  0.00  0.00    +0.000 A 
ATOM     20  C   UNL     1      48.757   6.885  12.933  0.00  0.00    +0.000 A 
ATOM     21  C   UNL     1      47.906   6.167  13.786  0.00  0.00    +0.000 A 
ATOM     22  C   UNL     1      48.136   6.275  15.174  0.00  0.00    +0.000 A 
BRANCH  21  23
ATOM     23  C   UNL     1      46.847   5.282  13.257  0.00  0.00    +0.000 A 
ATOM     24  C   UNL     1      46.862   3.901  13.474  0.00  0.00    +0.000 A 
ATOM     25  N   UNL     1      45.909   3.033  13.056  0.00  0.00    +0.000 NA
ATOM     26  C   UNL     1      44.857   3.557  12.394  0.00  0.00    +0.000 A 
ATOM     27  C   UNL     1      44.717   4.907  12.121  0.00  0.00    +0.000 A 
ATOM     28  C   UNL     1      45.737   5.769  12.552  0.00  0.00    +0.000 A 
BRANCH  27  29
ATOM     29  C   UNL     1      43.509   5.424  11.407  0.00  0.00    +0.000 C 
ATOM     30  F   UNL     1      43.365   4.931  10.146  0.00  0.00    +0.000 F 
ATOM     31  F   UNL     1      42.353   5.118  12.059  0.00  0.00    +0.000 F 
ATOM     32  F   UNL     1      43.516   6.779  11.279  0.00  0.00    +0.000 F 
ENDBRANCH  27  29
ENDBRANCH  21  23
ENDBRANCH   1  17
TORSDOF 5
ENDMDL
MODEL 6
REMARK VINA RESULT:    -7.426      4.148      8.378
REMARK INTER + INTRA:         -10.615
REMARK INTER:                  -9.658
REMARK INTRA:                  -0.957
REMARK UNBOUND:                -1.018
REMARK  Name = 
REMARK  5 active torsions:
REMARK  status: ('A' for Active; 'I' for Inactive)
REMARK    1  A    between atoms: C_2  and  C_4
REMARK    2  A    between atoms: N_8  and  C_9
REMARK    3  A    between atoms: C_9  and  C_10
REMARK    4  A    between atoms: C_14  and  C_15
REMARK    5  A    between atoms: C_19  and  C_20
REMARK                            x       y       z     vdW  Elec       q    Type
REMARK                         _______ _______ _______ _____ _____    ______ ____
ROOT
ATOM      1  C   UNL     1      48.708   5.129  17.529  0.00  0.00    +0.000 C 
ATOM      2  C   UNL     1      47.641   5.486  18.563  0.00  0.00    +0.000 C 
ATOM      3  C   UNL     1      47.507   4.232  17.771  0.00  0.00    +0.000 C 
ENDROOT
BRANCH   1   8
ATOM      4  C   UNL     1      52.511   1.551  17.753  0.00  0.00    +0.000 A 
ATOM      5  C   UNL     1      51.224   1.459  17.233  0.00  0.00    +0.000 A 
ATOM      6  C   UNL     1      50.362   2.552  17.348  0.00  0.00    +0.000 A 
ATOM      7  C   UNL     1      50.806   3.719  17.956  0.00  0.00    +0.000 A 
ATOM      8  N   UNL     1      50.025   4.859  18.100  0.00  0.00    +0.000 N 
ATOM      9  N   UNL     1      52.050   3.811  18.480  0.00  0.00    +0.000 NA
ATOM     10  C   UNL     1      52.867   2.728  18.388  0.00  0.00    +0.000 A 
ATOM     11  H   UNL     1      50.579   5.607  18.500  0.00  0.00    +0.000 HD
BRANCH   4  13
ATOM     12  N   UNL     1      53.240  -0.656  18.445  0.00  0.00    +0.000 N 
ATOM     13  C   UNL     1      53.488   0.446  17.675  0.00  0.00    +0.000 C 
ATOM     14  O   UNL     1      54.455   0.497  16.927  0.00  0.00    +0.000 OA
ATOM     15  H   UNL     1      53.856  -1.448  18.311  0.00  0.00    +0.000 HD
ATOM     16  H   UNL     1      52.336  -0.835  18.858  0.00  0.00    +0.000 HD
ENDBRANCH   4  13
ENDBRANCH   1   8
BRANCH   1  17
ATOM     17  C   UNL     1      48.711   5.889  16.204  0.00  0.00    +0.000 A 
ATOM     18  C   UNL     1      49.772   6.740  15.854  0.00  0.00    +0.000 A 
ATOM     19  C   UNL     1      49.836   7.348  14.602  0.00  0.00    +0.000 A 
ATOM     20  C   UNL     1      48.838   7.111  13.661  0.00  0.00    +0.000 A 
ATOM     21  C   UNL     1      47.752   6.272  13.952  0.00  0.00    +0.000 A 
ATOM     22  C   UNL     1      47.699   5.700  15.241  0.00  0.00    +0.000 A 
BRANCH  21  23
ATOM     23  C   UNL     1      46.733   5.944  12.932  0.00  0.00    +0.000 A 
ATOM     24  C   UNL     1      46.843   6.385  11.610  0.00  0.00    +0.000 A 
ATOM     25  N   UNL     1      45.973   6.093  10.612  0.00  0.00    +0.000 NA
ATOM     26  C   UNL     1      44.930   5.297  10.929  0.00  0.00    +0.000 A 
ATOM     27  C   UNL     1      44.710   4.788  12.197  0.00  0.00    +0.000 A 
ATOM     28  C   UNL     1      45.623   5.132  13.205  0.00  0.00    +0.000 A 
BRANCH  27  29
ATOM     29  C   UNL     1      43.548   3.887  12.471  0.00  0.00    +0.000 C 
ATOM     30  F   UNL     1      42.885   4.183  13.623  0.00  0.00    +0.000 F 
ATOM     31  F   UNL     1      42.612   3.937  11.482  0.00  0.00    +0.000 F 
ATOM     32  F   UNL     1      43.912   2.580  12.574  0.00  0.00    +0.000 F 
ENDBRANCH  27  29
ENDBRANCH  21  23
ENDBRANCH   1  17
TORSDOF 5
ENDMDL
MODEL 7
REMARK VINA RESULT:    -7.424      4.639      8.666
REMARK INTER + INTRA:         -10.613
REMARK INTER:                  -9.966
REMARK INTRA:                  -0.647
REMARK UNBOUND:                -1.018
REMARK  Name = 
REMARK  5 active torsions:
REMARK  status: ('A' for Active; 'I' for Inactive)
REMARK    1  A    between atoms: C_2  and  C_4
REMARK    2  A    between atoms: N_8  and  C_9
REMARK    3  A    between atoms: C_9  and  C_10
REMARK    4  A    between atoms: C_14  and  C_15
REMARK    5  A    between atoms: C_19  and  C_20
REMARK                            x       y       z     vdW  Elec       q    Type
REMARK                         _______ _______ _______ _____ _____    ______ ____
ROOT
ATOM      1  C   UNL     1      48.159   4.571  17.009  0.00  0.00    +0.000 C 
ATOM      2  C   UNL     1      47.152   4.748  18.144  0.00  0.00    +0.000 C 
ATOM      3  C   UNL     1      47.215   3.452  17.413  0.00  0.00    +0.000 C 
ENDROOT
BRANCH   1   8
ATOM      4  C   UNL     1      52.443   1.645  17.650  0.00  0.00    +0.000 A 
ATOM      5  C   UNL     1      51.134   1.268  17.364  0.00  0.00    +0.000 A 
ATOM      6  C   UNL     1      50.140   2.247  17.300  0.00  0.00    +0.000 A 
ATOM      7  C   UNL     1      50.473   3.581  17.497  0.00  0.00    +0.000 A 
ATOM      8  N   UNL     1      49.555   4.622  17.437  0.00  0.00    +0.000 N 
ATOM      9  N   UNL     1      51.739   3.955  17.792  0.00  0.00    +0.000 NA
ATOM     10  C   UNL     1      52.690   2.987  17.882  0.00  0.00    +0.000 A 
ATOM     11  H   UNL     1      50.035   5.509  17.534  0.00  0.00    +0.000 HD
BRANCH   4  13
ATOM     12  N   UNL     1      53.311  -0.489  18.404  0.00  0.00    +0.000 N 
ATOM     13  C   UNL     1      53.556   0.678  17.735  0.00  0.00    +0.000 C 
ATOM     14  O   UNL     1      54.635   0.893  17.200  0.00  0.00    +0.000 OA
ATOM     15  H   UNL     1      54.043  -1.189  18.372  0.00  0.00    +0.000 HD
ATOM     16  H   UNL     1      52.377  -0.803  18.620  0.00  0.00    +0.000 HD
ENDBRANCH   4  13
ENDBRANCH   1   8
BRANCH   1  17
ATOM     17  C   UNL     1      47.859   5.238  15.668  0.00  0.00    +0.000 A 
ATOM     18  C   UNL     1      48.655   6.289  15.182  0.00  0.00    +0.000 A 
ATOM     19  C   UNL     1      48.457   6.827  13.913  0.00  0.00    +0.000 A 
ATOM     20  C   UNL     1      47.457   6.318  13.089  0.00  0.00    +0.000 A 
ATOM     21  C   UNL     1      46.629   5.269  13.518  0.00  0.00    +0.000 A 
ATOM     22  C   UNL     1      46.833   4.772  14.822  0.00  0.00    +0.000 A 
BRANCH  21  23
ATOM     23  C   UNL     1      45.622   4.663  12.621  0.00  0.00    +0.000 A 
ATOM     24  C   UNL     1      44.389   4.208  13.096  0.00  0.00    +0.000 A 
ATOM     25  N   UNL     1      43.402   3.680  12.331  0.00  0.00    +0.000 NA
ATOM     26  C   UNL     1      43.633   3.608  11.004  0.00  0.00    +0.000 A 
ATOM     27  C   UNL     1      44.807   4.031  10.406  0.00  0.00    +0.000 A 
ATOM     28  C   UNL     1      45.812   4.552  11.236  0.00  0.00    +0.000 A 
BRANCH  27  29
ATOM     29  C   UNL     1      44.985   3.950   8.923  0.00  0.00    +0.000 C 
ATOM     30  F   UNL     1      46.000   4.725   8.449  0.00  0.00    +0.000 F 
ATOM     31  F   UNL     1      45.260   2.683   8.505  0.00  0.00    +0.000 F 
ATOM     32  F   UNL     1      43.872   4.334   8.240  0.00  0.00    +0.000 F 
ENDBRANCH  27  29
ENDBRANCH  21  23
ENDBRANCH   1  17
TORSDOF 5
ENDMDL
MODEL 8
REMARK VINA RESULT:    -7.066      4.911      7.565
REMARK INTER + INTRA:         -10.150
REMARK INTER:                  -9.010
REMARK INTRA:                  -1.139
REMARK UNBOUND:                -1.018
REMARK  Name = 
REMARK  5 active torsions:
REMARK  status: ('A' for Active; 'I' for Inactive)
REMARK    1  A    between atoms: C_2  and  C_4
REMARK    2  A    between atoms: N_8  and  C_9
REMARK    3  A    between atoms: C_9  and  C_10
REMARK    4  A    between atoms: C_14  and  C_15
REMARK    5  A    between atoms: C_19  and  C_20
REMARK                            x       y       z     vdW  Elec       q    Type
REMARK                         _______ _______ _______ _____ _____    ______ ____
ROOT
ATOM      1  C   UNL     1      48.289   8.431  13.645  0.00  0.00    +0.000 C 
ATOM      2  C   UNL     1      48.254   8.511  15.171  0.00  0.00    +0.000 C 
ATOM      3  C   UNL     1      48.653   7.237  14.510  0.00  0.00    +0.000 C 
ENDROOT
BRANCH   1   8
ATOM      4  C   UNL     1      52.109   8.505  10.078  0.00  0.00    +0.000 A 
ATOM      5  C   UNL     1      51.391   7.433  10.600  0.00  0.00    +0.000 A 
ATOM      6  C   UNL     1      50.447   7.669  11.603  0.00  0.00    +0.000 A 
ATOM      7  C   UNL     1      50.221   8.965  12.046  0.00  0.00    +0.000 A 
ATOM      8  N   UNL     1      49.293   9.294  13.026  0.00  0.00    +0.000 N 
ATOM      9  N   UNL     1      50.926  10.010  11.556  0.00  0.00    +0.000 NA
ATOM     10  C   UNL     1      51.864   9.762  10.603  0.00  0.00    +0.000 A 
ATOM     11  H   UNL     1      49.245  10.301  13.130  0.00  0.00    +0.000 HD
BRANCH   4  13
ATOM     12  N   UNL     1      52.770   7.601   7.928  0.00  0.00    +0.000 N 
ATOM     13  C   UNL     1      53.123   8.349   9.016  0.00  0.00    +0.000 C 
ATOM     14  O   UNL     1      54.216   8.895   9.087  0.00  0.00    +0.000 OA
ATOM     15  H   UNL     1      53.430   7.582   7.160  0.00  0.00    +0.000 HD
ATOM     16  H   UNL     1      51.810   7.367   7.721  0.00  0.00    +0.000 HD
ENDBRANCH   4  13
ENDBRANCH   1   8
BRANCH   1  17
ATOM     17  C   UNL     1      46.961   8.328  12.898  0.00  0.00    +0.000 A 
ATOM     18  C   UNL     1      46.192   9.469  12.618  0.00  0.00    +0.000 A 
ATOM     19  C   UNL     1      45.037   9.398  11.841  0.00  0.00    +0.000 A 
ATOM     20  C   UNL     1      44.627   8.175  11.315  0.00  0.00    +0.000 A 
ATOM     21  C   UNL     1      45.353   7.000  11.560  0.00  0.00    +0.000 A 
ATOM     22  C   UNL     1      46.497   7.102  12.380  0.00  0.00    +0.000 A 
BRANCH  21  23
ATOM     23  C   UNL     1      44.976   5.714  10.936  0.00  0.00    +0.000 A 
ATOM     24  C   UNL     1      43.898   4.956  11.401  0.00  0.00    +0.000 A 
ATOM     25  N   UNL     1      43.468   3.791  10.858  0.00  0.00    +0.000 NA
ATOM     26  C   UNL     1      44.131   3.346   9.770  0.00  0.00    +0.000 A 
ATOM     27  C   UNL     1      45.209   4.006   9.205  0.00  0.00    +0.000 A 
ATOM     28  C   UNL     1      45.635   5.197   9.811  0.00  0.00    +0.000 A 
BRANCH  27  29
ATOM     29  C   UNL     1      45.879   3.471   7.980  0.00  0.00    +0.000 C 
ATOM     30  F   UNL     1      46.434   2.239   8.152  0.00  0.00    +0.000 F 
ATOM     31  F   UNL     1      45.017   3.345   6.933  0.00  0.00    +0.000 F 
ATOM     32  F   UNL     1      46.885   4.275   7.540  0.00  0.00    +0.000 F 
ENDBRANCH  27  29
ENDBRANCH  21  23
ENDBRANCH   1  17
TORSDOF 5
ENDMDL
MODEL 9
REMARK VINA RESULT:    -7.034      3.427      5.048
REMARK INTER + INTRA:         -10.108
REMARK INTER:                  -8.900
REMARK INTRA:                  -1.208
REMARK UNBOUND:                -1.018
REMARK  Name = 
REMARK  5 active torsions:
REMARK  status: ('A' for Active; 'I' for Inactive)
REMARK    1  A    between atoms: C_2  and  C_4
REMARK    2  A    between atoms: N_8  and  C_9
REMARK    3  A    between atoms: C_9  and  C_10
REMARK    4  A    between atoms: C_14  and  C_15
REMARK    5  A    between atoms: C_19  and  C_20
REMARK                            x       y       z     vdW  Elec       q    Type
REMARK                         _______ _______ _______ _____ _____    ______ ____
ROOT
ATOM      1  C   UNL     1      48.691   8.661  12.486  0.00  0.00    +0.000 C 
ATOM      2  C   UNL     1      49.569   9.499  11.557  0.00  0.00    +0.000 C 
ATOM      3  C   UNL     1      49.867   8.052  11.743  0.00  0.00    +0.000 C 
ENDROOT
BRANCH   1   8
ATOM      4  C   UNL     1      44.657   5.339  12.358  0.00  0.00    +0.000 A 
ATOM      5  C   UNL     1      45.981   5.128  12.734  0.00  0.00    +0.000 A 
ATOM      6  C   UNL     1      46.897   6.177  12.622  0.00  0.00    +0.000 A 
ATOM      7  C   UNL     1      46.473   7.416  12.162  0.00  0.00    +0.000 A 
ATOM      8  N   UNL     1      47.309   8.518  12.033  0.00  0.00    +0.000 N 
ATOM      9  N   UNL     1      45.193   7.625  11.778  0.00  0.00    +0.000 NA
ATOM     10  C   UNL     1      44.320   6.587  11.863  0.00  0.00    +0.000 A 
ATOM     11  H   UNL     1      46.769   9.329  11.755  0.00  0.00    +0.000 HD
BRANCH   4  13
ATOM     12  N   UNL     1      42.623   4.327  11.513  0.00  0.00    +0.000 N 
ATOM     13  C   UNL     1      43.622   4.290  12.445  0.00  0.00    +0.000 C 
ATOM     14  O   UNL     1      43.675   3.404  13.288  0.00  0.00    +0.000 OA
ATOM     15  H   UNL     1      41.975   3.549  11.514  0.00  0.00    +0.000 HD
ATOM     16  H   UNL     1      42.694   4.871  10.664  0.00  0.00    +0.000 HD
ENDBRANCH   4  13
ENDBRANCH   1   8
BRANCH   1  17
ATOM     17  C   UNL     1      48.873   8.826  13.993  0.00  0.00    +0.000 A 
ATOM     18  C   UNL     1      48.881  10.097  14.592  0.00  0.00    +0.000 A 
ATOM     19  C   UNL     1      48.935  10.251  15.976  0.00  0.00    +0.000 A 
ATOM     20  C   UNL     1      48.974   9.129  16.799  0.00  0.00    +0.000 A 
ATOM     21  C   UNL     1      48.969   7.834  16.261  0.00  0.00    +0.000 A 
ATOM     22  C   UNL     1      48.950   7.714  14.856  0.00  0.00    +0.000 A 
BRANCH  21  23
ATOM     23  C   UNL     1      48.922   6.636  17.128  0.00  0.00    +0.000 A 
ATOM     24  C   UNL     1      49.150   6.712  18.505  0.00  0.00    +0.000 A 
ATOM     25  N   UNL     1      49.085   5.668  19.367  0.00  0.00    +0.000 NA
ATOM     26  C   UNL     1      48.756   4.468  18.846  0.00  0.00    +0.000 A 
ATOM     27  C   UNL     1      48.498   4.260  17.502  0.00  0.00    +0.000 A 
ATOM     28  C   UNL     1      48.597   5.362  16.640  0.00  0.00    +0.000 A 
BRANCH  27  29
ATOM     29  C   UNL     1      48.110   2.907  16.997  0.00  0.00    +0.000 C 
ATOM     30  F   UNL     1      47.108   2.322  17.710  0.00  0.00    +0.000 F 
ATOM     31  F   UNL     1      47.674   2.943  15.707  0.00  0.00    +0.000 F 
ATOM     32  F   UNL     1      49.145   2.024  17.015  0.00  0.00    +0.000 F 
ENDBRANCH  27  29
ENDBRANCH  21  23
ENDBRANCH   1  17
TORSDOF 5
ENDMDL
