MODEL 1
REMARK VINA RESULT:    -8.506      0.000      0.000
REMARK INTER + INTRA:          -9.974
REMARK INTER:                  -9.998
REMARK INTRA:                   0.024
REMARK UNBOUND:                 0.024
REMARK  Name = 
REMARK  3 active torsions:
REMARK  status: ('A' for Active; 'I' for Inactive)
REMARK    1  A    between atoms: C_2  and  C_4
REMARK    2  A    between atoms: N_8  and  C_9
REMARK    3  A    between atoms: C_9  and  C_10
REMARK                            x       y       z     vdW  Elec       q    Type
REMARK                         _______ _______ _______ _____ _____    ______ ____
ROOT
ATOM      1  C   UNL     1      46.440   2.739   7.505  0.00  0.00    +0.000 A 
ATOM      2  C   UNL     1      46.134   4.065   7.784  0.00  0.00    +0.000 A 
ATOM      3  C   UNL     1      45.329   4.357   8.882  0.00  0.00    +0.000 A 
ATOM      4  C   UNL     1      44.835   3.332   9.686  0.00  0.00    +0.000 A 
ATOM      5  N   UNL     1      44.014   3.567  10.793  0.00  0.00    +0.000 N 
ATOM      6  N   UNL     1      45.113   2.039   9.412  0.00  0.00    +0.000 NA
ATOM      7  C   UNL     1      45.894   1.769   8.330  0.00  0.00    +0.000 A 
ATOM      8  H   UNL     1      43.850   2.689  11.275  0.00  0.00    +0.000 HD
ENDROOT
BRANCH   1  10
ATOM      9  N   UNL     1      47.297   3.156   5.273  0.00  0.00    +0.000 N 
ATOM     10  C   UNL     1      47.290   2.336   6.369  0.00  0.00    +0.000 C 
ATOM     11  O   UNL     1      47.987   1.332   6.414  0.00  0.00    +0.000 OA
ATOM     12  H   UNL     1      47.954   2.922   4.539  0.00  0.00    +0.000 HD
ATOM     13  H   UNL     1      46.935   4.098   5.292  0.00  0.00    +0.000 HD
ENDBRANCH   1  10
BRANCH   5  14
ATOM     14  C   UNL     1      43.939   4.841  11.523  0.00  0.00    +0.000 C 
ATOM     15  C   UNL     1      42.655   5.219  12.244  0.00  0.00    +0.000 C 
ATOM     16  C   UNL     1      43.004   5.914  10.971  0.00  0.00    +0.000 C 
BRANCH  14  17
ATOM     17  C   UNL     1      45.275   5.351  12.070  0.00  0.00    +0.000 A 
ATOM     18  C   UNL     1      45.890   4.737  13.178  0.00  0.00    +0.000 A 
ATOM     19  C   UNL     1      47.149   5.144  13.631  0.00  0.00    +0.000 A 
ATOM     20  C   UNL     1      47.800   6.190  12.993  0.00  0.00    +0.000 A 
ATOM     21  F   UNL     1      49.017   6.567  13.408  0.00  0.00    +0.000 F 
ATOM     22  C   UNL     1      47.214   6.842  11.921  0.00  0.00    +0.000 A 
ATOM     23  C   UNL     1      45.966   6.419  11.463  0.00  0.00    +0.000 A 
ENDBRANCH  14  17
ENDBRANCH   5  14
TORSDOF 3
ENDMDL
MODEL 2
REMARK VINA RESULT:    -7.756      3.873      6.502
REMARK INTER + INTRA:          -9.092
REMARK INTER:                  -8.697
REMARK INTRA:                  -0.396
REMARK UNBOUND:                 0.024
REMARK  Name = 
REMARK  3 active torsions:
REMARK  status: ('A' for Active; 'I' for Inactive)
REMARK    1  A    between atoms: C_2  and  C_4
REMARK    2  A    between atoms: N_8  and  C_9
REMARK    3  A    between atoms: C_9  and  C_10
REMARK                            x       y       z     vdW  Elec       q    Type
REMARK                         _______ _______ _______ _____ _____    ______ ____
ROOT
ATOM      1  C   UNL     1      47.902   5.877  14.855  0.00  0.00    +0.000 A 
ATOM      2  C   UNL     1      47.616   6.310  13.566  0.00  0.00    +0.000 A 
ATOM      3  C   UNL     1      46.711   5.585  12.794  0.00  0.00    +0.000 A 
ATOM      4  C   UNL     1      46.106   4.441  13.308  0.00  0.00    +0.000 A 
ATOM      5  N   UNL     1      45.201   3.669  12.573  0.00  0.00    +0.000 N 
ATOM      6  N   UNL     1      46.392   4.002  14.553  0.00  0.00    +0.000 NA
ATOM      7  C   UNL     1      47.284   4.716  15.292  0.00  0.00    +0.000 A 
ATOM      8  H   UNL     1      44.824   2.942  13.172  0.00  0.00    +0.000 HD
ENDROOT
BRANCH   1  10
ATOM      9  N   UNL     1      48.323   7.572  16.541  0.00  0.00    +0.000 N 
ATOM     10  C   UNL     1      48.840   6.584  15.746  0.00  0.00    +0.000 C 
ATOM     11  O   UNL     1      50.024   6.281  15.802  0.00  0.00    +0.000 OA
ATOM     12  H   UNL     1      48.955   7.984  17.216  0.00  0.00    +0.000 HD
ATOM     13  H   UNL     1      47.332   7.682  16.700  0.00  0.00    +0.000 HD
ENDBRANCH   1  10
BRANCH   5  14
ATOM     14  C   UNL     1      44.427   4.158  11.422  0.00  0.00    +0.000 C 
ATOM     15  C   UNL     1      43.662   5.467  11.532  0.00  0.00    +0.000 C 
ATOM     16  C   UNL     1      42.907   4.181  11.555  0.00  0.00    +0.000 C 
BRANCH  14  17
ATOM     17  C   UNL     1      44.961   3.724  10.054  0.00  0.00    +0.000 A 
ATOM     18  C   UNL     1      45.458   4.667   9.133  0.00  0.00    +0.000 A 
ATOM     19  C   UNL     1      46.023   4.270   7.917  0.00  0.00    +0.000 A 
ATOM     20  C   UNL     1      46.076   2.921   7.595  0.00  0.00    +0.000 A 
ATOM     21  F   UNL     1      46.639   2.535   6.442  0.00  0.00    +0.000 F 
ATOM     22  C   UNL     1      45.567   1.965   8.458  0.00  0.00    +0.000 A 
ATOM     23  C   UNL     1      45.022   2.366   9.678  0.00  0.00    +0.000 A 
ENDBRANCH  14  17
ENDBRANCH   5  14
TORSDOF 3
ENDMDL
MODEL 3
REMARK VINA RESULT:    -7.258      3.836      6.407
REMARK INTER + INTRA:          -8.507
REMARK INTER:                  -8.209
REMARK INTRA:                  -0.298
REMARK UNBOUND:                 0.024
REMARK  Name = 
REMARK  3 active torsions:
REMARK  status: ('A' for Active; 'I' for Inactive)
REMARK    1  A    between atoms: C_2  and  C_4
REMARK    2  A    between atoms: N_8  and  C_9
REMARK    3  A    between atoms: C_9  and  C_10
REMARK                            x       y       z     vdW  Elec       q    Type
REMARK                         _______ _______ _______ _____ _____    ______ ____
ROOT
ATOM      1  C   UNL     1      47.153   7.569  13.221  0.00  0.00    +0.000 A 
ATOM      2  C   UNL     1      46.583   7.476  11.957  0.00  0.00    +0.000 A 
ATOM      3  C   UNL     1      46.062   6.254  11.539  0.00  0.00    +0.000 A 
ATOM      4  C   UNL     1      46.116   5.142  12.375  0.00  0.00    +0.000 A 
ATOM      5  N   UNL     1      45.619   3.889  12.001  0.00  0.00    +0.000 N 
ATOM      6  N   UNL     1      46.684   5.218  13.598  0.00  0.00    +0.000 NA
ATOM      7  C   UNL     1      47.196   6.417  13.990  0.00  0.00    +0.000 A 
ATOM      8  H   UNL     1      45.685   3.258  12.793  0.00  0.00    +0.000 HD
ENDROOT
BRANCH   1  10
ATOM      9  N   UNL     1      47.553   9.068  15.087  0.00  0.00    +0.000 N 
ATOM     10  C   UNL     1      47.722   8.822  13.752  0.00  0.00    +0.000 C 
ATOM     11  O   UNL     1      48.350   9.593  13.039  0.00  0.00    +0.000 OA
ATOM     12  H   UNL     1      48.029   9.881  15.459  0.00  0.00    +0.000 HD
ATOM     13  H   UNL     1      47.262   8.357  15.742  0.00  0.00    +0.000 HD
ENDBRANCH   1  10
BRANCH   5  14
ATOM     14  C   UNL     1      44.608   3.669  10.957  0.00  0.00    +0.000 C 
ATOM     15  C   UNL     1      43.267   4.379  11.048  0.00  0.00    +0.000 C 
ATOM     16  C   UNL     1      43.338   2.921  11.355  0.00  0.00    +0.000 C 
BRANCH  14  17
ATOM     17  C   UNL     1      45.170   3.321   9.576  0.00  0.00    +0.000 A 
ATOM     18  C   UNL     1      45.492   4.329   8.646  0.00  0.00    +0.000 A 
ATOM     19  C   UNL     1      46.084   4.023   7.416  0.00  0.00    +0.000 A 
ATOM     20  C   UNL     1      46.339   2.699   7.090  0.00  0.00    +0.000 A 
ATOM     21  F   UNL     1      46.927   2.403   5.923  0.00  0.00    +0.000 F 
ATOM     22  C   UNL     1      46.005   1.676   7.963  0.00  0.00    +0.000 A 
ATOM     23  C   UNL     1      45.433   1.989   9.196  0.00  0.00    +0.000 A 
ENDBRANCH  14  17
ENDBRANCH   5  14
TORSDOF 3
ENDMDL
MODEL 4
REMARK VINA RESULT:    -6.591      4.070      6.382
REMARK INTER + INTRA:          -7.723
REMARK INTER:                  -7.512
REMARK INTRA:                  -0.211
REMARK UNBOUND:                 0.024
REMARK  Name = 
REMARK  3 active torsions:
REMARK  status: ('A' for Active; 'I' for Inactive)
REMARK    1  A    between atoms: C_2  and  C_4
REMARK    2  A    between atoms: N_8  and  C_9
REMARK    3  A    between atoms: C_9  and  C_10
REMARK                            x       y       z     vdW  Elec       q    Type
REMARK                         _______ _______ _______ _____ _____    ______ ____
ROOT
ATOM      1  C   UNL     1      48.832   7.542  13.616  0.00  0.00    +0.000 A 
ATOM      2  C   UNL     1      48.046   7.577  12.471  0.00  0.00    +0.000 A 
ATOM      3  C   UNL     1      47.081   6.591  12.283  0.00  0.00    +0.000 A 
ATOM      4  C   UNL     1      46.909   5.583  13.229  0.00  0.00    +0.000 A 
ATOM      5  N   UNL     1      45.964   4.563  13.085  0.00  0.00    +0.000 N 
ATOM      6  N   UNL     1      47.681   5.530  14.336  0.00  0.00    +0.000 NA
ATOM      7  C   UNL     1      48.626   6.496  14.502  0.00  0.00    +0.000 A 
ATOM      8  H   UNL     1      45.957   3.998  13.928  0.00  0.00    +0.000 HD
ENDROOT
BRANCH   1  10
ATOM      9  N   UNL     1      49.464   9.843  14.058  0.00  0.00    +0.000 N 
ATOM     10  C   UNL     1      49.873   8.546  13.903  0.00  0.00    +0.000 C 
ATOM     11  O   UNL     1      51.048   8.233  14.033  0.00  0.00    +0.000 OA
ATOM     12  H   UNL     1      50.171  10.507  14.348  0.00  0.00    +0.000 HD
ATOM     13  H   UNL     1      48.497  10.098  14.200  0.00  0.00    +0.000 HD
ENDBRANCH   1  10
BRANCH   5  14
ATOM     14  C   UNL     1      44.767   4.646  12.236  0.00  0.00    +0.000 C 
ATOM     15  C   UNL     1      43.709   5.698  12.531  0.00  0.00    +0.000 C 
ATOM     16  C   UNL     1      43.429   4.273  12.869  0.00  0.00    +0.000 C 
BRANCH  14  17
ATOM     17  C   UNL     1      44.965   4.178  10.792  0.00  0.00    +0.000 A 
ATOM     18  C   UNL     1      45.441   5.057   9.800  0.00  0.00    +0.000 A 
ATOM     19  C   UNL     1      45.704   4.615   8.499  0.00  0.00    +0.000 A 
ATOM     20  C   UNL     1      45.468   3.289   8.167  0.00  0.00    +0.000 A 
ATOM     21  F   UNL     1      45.741   2.856   6.929  0.00  0.00    +0.000 F 
ATOM     22  C   UNL     1      44.967   2.401   9.104  0.00  0.00    +0.000 A 
ATOM     23  C   UNL     1      44.725   2.844  10.405  0.00  0.00    +0.000 A 
ENDBRANCH  14  17
ENDBRANCH   5  14
TORSDOF 3
ENDMDL
MODEL 5
REMARK VINA RESULT:    -6.390      2.287      2.889
REMARK INTER + INTRA:          -7.487
REMARK INTER:                  -6.937
REMARK INTRA:                  -0.550
REMARK UNBOUND:                 0.024
REMARK  Name = 
REMARK  3 active torsions:
REMARK  status: ('A' for Active; 'I' for Inactive)
REMARK    1  A    between atoms: C_2  and  C_4
REMARK    2  A    between atoms: N_8  and  C_9
REMARK    3  A    between atoms: C_9  and  C_10
REMARK                            x       y       z     vdW  Elec       q    Type
REMARK                         _______ _______ _______ _____ _____    ______ ____
ROOT
ATOM      1  C   UNL     1      46.269   3.653   7.398  0.00  0.00    +0.000 A 
ATOM      2  C   UNL     1      46.723   4.621   8.286  0.00  0.00    +0.000 A 
ATOM      3  C   UNL     1      45.875   5.061   9.299  0.00  0.00    +0.000 A 
ATOM      4  C   UNL     1      44.589   4.539   9.417  0.00  0.00    +0.000 A 
ATOM      5  N   UNL     1      43.693   4.954  10.408  0.00  0.00    +0.000 N 
ATOM      6  N   UNL     1      44.133   3.612   8.549  0.00  0.00    +0.000 NA
ATOM      7  C   UNL     1      44.969   3.197   7.558  0.00  0.00    +0.000 A 
ATOM      8  H   UNL     1      42.857   4.381  10.357  0.00  0.00    +0.000 HD
ENDROOT
BRANCH   1  10
ATOM      9  N   UNL     1      48.391   2.789   6.599  0.00  0.00    +0.000 N 
ATOM     10  C   UNL     1      47.097   3.122   6.300  0.00  0.00    +0.000 C 
ATOM     11  O   UNL     1      46.642   2.952   5.177  0.00  0.00    +0.000 OA
ATOM     12  H   UNL     1      48.921   2.337   5.864  0.00  0.00    +0.000 HD
ATOM     13  H   UNL     1      48.724   2.685   7.546  0.00  0.00    +0.000 HD
ENDBRANCH   1  10
BRANCH   5  14
ATOM     14  C   UNL     1      44.083   5.589  11.675  0.00  0.00    +0.000 C 
ATOM     15  C   UNL     1      44.751   4.757  12.758  0.00  0.00    +0.000 C 
ATOM     16  C   UNL     1      43.328   5.169  12.934  0.00  0.00    +0.000 C 
BRANCH  14  17
ATOM     17  C   UNL     1      44.415   7.080  11.574  0.00  0.00    +0.000 A 
ATOM     18  C   UNL     1      43.544   7.979  10.929  0.00  0.00    +0.000 A 
ATOM     19  C   UNL     1      43.800   9.353  10.907  0.00  0.00    +0.000 A 
ATOM     20  C   UNL     1      44.949   9.845  11.510  0.00  0.00    +0.000 A 
ATOM     21  F   UNL     1      45.186  11.163  11.512  0.00  0.00    +0.000 F 
ATOM     22  C   UNL     1      45.848   8.990  12.125  0.00  0.00    +0.000 A 
ATOM     23  C   UNL     1      45.577   7.622  12.160  0.00  0.00    +0.000 A 
ENDBRANCH  14  17
ENDBRANCH   5  14
TORSDOF 3
ENDMDL
MODEL 6
REMARK VINA RESULT:    -6.375      4.725      7.145
REMARK INTER + INTRA:          -7.469
REMARK INTER:                  -7.109
REMARK INTRA:                  -0.361
REMARK UNBOUND:                 0.024
REMARK  Name = 
REMARK  3 active torsions:
REMARK  status: ('A' for Active; 'I' for Inactive)
REMARK    1  A    between atoms: C_2  and  C_4
REMARK    2  A    between atoms: N_8  and  C_9
REMARK    3  A    between atoms: C_9  and  C_10
REMARK                            x       y       z     vdW  Elec       q    Type
REMARK                         _______ _______ _______ _____ _____    ______ ____
ROOT
ATOM      1  C   UNL     1      48.276   3.873  17.457  0.00  0.00    +0.000 A 
ATOM      2  C   UNL     1      47.654   4.990  16.911  0.00  0.00    +0.000 A 
ATOM      3  C   UNL     1      47.166   4.923  15.609  0.00  0.00    +0.000 A 
ATOM      4  C   UNL     1      47.303   3.754  14.864  0.00  0.00    +0.000 A 
ATOM      5  N   UNL     1      46.842   3.637  13.549  0.00  0.00    +0.000 N 
ATOM      6  N   UNL     1      47.921   2.670  15.380  0.00  0.00    +0.000 NA
ATOM      7  C   UNL     1      48.401   2.752  16.651  0.00  0.00    +0.000 A 
ATOM      8  H   UNL     1      46.969   2.679  13.240  0.00  0.00    +0.000 HD
ENDROOT
BRANCH   1  10
ATOM      9  N   UNL     1      48.261   2.954  19.703  0.00  0.00    +0.000 N 
ATOM     10  C   UNL     1      48.816   3.848  18.829  0.00  0.00    +0.000 C 
ATOM     11  O   UNL     1      49.745   4.570  19.165  0.00  0.00    +0.000 OA
ATOM     12  H   UNL     1      48.702   2.878  20.611  0.00  0.00    +0.000 HD
ATOM     13  H   UNL     1      47.674   2.188  19.404  0.00  0.00    +0.000 HD
ENDBRANCH   1  10
BRANCH   5  14
ATOM     14  C   UNL     1      45.795   4.478  12.952  0.00  0.00    +0.000 C 
ATOM     15  C   UNL     1      44.332   4.144  13.195  0.00  0.00    +0.000 C 
ATOM     16  C   UNL     1      44.929   3.856  11.860  0.00  0.00    +0.000 C 
BRANCH  14  17
ATOM     17  C   UNL     1      46.193   5.939  12.723  0.00  0.00    +0.000 A 
ATOM     18  C   UNL     1      47.491   6.281  12.298  0.00  0.00    +0.000 A 
ATOM     19  C   UNL     1      47.837   7.605  12.006  0.00  0.00    +0.000 A 
ATOM     20  C   UNL     1      46.892   8.609  12.160  0.00  0.00    +0.000 A 
ATOM     21  F   UNL     1      47.212   9.874  11.859  0.00  0.00    +0.000 F 
ATOM     22  C   UNL     1      45.615   8.317  12.609  0.00  0.00    +0.000 A 
ATOM     23  C   UNL     1      45.270   6.993  12.880  0.00  0.00    +0.000 A 
ENDBRANCH  14  17
ENDBRANCH   5  14
TORSDOF 3
ENDMDL
MODEL 7
REMARK VINA RESULT:    -6.006      3.599      5.515
REMARK INTER + INTRA:          -7.035
REMARK INTER:                  -6.526
REMARK INTRA:                  -0.509
REMARK UNBOUND:                 0.024
REMARK  Name = 
REMARK  3 active torsions:
REMARK  status: ('A' for Active; 'I' for Inactive)
REMARK    1  A    between atoms: C_2  and  C_4
REMARK    2  A    between atoms: N_8  and  C_9
REMARK    3  A    between atoms: C_9  and  C_10
REMARK                            x       y       z     vdW  Elec       q    Type
REMARK                         _______ _______ _______ _____ _____    ______ ____
ROOT
ATOM      1  C   UNL     1      44.755   5.208  11.009  0.00  0.00    +0.000 A 
ATOM      2  C   UNL     1      46.070   5.588  10.768  0.00  0.00    +0.000 A 
ATOM      3  C   UNL     1      46.659   6.545  11.589  0.00  0.00    +0.000 A 
ATOM      4  C   UNL     1      45.938   7.115  12.636  0.00  0.00    +0.000 A 
ATOM      5  N   UNL     1      46.477   8.088  13.484  0.00  0.00    +0.000 N 
ATOM      6  N   UNL     1      44.654   6.766  12.867  0.00  0.00    +0.000 NA
ATOM      7  C   UNL     1      44.088   5.835  12.050  0.00  0.00    +0.000 A 
ATOM      8  H   UNL     1      45.808   8.291  14.219  0.00  0.00    +0.000 HD
ENDROOT
BRANCH   1  10
ATOM      9  N   UNL     1      44.131   4.327   8.835  0.00  0.00    +0.000 N 
ATOM     10  C   UNL     1      44.051   4.199  10.196  0.00  0.00    +0.000 C 
ATOM     11  O   UNL     1      43.451   3.265  10.710  0.00  0.00    +0.000 OA
ATOM     12  H   UNL     1      43.726   3.577   8.288  0.00  0.00    +0.000 HD
ATOM     13  H   UNL     1      44.804   4.927   8.381  0.00  0.00    +0.000 HD
ENDBRANCH   1  10
BRANCH   5  14
ATOM     14  C   UNL     1      47.914   8.299  13.707  0.00  0.00    +0.000 C 
ATOM     15  C   UNL     1      48.733   7.221  14.398  0.00  0.00    +0.000 C 
ATOM     16  C   UNL     1      48.386   8.461  15.150  0.00  0.00    +0.000 C 
BRANCH  14  17
ATOM     17  C   UNL     1      48.599   9.211  12.685  0.00  0.00    +0.000 A 
ATOM     18  C   UNL     1      49.959   9.044  12.357  0.00  0.00    +0.000 A 
ATOM     19  C   UNL     1      50.569   9.818  11.365  0.00  0.00    +0.000 A 
ATOM     20  C   UNL     1      49.830  10.789  10.703  0.00  0.00    +0.000 A 
ATOM     21  F   UNL     1      50.404  11.516   9.736  0.00  0.00    +0.000 F 
ATOM     22  C   UNL     1      48.500  11.007  11.022  0.00  0.00    +0.000 A 
ATOM     23  C   UNL     1      47.892  10.219  11.999  0.00  0.00    +0.000 A 
ENDBRANCH  14  17
ENDBRANCH   5  14
TORSDOF 3
ENDMDL
MODEL 8
REMARK VINA RESULT:    -5.600      3.215      4.569
REMARK INTER + INTRA:          -6.558
REMARK INTER:                  -6.891
REMARK INTRA:                   0.333
REMARK UNBOUND:                 0.024
REMARK  Name = 
REMARK  3 active torsions:
REMARK  status: ('A' for Active; 'I' for Inactive)
REMARK    1  A    between atoms: C_2  and  C_4
REMARK    2  A    between atoms: N_8  and  C_9
REMARK    3  A    between atoms: C_9  and  C_10
REMARK                            x       y       z     vdW  Elec       q    Type
REMARK                         _______ _______ _______ _____ _____    ______ ____
ROOT
ATOM      1  C   UNL     1      44.105   4.032  11.467  0.00  0.00    +0.000 A 
ATOM      2  C   UNL     1      44.376   5.047  10.557  0.00  0.00    +0.000 A 
ATOM      3  C   UNL     1      44.675   6.321  11.033  0.00  0.00    +0.000 A 
ATOM      4  C   UNL     1      44.698   6.573  12.403  0.00  0.00    +0.000 A 
ATOM      5  N   UNL     1      44.981   7.835  12.935  0.00  0.00    +0.000 N 
ATOM      6  N   UNL     1      44.419   5.598  13.294  0.00  0.00    +0.000 NA
ATOM      7  C   UNL     1      44.119   4.360  12.814  0.00  0.00    +0.000 A 
ATOM      8  H   UNL     1      45.029   7.763  13.946  0.00  0.00    +0.000 HD
ENDROOT
BRANCH   1  10
ATOM      9  N   UNL     1      44.476   2.144   9.988  0.00  0.00    +0.000 N 
ATOM     10  C   UNL     1      43.785   2.653  11.055  0.00  0.00    +0.000 C 
ATOM     11  O   UNL     1      42.965   1.977  11.660  0.00  0.00    +0.000 OA
ATOM     12  H   UNL     1      44.318   1.167   9.775  0.00  0.00    +0.000 HD
ATOM     13  H   UNL     1      45.315   2.572   9.626  0.00  0.00    +0.000 HD
ENDBRANCH   1  10
BRANCH   5  14
ATOM     14  C   UNL     1      45.716   8.894  12.229  0.00  0.00    +0.000 C 
ATOM     15  C   UNL     1      45.166  10.311  12.216  0.00  0.00    +0.000 C 
ATOM     16  C   UNL     1      45.072   9.485  10.978  0.00  0.00    +0.000 C 
BRANCH  14  17
ATOM     17  C   UNL     1      47.231   8.687  12.152  0.00  0.00    +0.000 A 
ATOM     18  C   UNL     1      47.802   7.411  12.330  0.00  0.00    +0.000 A 
ATOM     19  C   UNL     1      49.176   7.200  12.178  0.00  0.00    +0.000 A 
ATOM     20  C   UNL     1      50.003   8.271  11.871  0.00  0.00    +0.000 A 
ATOM     21  F   UNL     1      51.316   8.069  11.701  0.00  0.00    +0.000 F 
ATOM     22  C   UNL     1      49.486   9.547  11.723  0.00  0.00    +0.000 A 
ATOM     23  C   UNL     1      48.111   9.747  11.856  0.00  0.00    +0.000 A 
ENDBRANCH  14  17
ENDBRANCH   5  14
TORSDOF 3
ENDMDL
