MODEL 1
REMARK VINA RESULT:    -7.785      0.000      0.000
REMARK INTER + INTRA:         -11.660
REMARK INTER:                 -10.515
REMARK INTRA:                  -1.145
REMARK UNBOUND:                -1.145
REMARK  Name = 
REMARK  7 active torsions:
REMARK  status: ('A' for Active; 'I' for Inactive)
REMARK    1  A    between atoms: C_1  and  C_2
REMARK    2  A    between atoms: C_2  and  N_3
REMARK    3  A    between atoms: C_2  and  C_16
REMARK    4  A    between atoms: C_4  and  C_6
REMARK    5  A    between atoms: C_19  and  C_20
REMARK    6  A    between atoms: C_20  and  N_21
REMARK    7  A    between atoms: C_22  and  C_24
REMARK                            x       y       z     vdW  Elec       q    Type
REMARK                         _______ _______ _______ _____ _____    ______ ____
ROOT
ATOM      1  C   UNL     1      47.573   9.140  13.918  0.00  0.00    +0.000 C 
ATOM      2  C   UNL     1      47.890   7.639  13.882  0.00  0.00    +0.000 C 
ENDROOT
BRANCH   2   3
ATOM      3  C   UNL     1      46.865   6.903  13.026  0.00  0.00    +0.000 A 
ATOM      4  C   UNL     1      46.120   7.579  12.051  0.00  0.00    +0.000 A 
ATOM      5  C   UNL     1      45.214   6.885  11.236  0.00  0.00    +0.000 A 
ATOM      6  C   UNL     1      45.029   5.504  11.383  0.00  0.00    +0.000 A 
ATOM      7  C   UNL     1      45.774   4.826  12.355  0.00  0.00    +0.000 A 
ATOM      8  C   UNL     1      46.674   5.518  13.170  0.00  0.00    +0.000 A 
BRANCH   6   9
ATOM      9  C   UNL     1      44.085   4.745  10.485  0.00  0.00    +0.000 C 
BRANCH   9  10
ATOM     10  N   UNL     1      44.757   3.661   9.811  0.00  0.00    +0.000 N 
ATOM     11  C   UNL     1      45.551   3.883   8.714  0.00  0.00    +0.000 C 
ATOM     12  O   UNL     1      45.730   5.005   8.245  0.00  0.00    +0.000 OA
ATOM     13  H   UNL     1      44.673   2.733  10.194  0.00  0.00    +0.000 HD
BRANCH  11  14
ATOM     14  C   UNL     1      46.165   2.702   8.139  0.00  0.00    +0.000 A 
ATOM     15  C   UNL     1      45.946   1.347   8.335  0.00  0.00    +0.000 A 
ATOM     16  C   UNL     1      46.834   0.629   7.497  0.00  0.00    +0.000 A 
ATOM     17  C   UNL     1      47.583   1.553   6.807  0.00  0.00    +0.000 A 
ATOM     18  N   UNL     1      47.176   2.799   7.203  0.00  0.00    +0.000 N 
ATOM     19  H   UNL     1      47.544   3.680   6.866  0.00  0.00    +0.000 HD
ENDBRANCH  11  14
ENDBRANCH   9  10
ENDBRANCH   6   9
ENDBRANCH   2   3
BRANCH   2  20
ATOM     20  N   UNL     1      47.914   7.033  15.207  0.00  0.00    +0.000 N 
ATOM     21  C   UNL     1      49.045   6.528  15.797  0.00  0.00    +0.000 C 
ATOM     22  O   UNL     1      50.153   6.590  15.275  0.00  0.00    +0.000 OA
ATOM     23  H   UNL     1      47.020   6.686  15.540  0.00  0.00    +0.000 HD
BRANCH  21  24
ATOM     24  C   UNL     1      48.873   5.958  17.140  0.00  0.00    +0.000 A 
ATOM     25  C   UNL     1      49.173   4.622  17.364  0.00  0.00    +0.000 A 
ATOM     26  S   UNL     1      48.925   4.124  18.976  0.00  0.00    +0.000 S 
ATOM     27  C   UNL     1      48.367   5.668  19.422  0.00  0.00    +0.000 A 
ATOM     28  N   UNL     1      47.942   5.918  20.691  0.00  0.00    +0.000 NA
ATOM     29  C   UNL     1      47.514   7.122  20.882  0.00  0.00    +0.000 A 
ATOM     30  N   UNL     1      47.487   8.102  19.923  0.00  0.00    +0.000 N 
ATOM     31  C   UNL     1      47.947   7.907  18.643  0.00  0.00    +0.000 A 
ATOM     32  O   UNL     1      47.978   8.824  17.829  0.00  0.00    +0.000 OA
ATOM     33  C   UNL     1      48.404   6.560  18.365  0.00  0.00    +0.000 A 
ATOM     34  H   UNL     1      47.160   9.030  20.144  0.00  0.00    +0.000 HD
ENDBRANCH  21  24
ENDBRANCH   2  20
TORSDOF 6
ENDMDL
MODEL 2
REMARK VINA RESULT:    -7.545      1.466      2.121
REMARK INTER + INTRA:         -11.336
REMARK INTER:                 -10.360
REMARK INTRA:                  -0.977
REMARK UNBOUND:                -1.145
REMARK  Name = 
REMARK  7 active torsions:
REMARK  status: ('A' for Active; 'I' for Inactive)
REMARK    1  A    between atoms: C_1  and  C_2
REMARK    2  A    between atoms: C_2  and  N_3
REMARK    3  A    between atoms: C_2  and  C_16
REMARK    4  A    between atoms: C_4  and  C_6
REMARK    5  A    between atoms: C_19  and  C_20
REMARK    6  A    between atoms: C_20  and  N_21
REMARK    7  A    between atoms: C_22  and  C_24
REMARK                            x       y       z     vdW  Elec       q    Type
REMARK                         _______ _______ _______ _____ _____    ______ ____
ROOT
ATOM      1  C   UNL     1      47.327   9.084  13.428  0.00  0.00    +0.000 C 
ATOM      2  C   UNL     1      47.827   7.664  13.721  0.00  0.00    +0.000 C 
ENDROOT
BRANCH   2   3
ATOM      3  C   UNL     1      46.923   6.636  13.050  0.00  0.00    +0.000 A 
ATOM      4  C   UNL     1      46.327   6.899  11.810  0.00  0.00    +0.000 A 
ATOM      5  C   UNL     1      45.534   5.930  11.178  0.00  0.00    +0.000 A 
ATOM      6  C   UNL     1      45.316   4.681  11.775  0.00  0.00    +0.000 A 
ATOM      7  C   UNL     1      45.912   4.415  13.013  0.00  0.00    +0.000 A 
ATOM      8  C   UNL     1      46.699   5.382  13.645  0.00  0.00    +0.000 A 
BRANCH   6   9
ATOM      9  C   UNL     1      44.497   3.622  11.084  0.00  0.00    +0.000 C 
BRANCH   9  10
ATOM     10  N   UNL     1      45.248   2.975  10.036  0.00  0.00    +0.000 N 
ATOM     11  C   UNL     1      45.195   3.417   8.739  0.00  0.00    +0.000 C 
ATOM     12  O   UNL     1      44.507   4.377   8.397  0.00  0.00    +0.000 OA
ATOM     13  H   UNL     1      45.861   2.214  10.285  0.00  0.00    +0.000 HD
BRANCH  11  14
ATOM     14  C   UNL     1      46.003   2.674   7.792  0.00  0.00    +0.000 A 
ATOM     15  C   UNL     1      46.523   3.003   6.550  0.00  0.00    +0.000 A 
ATOM     16  C   UNL     1      47.251   1.889   6.065  0.00  0.00    +0.000 A 
ATOM     17  C   UNL     1      47.163   0.898   7.014  0.00  0.00    +0.000 A 
ATOM     18  N   UNL     1      46.406   1.378   8.049  0.00  0.00    +0.000 N 
ATOM     19  H   UNL     1      46.168   0.876   8.896  0.00  0.00    +0.000 HD
ENDBRANCH  11  14
ENDBRANCH   9  10
ENDBRANCH   6   9
ENDBRANCH   2   3
BRANCH   2  20
ATOM     20  N   UNL     1      47.894   7.369  15.146  0.00  0.00    +0.000 N 
ATOM     21  C   UNL     1      49.061   7.139  15.827  0.00  0.00    +0.000 C 
ATOM     22  O   UNL     1      50.166   7.213  15.299  0.00  0.00    +0.000 OA
ATOM     23  H   UNL     1      47.037   7.003  15.552  0.00  0.00    +0.000 HD
BRANCH  21  24
ATOM     24  C   UNL     1      48.928   6.861  17.264  0.00  0.00    +0.000 A 
ATOM     25  C   UNL     1      48.920   7.912  18.170  0.00  0.00    +0.000 A 
ATOM     26  S   UNL     1      48.751   7.417  19.793  0.00  0.00    +0.000 S 
ATOM     27  C   UNL     1      48.725   5.776  19.345  0.00  0.00    +0.000 A 
ATOM     28  N   UNL     1      48.639   4.796  20.285  0.00  0.00    +0.000 NA
ATOM     29  C   UNL     1      48.662   3.596  19.808  0.00  0.00    +0.000 A 
ATOM     30  N   UNL     1      48.749   3.288  18.474  0.00  0.00    +0.000 N 
ATOM     31  C   UNL     1      48.793   4.244  17.489  0.00  0.00    +0.000 A 
ATOM     32  O   UNL     1      48.795   3.937  16.300  0.00  0.00    +0.000 OA
ATOM     33  C   UNL     1      48.807   5.610  17.974  0.00  0.00    +0.000 A 
ATOM     34  H   UNL     1      48.741   2.327  18.165  0.00  0.00    +0.000 HD
ENDBRANCH  21  24
ENDBRANCH   2  20
TORSDOF 6
ENDMDL
MODEL 3
REMARK VINA RESULT:    -7.421      2.868      4.481
REMARK INTER + INTRA:         -11.169
REMARK INTER:                  -9.940
REMARK INTRA:                  -1.230
REMARK UNBOUND:                -1.145
REMARK  Name = 
REMARK  7 active torsions:
REMARK  status: ('A' for Active; 'I' for Inactive)
REMARK    1  A    between atoms: C_1  and  C_2
REMARK    2  A    between atoms: C_2  and  N_3
REMARK    3  A    between atoms: C_2  and  C_16
REMARK    4  A    between atoms: C_4  and  C_6
REMARK    5  A    between atoms: C_19  and  C_20
REMARK    6  A    between atoms: C_20  and  N_21
REMARK    7  A    between atoms: C_22  and  C_24
REMARK                            x       y       z     vdW  Elec       q    Type
REMARK                         _______ _______ _______ _____ _____    ______ ____
ROOT
ATOM      1  C   UNL     1      47.506   3.771  15.716  0.00  0.00    +0.000 C 
ATOM      2  C   UNL     1      47.123   5.085  15.024  0.00  0.00    +0.000 C 
ENDROOT
BRANCH   2   3
ATOM      3  C   UNL     1      46.239   4.807  13.813  0.00  0.00    +0.000 A 
ATOM      4  C   UNL     1      45.504   5.832  13.204  0.00  0.00    +0.000 A 
ATOM      5  C   UNL     1      44.731   5.576  12.063  0.00  0.00    +0.000 A 
ATOM      6  C   UNL     1      44.672   4.289  11.510  0.00  0.00    +0.000 A 
ATOM      7  C   UNL     1      45.407   3.264  12.115  0.00  0.00    +0.000 A 
ATOM      8  C   UNL     1      46.175   3.518  13.255  0.00  0.00    +0.000 A 
BRANCH   6   9
ATOM      9  C   UNL     1      43.874   4.015  10.261  0.00  0.00    +0.000 C 
BRANCH   9  10
ATOM     10  N   UNL     1      44.650   3.285   9.290  0.00  0.00    +0.000 N 
ATOM     11  C   UNL     1      45.534   3.921   8.455  0.00  0.00    +0.000 C 
ATOM     12  O   UNL     1      45.708   5.138   8.482  0.00  0.00    +0.000 OA
ATOM     13  H   UNL     1      44.570   2.280   9.268  0.00  0.00    +0.000 HD
BRANCH  11  14
ATOM     14  C   UNL     1      46.249   3.063   7.530  0.00  0.00    +0.000 A 
ATOM     15  C   UNL     1      46.722   3.267   6.243  0.00  0.00    +0.000 A 
ATOM     16  C   UNL     1      47.359   2.077   5.812  0.00  0.00    +0.000 A 
ATOM     17  C   UNL     1      47.264   1.167   6.837  0.00  0.00    +0.000 A 
ATOM     18  N   UNL     1      46.590   1.767   7.867  0.00  0.00    +0.000 N 
ATOM     19  H   UNL     1      46.368   1.344   8.760  0.00  0.00    +0.000 HD
ENDBRANCH  11  14
ENDBRANCH   9  10
ENDBRANCH   6   9
ENDBRANCH   2   3
BRANCH   2  20
ATOM     20  N   UNL     1      48.280   5.857  14.592  0.00  0.00    +0.000 N 
ATOM     21  C   UNL     1      48.921   6.781  15.377  0.00  0.00    +0.000 C 
ATOM     22  O   UNL     1      48.603   7.000  16.542  0.00  0.00    +0.000 OA
ATOM     23  H   UNL     1      48.390   5.944  13.586  0.00  0.00    +0.000 HD
BRANCH  21  24
ATOM     24  C   UNL     1      50.073   7.459  14.768  0.00  0.00    +0.000 A 
ATOM     25  C   UNL     1      51.283   7.503  15.447  0.00  0.00    +0.000 A 
ATOM     26  S   UNL     1      52.516   8.320  14.599  0.00  0.00    +0.000 S 
ATOM     27  C   UNL     1      51.464   8.680  13.311  0.00  0.00    +0.000 A 
ATOM     28  N   UNL     1      51.887   9.414  12.246  0.00  0.00    +0.000 NA
ATOM     29  C   UNL     1      50.976   9.640  11.358  0.00  0.00    +0.000 A 
ATOM     30  N   UNL     1      49.685   9.187  11.433  0.00  0.00    +0.000 N 
ATOM     31  C   UNL     1      49.226   8.406  12.466  0.00  0.00    +0.000 A 
ATOM     32  O   UNL     1      48.085   7.953  12.467  0.00  0.00    +0.000 OA
ATOM     33  C   UNL     1      50.200   8.153  13.509  0.00  0.00    +0.000 A 
ATOM     34  H   UNL     1      49.027   9.381  10.692  0.00  0.00    +0.000 HD
ENDBRANCH  21  24
ENDBRANCH   2  20
TORSDOF 6
ENDMDL
MODEL 4
REMARK VINA RESULT:    -7.402      1.908      2.664
REMARK INTER + INTRA:         -11.144
REMARK INTER:                 -10.179
REMARK INTRA:                  -0.964
REMARK UNBOUND:                -1.145
REMARK  Name = 
REMARK  7 active torsions:
REMARK  status: ('A' for Active; 'I' for Inactive)
REMARK    1  A    between atoms: C_1  and  C_2
REMARK    2  A    between atoms: C_2  and  N_3
REMARK    3  A    between atoms: C_2  and  C_16
REMARK    4  A    between atoms: C_4  and  C_6
REMARK    5  A    between atoms: C_19  and  C_20
REMARK    6  A    between atoms: C_20  and  N_21
REMARK    7  A    between atoms: C_22  and  C_24
REMARK                            x       y       z     vdW  Elec       q    Type
REMARK                         _______ _______ _______ _____ _____    ______ ____
ROOT
ATOM      1  C   UNL     1      45.061   9.756  12.399  0.00  0.00    +0.000 C 
ATOM      2  C   UNL     1      46.127   8.660  12.522  0.00  0.00    +0.000 C 
ENDROOT
BRANCH   2   3
ATOM      3  C   UNL     1      45.536   7.304  12.151  0.00  0.00    +0.000 A 
ATOM      4  C   UNL     1      44.226   7.195  11.668  0.00  0.00    +0.000 A 
ATOM      5  C   UNL     1      43.706   5.951  11.285  0.00  0.00    +0.000 A 
ATOM      6  C   UNL     1      44.483   4.788  11.383  0.00  0.00    +0.000 A 
ATOM      7  C   UNL     1      45.793   4.895  11.864  0.00  0.00    +0.000 A 
ATOM      8  C   UNL     1      46.310   6.135  12.249  0.00  0.00    +0.000 A 
BRANCH   6   9
ATOM      9  C   UNL     1      43.945   3.453  10.938  0.00  0.00    +0.000 C 
BRANCH   9  10
ATOM     10  N   UNL     1      44.846   2.801  10.020  0.00  0.00    +0.000 N 
ATOM     11  C   UNL     1      45.007   3.249   8.733  0.00  0.00    +0.000 C 
ATOM     12  O   UNL     1      44.394   4.219   8.291  0.00  0.00    +0.000 OA
ATOM     13  H   UNL     1      45.403   2.031  10.359  0.00  0.00    +0.000 HD
BRANCH  11  14
ATOM     14  C   UNL     1      45.948   2.500   7.923  0.00  0.00    +0.000 A 
ATOM     15  C   UNL     1      46.442   1.209   8.022  0.00  0.00    +0.000 A 
ATOM     16  C   UNL     1      47.336   0.994   6.945  0.00  0.00    +0.000 A 
ATOM     17  C   UNL     1      47.378   2.154   6.209  0.00  0.00    +0.000 A 
ATOM     18  N   UNL     1      46.541   3.057   6.808  0.00  0.00    +0.000 N 
ATOM     19  H   UNL     1      46.362   4.003   6.491  0.00  0.00    +0.000 HD
ENDBRANCH  11  14
ENDBRANCH   9  10
ENDBRANCH   6   9
ENDBRANCH   2   3
BRANCH   2  20
ATOM     20  N   UNL     1      46.698   8.572  13.859  0.00  0.00    +0.000 N 
ATOM     21  C   UNL     1      48.009   8.848  14.152  0.00  0.00    +0.000 C 
ATOM     22  O   UNL     1      48.808   9.249  13.313  0.00  0.00    +0.000 OA
ATOM     23  H   UNL     1      46.192   7.974  14.507  0.00  0.00    +0.000 HD
BRANCH  21  24
ATOM     24  C   UNL     1      48.400   8.706  15.561  0.00  0.00    +0.000 A 
ATOM     25  C   UNL     1      48.586   9.839  16.341  0.00  0.00    +0.000 A 
ATOM     26  S   UNL     1      49.031   9.498  17.951  0.00  0.00    +0.000 S 
ATOM     27  C   UNL     1      49.031   7.823  17.652  0.00  0.00    +0.000 A 
ATOM     28  N   UNL     1      49.374   6.938  18.627  0.00  0.00    +0.000 NA
ATOM     29  C   UNL     1      49.364   5.702  18.253  0.00  0.00    +0.000 A 
ATOM     30  N   UNL     1      49.027   5.270  16.996  0.00  0.00    +0.000 N 
ATOM     31  C   UNL     1      48.632   6.123  15.994  0.00  0.00    +0.000 A 
ATOM     32  O   UNL     1      48.265   5.700  14.902  0.00  0.00    +0.000 OA
ATOM     33  C   UNL     1      48.662   7.527  16.352  0.00  0.00    +0.000 A 
ATOM     34  H   UNL     1      49.019   4.285  16.774  0.00  0.00    +0.000 HD
ENDBRANCH  21  24
ENDBRANCH   2  20
TORSDOF 6
ENDMDL
MODEL 5
REMARK VINA RESULT:    -7.325      3.903      8.684
REMARK INTER + INTRA:         -11.040
REMARK INTER:                 -10.061
REMARK INTRA:                  -0.979
REMARK UNBOUND:                -1.145
REMARK  Name = 
REMARK  7 active torsions:
REMARK  status: ('A' for Active; 'I' for Inactive)
REMARK    1  A    between atoms: C_1  and  C_2
REMARK    2  A    between atoms: C_2  and  N_3
REMARK    3  A    between atoms: C_2  and  C_16
REMARK    4  A    between atoms: C_4  and  C_6
REMARK    5  A    between atoms: C_19  and  C_20
REMARK    6  A    between atoms: C_20  and  N_21
REMARK    7  A    between atoms: C_22  and  C_24
REMARK                            x       y       z     vdW  Elec       q    Type
REMARK                         _______ _______ _______ _____ _____    ______ ____
ROOT
ATOM      1  C   UNL     1      49.332   7.473  13.098  0.00  0.00    +0.000 C 
ATOM      2  C   UNL     1      48.017   6.919  13.659  0.00  0.00    +0.000 C 
ENDROOT
BRANCH   2   3
ATOM      3  C   UNL     1      48.278   6.133  14.939  0.00  0.00    +0.000 A 
ATOM      4  C   UNL     1      47.510   5.007  15.265  0.00  0.00    +0.000 A 
ATOM      5  C   UNL     1      47.787   4.263  16.420  0.00  0.00    +0.000 A 
ATOM      6  C   UNL     1      48.833   4.632  17.278  0.00  0.00    +0.000 A 
ATOM      7  C   UNL     1      49.603   5.755  16.954  0.00  0.00    +0.000 A 
ATOM      8  C   UNL     1      49.324   6.499  15.803  0.00  0.00    +0.000 A 
BRANCH   6   9
ATOM      9  C   UNL     1      49.161   3.815  18.501  0.00  0.00    +0.000 C 
BRANCH   9  10
ATOM     10  N   UNL     1      50.480   3.238  18.411  0.00  0.00    +0.000 N 
ATOM     11  C   UNL     1      50.751   2.201  17.554  0.00  0.00    +0.000 C 
ATOM     12  O   UNL     1      49.893   1.706  16.826  0.00  0.00    +0.000 OA
ATOM     13  H   UNL     1      51.221   3.648  18.958  0.00  0.00    +0.000 HD
BRANCH  11  14
ATOM     14  C   UNL     1      52.120   1.722  17.566  0.00  0.00    +0.000 A 
ATOM     15  C   UNL     1      53.332   2.368  17.749  0.00  0.00    +0.000 A 
ATOM     16  C   UNL     1      54.365   1.402  17.670  0.00  0.00    +0.000 A 
ATOM     17  C   UNL     1      53.770   0.185  17.436  0.00  0.00    +0.000 A 
ATOM     18  N   UNL     1      52.417   0.388  17.372  0.00  0.00    +0.000 N 
ATOM     19  H   UNL     1      51.716  -0.325  17.212  0.00  0.00    +0.000 HD
ENDBRANCH  11  14
ENDBRANCH   9  10
ENDBRANCH   6   9
ENDBRANCH   2   3
BRANCH   2  20
ATOM     20  N   UNL     1      47.316   6.058  12.716  0.00  0.00    +0.000 N 
ATOM     21  C   UNL     1      46.341   6.497  11.856  0.00  0.00    +0.000 C 
ATOM     22  O   UNL     1      46.009   7.674  11.772  0.00  0.00    +0.000 OA
ATOM     23  H   UNL     1      47.324   5.069  12.946  0.00  0.00    +0.000 HD
BRANCH  21  24
ATOM     24  C   UNL     1      45.751   5.480  10.976  0.00  0.00    +0.000 A 
ATOM     25  C   UNL     1      45.874   5.607   9.599  0.00  0.00    +0.000 A 
ATOM     26  S   UNL     1      45.139   4.341   8.725  0.00  0.00    +0.000 S 
ATOM     27  C   UNL     1      44.593   3.599  10.156  0.00  0.00    +0.000 A 
ATOM     28  N   UNL     1      43.843   2.465  10.113  0.00  0.00    +0.000 NA
ATOM     29  C   UNL     1      43.469   2.029  11.270  0.00  0.00    +0.000 A 
ATOM     30  N   UNL     1      43.790   2.617  12.467  0.00  0.00    +0.000 N 
ATOM     31  C   UNL     1      44.581   3.737  12.559  0.00  0.00    +0.000 A 
ATOM     32  O   UNL     1      44.912   4.197  13.648  0.00  0.00    +0.000 OA
ATOM     33  C   UNL     1      44.997   4.288  11.285  0.00  0.00    +0.000 A 
ATOM     34  H   UNL     1      43.483   2.213  13.339  0.00  0.00    +0.000 HD
ENDBRANCH  21  24
ENDBRANCH   2  20
TORSDOF 6
ENDMDL
MODEL 6
REMARK VINA RESULT:    -7.003      3.887      5.434
REMARK INTER + INTRA:         -10.605
REMARK INTER:                  -9.623
REMARK INTRA:                  -0.982
REMARK UNBOUND:                -1.145
REMARK  Name = 
REMARK  7 active torsions:
REMARK  status: ('A' for Active; 'I' for Inactive)
REMARK    1  A    between atoms: C_1  and  C_2
REMARK    2  A    between atoms: C_2  and  N_3
REMARK    3  A    between atoms: C_2  and  C_16
REMARK    4  A    between atoms: C_4  and  C_6
REMARK    5  A    between atoms: C_19  and  C_20
REMARK    6  A    between atoms: C_20  and  N_21
REMARK    7  A    between atoms: C_22  and  C_24
REMARK                            x       y       z     vdW  Elec       q    Type
REMARK                         _______ _______ _______ _____ _____    ______ ____
ROOT
ATOM      1  C   UNL     1      47.545   2.893  17.764  0.00  0.00    +0.000 C 
ATOM      2  C   UNL     1      48.420   4.124  17.496  0.00  0.00    +0.000 C 
ENDROOT
BRANCH   2   3
ATOM      3  C   UNL     1      48.033   4.768  16.169  0.00  0.00    +0.000 A 
ATOM      4  C   UNL     1      47.144   4.136  15.291  0.00  0.00    +0.000 A 
ATOM      5  C   UNL     1      46.757   4.757  14.096  0.00  0.00    +0.000 A 
ATOM      6  C   UNL     1      47.256   6.020  13.749  0.00  0.00    +0.000 A 
ATOM      7  C   UNL     1      48.144   6.655  14.626  0.00  0.00    +0.000 A 
ATOM      8  C   UNL     1      48.532   6.034  15.816  0.00  0.00    +0.000 A 
BRANCH   6   9
ATOM      9  C   UNL     1      46.816   6.710  12.484  0.00  0.00    +0.000 C 
BRANCH   9  10
ATOM     10  N   UNL     1      46.474   5.757  11.456  0.00  0.00    +0.000 N 
ATOM     11  C   UNL     1      45.170   5.413  11.204  0.00  0.00    +0.000 C 
ATOM     12  O   UNL     1      44.229   5.887  11.837  0.00  0.00    +0.000 OA
ATOM     13  H   UNL     1      47.215   5.382  10.884  0.00  0.00    +0.000 HD
BRANCH  11  14
ATOM     14  C   UNL     1      44.973   4.446  10.141  0.00  0.00    +0.000 A 
ATOM     15  C   UNL     1      44.503   3.142  10.142  0.00  0.00    +0.000 A 
ATOM     16  C   UNL     1      44.513   2.667   8.808  0.00  0.00    +0.000 A 
ATOM     17  C   UNL     1      44.991   3.683   8.015  0.00  0.00    +0.000 A 
ATOM     18  N   UNL     1      45.269   4.751   8.827  0.00  0.00    +0.000 N 
ATOM     19  H   UNL     1      45.634   5.647   8.528  0.00  0.00    +0.000 HD
ENDBRANCH  11  14
ENDBRANCH   9  10
ENDBRANCH   6   9
ENDBRANCH   2   3
BRANCH   2  20
ATOM     20  N   UNL     1      49.843   3.812  17.468  0.00  0.00    +0.000 N 
ATOM     21  C   UNL     1      50.732   4.201  18.437  0.00  0.00    +0.000 C 
ATOM     22  O   UNL     1      50.391   4.806  19.448  0.00  0.00    +0.000 OA
ATOM     23  H   UNL     1      50.220   3.597  16.549  0.00  0.00    +0.000 HD
BRANCH  21  24
ATOM     24  C   UNL     1      52.128   3.789  18.237  0.00  0.00    +0.000 A 
ATOM     25  C   UNL     1      53.150   4.707  18.435  0.00  0.00    +0.000 A 
ATOM     26  S   UNL     1      54.707   4.066  18.167  0.00  0.00    +0.000 S 
ATOM     27  C   UNL     1      54.067   2.550  17.737  0.00  0.00    +0.000 A 
ATOM     28  N   UNL     1      54.882   1.531  17.347  0.00  0.00    +0.000 NA
ATOM     29  C   UNL     1      54.261   0.448  17.017  0.00  0.00    +0.000 A 
ATOM     30  N   UNL     1      52.899   0.287  17.055  0.00  0.00    +0.000 N 
ATOM     31  C   UNL     1      52.043   1.272  17.484  0.00  0.00    +0.000 A 
ATOM     32  O   UNL     1      50.835   1.072  17.577  0.00  0.00    +0.000 OA
ATOM     33  C   UNL     1      52.687   2.522  17.831  0.00  0.00    +0.000 A 
ATOM     34  H   UNL     1      52.478  -0.595  16.804  0.00  0.00    +0.000 HD
ENDBRANCH  21  24
ENDBRANCH   2  20
TORSDOF 6
ENDMDL
MODEL 7
REMARK VINA RESULT:    -6.978      2.773      4.057
REMARK INTER + INTRA:         -10.570
REMARK INTER:                  -9.772
REMARK INTRA:                  -0.798
REMARK UNBOUND:                -1.145
REMARK  Name = 
REMARK  7 active torsions:
REMARK  status: ('A' for Active; 'I' for Inactive)
REMARK    1  A    between atoms: C_1  and  C_2
REMARK    2  A    between atoms: C_2  and  N_3
REMARK    3  A    between atoms: C_2  and  C_16
REMARK    4  A    between atoms: C_4  and  C_6
REMARK    5  A    between atoms: C_19  and  C_20
REMARK    6  A    between atoms: C_20  and  N_21
REMARK    7  A    between atoms: C_22  and  C_24
REMARK                            x       y       z     vdW  Elec       q    Type
REMARK                         _______ _______ _______ _____ _____    ______ ____
ROOT
ATOM      1  C   UNL     1      47.483   3.722  15.715  0.00  0.00    +0.000 C 
ATOM      2  C   UNL     1      47.036   5.066  15.124  0.00  0.00    +0.000 C 
ENDROOT
BRANCH   2   3
ATOM      3  C   UNL     1      46.275   4.844  13.822  0.00  0.00    +0.000 A 
ATOM      4  C   UNL     1      46.119   3.559  13.287  0.00  0.00    +0.000 A 
ATOM      5  C   UNL     1      45.378   3.359  12.114  0.00  0.00    +0.000 A 
ATOM      6  C   UNL     1      44.783   4.439  11.447  0.00  0.00    +0.000 A 
ATOM      7  C   UNL     1      44.937   5.724  11.981  0.00  0.00    +0.000 A 
ATOM      8  C   UNL     1      45.678   5.924  13.149  0.00  0.00    +0.000 A 
BRANCH   6   9
ATOM      9  C   UNL     1      43.954   4.227  10.207  0.00  0.00    +0.000 C 
BRANCH   9  10
ATOM     10  N   UNL     1      44.675   3.468   9.215  0.00  0.00    +0.000 N 
ATOM     11  C   UNL     1      45.630   4.052   8.422  0.00  0.00    +0.000 C 
ATOM     12  O   UNL     1      45.919   5.244   8.506  0.00  0.00    +0.000 OA
ATOM     13  H   UNL     1      44.500   2.477   9.148  0.00  0.00    +0.000 HD
BRANCH  11  14
ATOM     14  C   UNL     1      46.277   3.170   7.470  0.00  0.00    +0.000 A 
ATOM     15  C   UNL     1      46.691   3.353   6.160  0.00  0.00    +0.000 A 
ATOM     16  C   UNL     1      47.276   2.145   5.707  0.00  0.00    +0.000 A 
ATOM     17  C   UNL     1      47.209   1.244   6.743  0.00  0.00    +0.000 A 
ATOM     18  N   UNL     1      46.602   1.869   7.800  0.00  0.00    +0.000 N 
ATOM     19  H   UNL     1      46.414   1.457   8.706  0.00  0.00    +0.000 HD
ENDBRANCH  11  14
ENDBRANCH   9  10
ENDBRANCH   6   9
ENDBRANCH   2   3
BRANCH   2  20
ATOM     20  N   UNL     1      48.149   5.970  14.868  0.00  0.00    +0.000 N 
ATOM     21  C   UNL     1      48.795   6.685  15.844  0.00  0.00    +0.000 C 
ATOM     22  O   UNL     1      48.522   6.583  17.035  0.00  0.00    +0.000 OA
ATOM     23  H   UNL     1      48.213   6.319  13.916  0.00  0.00    +0.000 HD
BRANCH  21  24
ATOM     24  C   UNL     1      49.898   7.544  15.393  0.00  0.00    +0.000 A 
ATOM     25  C   UNL     1      49.627   8.659  14.611  0.00  0.00    +0.000 A 
ATOM     26  S   UNL     1      51.015   9.549  14.180  0.00  0.00    +0.000 S 
ATOM     27  C   UNL     1      52.034   8.452  14.988  0.00  0.00    +0.000 A 
ATOM     28  N   UNL     1      53.386   8.612  14.974  0.00  0.00    +0.000 NA
ATOM     29  C   UNL     1      54.038   7.688  15.599  0.00  0.00    +0.000 A 
ATOM     30  N   UNL     1      53.461   6.628  16.248  0.00  0.00    +0.000 N 
ATOM     31  C   UNL     1      52.100   6.451  16.326  0.00  0.00    +0.000 A 
ATOM     32  O   UNL     1      51.611   5.533  16.977  0.00  0.00    +0.000 OA
ATOM     33  C   UNL     1      51.322   7.441  15.608  0.00  0.00    +0.000 A 
ATOM     34  H   UNL     1      54.028   5.951  16.737  0.00  0.00    +0.000 HD
ENDBRANCH  21  24
ENDBRANCH   2  20
TORSDOF 6
ENDMDL
MODEL 8
REMARK VINA RESULT:    -6.883      3.385      8.923
REMARK INTER + INTRA:         -10.443
REMARK INTER:                  -9.399
REMARK INTRA:                  -1.044
REMARK UNBOUND:                -1.145
REMARK  Name = 
REMARK  7 active torsions:
REMARK  status: ('A' for Active; 'I' for Inactive)
REMARK    1  A    between atoms: C_1  and  C_2
REMARK    2  A    between atoms: C_2  and  N_3
REMARK    3  A    between atoms: C_2  and  C_16
REMARK    4  A    between atoms: C_4  and  C_6
REMARK    5  A    between atoms: C_19  and  C_20
REMARK    6  A    between atoms: C_20  and  N_21
REMARK    7  A    between atoms: C_22  and  C_24
REMARK                            x       y       z     vdW  Elec       q    Type
REMARK                         _______ _______ _______ _____ _____    ______ ____
ROOT
ATOM      1  C   UNL     1      48.868   7.798  11.800  0.00  0.00    +0.000 C 
ATOM      2  C   UNL     1      47.849   7.343  12.853  0.00  0.00    +0.000 C 
ENDROOT
BRANCH   2   3
ATOM      3  C   UNL     1      48.563   6.934  14.137  0.00  0.00    +0.000 A 
ATOM      4  C   UNL     1      49.822   7.455  14.461  0.00  0.00    +0.000 A 
ATOM      5  C   UNL     1      50.450   7.110  15.666  0.00  0.00    +0.000 A 
ATOM      6  C   UNL     1      49.836   6.232  16.569  0.00  0.00    +0.000 A 
ATOM      7  C   UNL     1      48.577   5.711  16.249  0.00  0.00    +0.000 A 
ATOM      8  C   UNL     1      47.952   6.053  15.046  0.00  0.00    +0.000 A 
BRANCH   6   9
ATOM      9  C   UNL     1      50.488   5.886  17.883  0.00  0.00    +0.000 C 
BRANCH   9  10
ATOM     10  N   UNL     1      51.386   4.766  17.747  0.00  0.00    +0.000 N 
ATOM     11  C   UNL     1      50.950   3.475  17.906  0.00  0.00    +0.000 C 
ATOM     12  O   UNL     1      49.782   3.202  18.178  0.00  0.00    +0.000 OA
ATOM     13  H   UNL     1      52.341   4.946  17.478  0.00  0.00    +0.000 HD
BRANCH  11  14
ATOM     14  C   UNL     1      51.960   2.448  17.738  0.00  0.00    +0.000 A 
ATOM     15  C   UNL     1      51.875   1.079  17.539  0.00  0.00    +0.000 A 
ATOM     16  C   UNL     1      53.190   0.565  17.431  0.00  0.00    +0.000 A 
ATOM     17  C   UNL     1      54.056   1.623  17.568  0.00  0.00    +0.000 A 
ATOM     18  N   UNL     1      53.307   2.754  17.756  0.00  0.00    +0.000 N 
ATOM     19  H   UNL     1      53.667   3.691  17.886  0.00  0.00    +0.000 HD
ENDBRANCH  11  14
ENDBRANCH   9  10
ENDBRANCH   6   9
ENDBRANCH   2   3
BRANCH   2  20
ATOM     20  N   UNL     1      47.026   6.229  12.400  0.00  0.00    +0.000 N 
ATOM     21  C   UNL     1      45.658   6.274  12.314  0.00  0.00    +0.000 C 
ATOM     22  O   UNL     1      45.008   7.284  12.563  0.00  0.00    +0.000 OA
ATOM     23  H   UNL     1      47.458   5.313  12.476  0.00  0.00    +0.000 HD
BRANCH  21  24
ATOM     24  C   UNL     1      45.000   5.052  11.832  0.00  0.00    +0.000 A 
ATOM     25  C   UNL     1      44.246   4.285  12.710  0.00  0.00    +0.000 A 
ATOM     26  S   UNL     1      43.548   2.907  11.989  0.00  0.00    +0.000 S 
ATOM     27  C   UNL     1      44.263   3.264  10.487  0.00  0.00    +0.000 A 
ATOM     28  N   UNL     1      44.097   2.437   9.419  0.00  0.00    +0.000 NA
ATOM     29  C   UNL     1      44.722   2.812   8.353  0.00  0.00    +0.000 A 
ATOM     30  N   UNL     1      45.488   3.945   8.255  0.00  0.00    +0.000 N 
ATOM     31  C   UNL     1      45.647   4.830   9.293  0.00  0.00    +0.000 A 
ATOM     32  O   UNL     1      46.277   5.874   9.152  0.00  0.00    +0.000 OA
ATOM     33  C   UNL     1      44.995   4.437  10.526  0.00  0.00    +0.000 A 
ATOM     34  H   UNL     1      45.933   4.192   7.383  0.00  0.00    +0.000 HD
ENDBRANCH  21  24
ENDBRANCH   2  20
TORSDOF 6
ENDMDL
MODEL 9
REMARK VINA RESULT:    -6.811      3.748      5.604
REMARK INTER + INTRA:         -10.345
REMARK INTER:                  -9.111
REMARK INTRA:                  -1.234
REMARK UNBOUND:                -1.145
REMARK  Name = 
REMARK  7 active torsions:
REMARK  status: ('A' for Active; 'I' for Inactive)
REMARK    1  A    between atoms: C_1  and  C_2
REMARK    2  A    between atoms: C_2  and  N_3
REMARK    3  A    between atoms: C_2  and  C_16
REMARK    4  A    between atoms: C_4  and  C_6
REMARK    5  A    between atoms: C_19  and  C_20
REMARK    6  A    between atoms: C_20  and  N_21
REMARK    7  A    between atoms: C_22  and  C_24
REMARK                            x       y       z     vdW  Elec       q    Type
REMARK                         _______ _______ _______ _____ _____    ______ ____
ROOT
ATOM      1  C   UNL     1      48.673   6.001  16.034  0.00  0.00    +0.000 C 
ATOM      2  C   UNL     1      48.577   7.010  14.883  0.00  0.00    +0.000 C 
ENDROOT
BRANCH   2   3
ATOM      3  C   UNL     1      47.638   6.489  13.800  0.00  0.00    +0.000 A 
ATOM      4  C   UNL     1      47.131   5.184  13.851  0.00  0.00    +0.000 A 
ATOM      5  C   UNL     1      46.232   4.729  12.876  0.00  0.00    +0.000 A 
ATOM      6  C   UNL     1      45.826   5.565  11.827  0.00  0.00    +0.000 A 
ATOM      7  C   UNL     1      46.330   6.870  11.776  0.00  0.00    +0.000 A 
ATOM      8  C   UNL     1      47.229   7.323  12.745  0.00  0.00    +0.000 A 
BRANCH   6   9
ATOM      9  C   UNL     1      44.831   5.095  10.798  0.00  0.00    +0.000 C 
BRANCH   9  10
ATOM     10  N   UNL     1      45.490   4.494   9.664  0.00  0.00    +0.000 N 
ATOM     11  C   UNL     1      45.131   3.254   9.201  0.00  0.00    +0.000 C 
ATOM     12  O   UNL     1      44.240   2.588   9.724  0.00  0.00    +0.000 OA
ATOM     13  H   UNL     1      46.194   5.030   9.180  0.00  0.00    +0.000 HD
BRANCH  11  14
ATOM     14  C   UNL     1      45.876   2.775   8.053  0.00  0.00    +0.000 A 
ATOM     15  C   UNL     1      46.177   3.353   6.830  0.00  0.00    +0.000 A 
ATOM     16  C   UNL     1      46.950   2.431   6.083  0.00  0.00    +0.000 A 
ATOM     17  C   UNL     1      47.107   1.306   6.857  0.00  0.00    +0.000 A 
ATOM     18  N   UNL     1      46.453   1.521   8.041  0.00  0.00    +0.000 N 
ATOM     19  H   UNL     1      46.394   0.869   8.815  0.00  0.00    +0.000 HD
ENDBRANCH  11  14
ENDBRANCH   9  10
ENDBRANCH   6   9
ENDBRANCH   2   3
BRANCH   2  20
ATOM     20  N   UNL     1      49.870   7.306  14.280  0.00  0.00    +0.000 N 
ATOM     21  C   UNL     1      50.404   8.566  14.192  0.00  0.00    +0.000 C 
ATOM     22  O   UNL     1      49.856   9.555  14.667  0.00  0.00    +0.000 OA
ATOM     23  H   UNL     1      50.210   6.609  13.623  0.00  0.00    +0.000 HD
BRANCH  21  24
ATOM     24  C   UNL     1      51.722   8.666  13.552  0.00  0.00    +0.000 A 
ATOM     25  C   UNL     1      52.802   9.153  14.274  0.00  0.00    +0.000 A 
ATOM     26  S   UNL     1      54.257   9.197  13.386  0.00  0.00    +0.000 S 
ATOM     27  C   UNL     1      53.485   8.606  11.990  0.00  0.00    +0.000 A 
ATOM     28  N   UNL     1      54.171   8.444  10.826  0.00  0.00    +0.000 NA
ATOM     29  C   UNL     1      53.454   8.020   9.839  0.00  0.00    +0.000 A 
ATOM     30  N   UNL     1      52.116   7.730   9.914  0.00  0.00    +0.000 N 
ATOM     31  C   UNL     1      51.394   7.837  11.078  0.00  0.00    +0.000 A 
ATOM     32  O   UNL     1      50.215   7.499  11.132  0.00  0.00    +0.000 OA
ATOM     33  C   UNL     1      52.144   8.344  12.210  0.00  0.00    +0.000 A 
ATOM     34  H   UNL     1      51.618   7.381   9.109  0.00  0.00    +0.000 HD
ENDBRANCH  21  24
ENDBRANCH   2  20
TORSDOF 6
ENDMDL
