MODEL 1
REMARK VINA RESULT:    -7.424      0.000      0.000
REMARK INTER + INTRA:          -9.868
REMARK INTER:                  -9.378
REMARK INTRA:                  -0.491
REMARK UNBOUND:                -0.491
REMARK  Name = 
REMARK  6 active torsions:
REMARK  status: ('A' for Active; 'I' for Inactive)
REMARK    1  A    between atoms: C_1  and  C_2
REMARK    2  A    between atoms: C_5  and  C_6
REMARK    3  A    between atoms: C_6  and  O_7
REMARK    4  A    between atoms: O_7  and  C_8
REMARK    5  A    between atoms: C_11  and  C_12
REMARK    6  A    between atoms: C_12  and  N_13
REMARK                            x       y       z     vdW  Elec       q    Type
REMARK                         _______ _______ _______ _____ _____    ______ ____
ROOT
ATOM      1  C   UNL     1      44.551   3.300   9.285  0.00  0.00    +0.000 A 
ATOM      2  C   UNL     1      45.287   4.172   8.484  0.00  0.00    +0.000 A 
ATOM      3  C   UNL     1      46.272   3.675   7.623  0.00  0.00    +0.000 A 
ATOM      4  C   UNL     1      46.536   2.300   7.551  0.00  0.00    +0.000 A 
ATOM      5  C   UNL     1      45.798   1.434   8.367  0.00  0.00    +0.000 A 
ATOM      6  C   UNL     1      44.816   1.932   9.225  0.00  0.00    +0.000 A 
ENDROOT
BRANCH   1   7
ATOM      7  O   UNL     1      43.555   3.647  10.153  0.00  0.00    +0.000 OA
BRANCH   7   8
ATOM      8  C   UNL     1      43.689   3.221  11.512  0.00  0.00    +0.000 C 
BRANCH   8  13
ATOM      9  C   UNL     1      47.840   6.081  14.322  0.00  0.00    +0.000 C 
ATOM     10  C   UNL     1      46.742   5.389  13.579  0.00  0.00    +0.000 A 
ATOM     11  C   UNL     1      45.746   6.099  12.913  0.00  0.00    +0.000 A 
ATOM     12  C   UNL     1      44.746   5.409  12.231  0.00  0.00    +0.000 A 
ATOM     13  C   UNL     1      44.770   4.016  12.216  0.00  0.00    +0.000 A 
ATOM     14  N   UNL     1      45.720   3.306  12.877  0.00  0.00    +0.000 NA
ATOM     15  C   UNL     1      46.677   4.002  13.532  0.00  0.00    +0.000 A 
ENDBRANCH   8  13
ENDBRANCH   7   8
ENDBRANCH   1   7
BRANCH   4  16
ATOM     16  C   UNL     1      47.561   1.756   6.589  0.00  0.00    +0.000 C 
BRANCH  16  17
ATOM     17  N   UNL     1      48.655   2.695   6.373  0.00  0.00    +0.000 NA
ATOM     18  H   UNL     1      48.371   3.372   5.667  0.00  0.00    +0.000 HD
ATOM     19  H   UNL     1      49.453   2.193   5.988  0.00  0.00    +0.000 HD
ENDBRANCH  16  17
ENDBRANCH   4  16
TORSDOF 5
ENDMDL
MODEL 2
REMARK VINA RESULT:    -7.061      1.290      2.014
REMARK INTER + INTRA:          -9.409
REMARK INTER:                  -8.950
REMARK INTRA:                  -0.459
REMARK UNBOUND:                -0.491
REMARK  Name = 
REMARK  6 active torsions:
REMARK  status: ('A' for Active; 'I' for Inactive)
REMARK    1  A    between atoms: C_1  and  C_2
REMARK    2  A    between atoms: C_5  and  C_6
REMARK    3  A    between atoms: C_6  and  O_7
REMARK    4  A    between atoms: O_7  and  C_8
REMARK    5  A    between atoms: C_11  and  C_12
REMARK    6  A    between atoms: C_12  and  N_13
REMARK                            x       y       z     vdW  Elec       q    Type
REMARK                         _______ _______ _______ _____ _____    ______ ____
ROOT
ATOM      1  C   UNL     1      44.614   3.441   9.142  0.00  0.00    +0.000 A 
ATOM      2  C   UNL     1      44.837   2.067   9.216  0.00  0.00    +0.000 A 
ATOM      3  C   UNL     1      45.835   1.472   8.434  0.00  0.00    +0.000 A 
ATOM      4  C   UNL     1      46.624   2.244   7.569  0.00  0.00    +0.000 A 
ATOM      5  C   UNL     1      46.385   3.621   7.495  0.00  0.00    +0.000 A 
ATOM      6  C   UNL     1      45.390   4.212   8.275  0.00  0.00    +0.000 A 
ENDROOT
BRANCH   1   7
ATOM      7  O   UNL     1      43.690   4.148   9.857  0.00  0.00    +0.000 OA
BRANCH   7   8
ATOM      8  C   UNL     1      43.745   4.048  11.283  0.00  0.00    +0.000 C 
BRANCH   8  13
ATOM      9  C   UNL     1      47.004   8.353  13.321  0.00  0.00    +0.000 C 
ATOM     10  C   UNL     1      46.191   7.202  12.823  0.00  0.00    +0.000 A 
ATOM     11  C   UNL     1      46.465   5.890  13.203  0.00  0.00    +0.000 A 
ATOM     12  C   UNL     1      45.676   4.851  12.714  0.00  0.00    +0.000 A 
ATOM     13  C   UNL     1      44.614   5.146  11.862  0.00  0.00    +0.000 A 
ATOM     14  N   UNL     1      44.344   6.415  11.463  0.00  0.00    +0.000 NA
ATOM     15  C   UNL     1      45.128   7.404  11.952  0.00  0.00    +0.000 A 
ENDBRANCH   8  13
ENDBRANCH   7   8
ENDBRANCH   1   7
BRANCH   4  16
ATOM     16  C   UNL     1      47.733   1.616   6.764  0.00  0.00    +0.000 C 
BRANCH  16  17
ATOM     17  N   UNL     1      48.702   2.607   6.309  0.00  0.00    +0.000 NA
ATOM     18  H   UNL     1      49.579   2.459   6.806  0.00  0.00    +0.000 HD
ATOM     19  H   UNL     1      48.375   3.535   6.568  0.00  0.00    +0.000 HD
ENDBRANCH  16  17
ENDBRANCH   4  16
TORSDOF 5
ENDMDL
MODEL 3
REMARK VINA RESULT:    -7.055      1.575      5.998
REMARK INTER + INTRA:          -9.401
REMARK INTER:                  -9.007
REMARK INTRA:                  -0.395
REMARK UNBOUND:                -0.491
REMARK  Name = 
REMARK  6 active torsions:
REMARK  status: ('A' for Active; 'I' for Inactive)
REMARK    1  A    between atoms: C_1  and  C_2
REMARK    2  A    between atoms: C_5  and  C_6
REMARK    3  A    between atoms: C_6  and  O_7
REMARK    4  A    between atoms: O_7  and  C_8
REMARK    5  A    between atoms: C_11  and  C_12
REMARK    6  A    between atoms: C_12  and  N_13
REMARK                            x       y       z     vdW  Elec       q    Type
REMARK                         _______ _______ _______ _____ _____    ______ ____
ROOT
ATOM      1  C   UNL     1      44.950   4.219  11.322  0.00  0.00    +0.000 A 
ATOM      2  C   UNL     1      45.396   3.537  12.453  0.00  0.00    +0.000 A 
ATOM      3  C   UNL     1      46.293   4.150  13.336  0.00  0.00    +0.000 A 
ATOM      4  C   UNL     1      46.756   5.453  13.100  0.00  0.00    +0.000 A 
ATOM      5  C   UNL     1      46.310   6.124  11.955  0.00  0.00    +0.000 A 
ATOM      6  C   UNL     1      45.415   5.511  11.077  0.00  0.00    +0.000 A 
ENDROOT
BRANCH   1   7
ATOM      7  O   UNL     1      44.067   3.747  10.392  0.00  0.00    +0.000 OA
BRANCH   7   8
ATOM      8  C   UNL     1      44.270   2.416   9.909  0.00  0.00    +0.000 C 
BRANCH   8  13
ATOM      9  C   UNL     1      47.996   2.264   5.505  0.00  0.00    +0.000 C 
ATOM     10  C   UNL     1      47.017   2.356   6.630  0.00  0.00    +0.000 A 
ATOM     11  C   UNL     1      46.261   3.504   6.854  0.00  0.00    +0.000 A 
ATOM     12  C   UNL     1      45.359   3.539   7.915  0.00  0.00    +0.000 A 
ATOM     13  C   UNL     1      45.218   2.416   8.727  0.00  0.00    +0.000 A 
ATOM     14  N   UNL     1      45.961   1.295   8.538  0.00  0.00    +0.000 NA
ATOM     15  C   UNL     1      46.830   1.290   7.501  0.00  0.00    +0.000 A 
ENDBRANCH   8  13
ENDBRANCH   7   8
ENDBRANCH   1   7
BRANCH   4  16
ATOM     16  C   UNL     1      47.682   6.135  14.074  0.00  0.00    +0.000 C 
BRANCH  16  17
ATOM     17  N   UNL     1      47.802   5.391  15.322  0.00  0.00    +0.000 NA
ATOM     18  H   UNL     1      47.489   4.435  15.165  0.00  0.00    +0.000 HD
ATOM     19  H   UNL     1      47.170   5.793  16.011  0.00  0.00    +0.000 HD
ENDBRANCH  16  17
ENDBRANCH   4  16
TORSDOF 5
ENDMDL
MODEL 4
REMARK VINA RESULT:    -6.883      1.740      5.773
REMARK INTER + INTRA:          -9.184
REMARK INTER:                  -8.737
REMARK INTRA:                  -0.447
REMARK UNBOUND:                -0.491
REMARK  Name = 
REMARK  6 active torsions:
REMARK  status: ('A' for Active; 'I' for Inactive)
REMARK    1  A    between atoms: C_1  and  C_2
REMARK    2  A    between atoms: C_5  and  C_6
REMARK    3  A    between atoms: C_6  and  O_7
REMARK    4  A    between atoms: O_7  and  C_8
REMARK    5  A    between atoms: C_11  and  C_12
REMARK    6  A    between atoms: C_12  and  N_13
REMARK                            x       y       z     vdW  Elec       q    Type
REMARK                         _______ _______ _______ _____ _____    ______ ____
ROOT
ATOM      1  C   UNL     1      45.015   4.750  11.887  0.00  0.00    +0.000 A 
ATOM      2  C   UNL     1      45.429   6.048  11.589  0.00  0.00    +0.000 A 
ATOM      3  C   UNL     1      46.476   6.636  12.311  0.00  0.00    +0.000 A 
ATOM      4  C   UNL     1      47.122   5.934  13.338  0.00  0.00    +0.000 A 
ATOM      5  C   UNL     1      46.692   4.635  13.635  0.00  0.00    +0.000 A 
ATOM      6  C   UNL     1      45.649   4.051  12.915  0.00  0.00    +0.000 A 
ENDROOT
BRANCH   1   7
ATOM      7  O   UNL     1      44.024   4.054  11.255  0.00  0.00    +0.000 OA
BRANCH   7   8
ATOM      8  C   UNL     1      43.815   4.325   9.866  0.00  0.00    +0.000 C 
BRANCH   8  13
ATOM      9  C   UNL     1      47.772   1.800   6.509  0.00  0.00    +0.000 C 
ATOM     10  C   UNL     1      46.738   2.404   7.402  0.00  0.00    +0.000 A 
ATOM     11  C   UNL     1      46.025   1.639   8.322  0.00  0.00    +0.000 A 
ATOM     12  C   UNL     1      45.072   2.249   9.135  0.00  0.00    +0.000 A 
ATOM     13  C   UNL     1      44.860   3.621   9.023  0.00  0.00    +0.000 A 
ATOM     14  N   UNL     1      45.529   4.380   8.118  0.00  0.00    +0.000 NA
ATOM     15  C   UNL     1      46.447   3.761   7.340  0.00  0.00    +0.000 A 
ENDBRANCH   8  13
ENDBRANCH   7   8
ENDBRANCH   1   7
BRANCH   4  16
ATOM     16  C   UNL     1      48.282   6.544  14.083  0.00  0.00    +0.000 C 
BRANCH  16  17
ATOM     17  N   UNL     1      49.436   6.751  13.216  0.00  0.00    +0.000 NA
ATOM     18  H   UNL     1      49.167   7.374  12.456  0.00  0.00    +0.000 HD
ATOM     19  H   UNL     1      49.693   5.864  12.787  0.00  0.00    +0.000 HD
ENDBRANCH  16  17
ENDBRANCH   4  16
TORSDOF 5
ENDMDL
MODEL 5
REMARK VINA RESULT:    -6.540      2.078      6.159
REMARK INTER + INTRA:          -8.751
REMARK INTER:                  -8.291
REMARK INTRA:                  -0.460
REMARK UNBOUND:                -0.491
REMARK  Name = 
REMARK  6 active torsions:
REMARK  status: ('A' for Active; 'I' for Inactive)
REMARK    1  A    between atoms: C_1  and  C_2
REMARK    2  A    between atoms: C_5  and  C_6
REMARK    3  A    between atoms: C_6  and  O_7
REMARK    4  A    between atoms: O_7  and  C_8
REMARK    5  A    between atoms: C_11  and  C_12
REMARK    6  A    between atoms: C_12  and  N_13
REMARK                            x       y       z     vdW  Elec       q    Type
REMARK                         _______ _______ _______ _____ _____    ______ ____
ROOT
ATOM      1  C   UNL     1      45.087   5.297  12.093  0.00  0.00    +0.000 A 
ATOM      2  C   UNL     1      46.210   5.022  12.872  0.00  0.00    +0.000 A 
ATOM      3  C   UNL     1      47.033   6.065  13.315  0.00  0.00    +0.000 A 
ATOM      4  C   UNL     1      46.744   7.397  12.984  0.00  0.00    +0.000 A 
ATOM      5  C   UNL     1      45.620   7.661  12.192  0.00  0.00    +0.000 A 
ATOM      6  C   UNL     1      44.801   6.620  11.753  0.00  0.00    +0.000 A 
ENDROOT
BRANCH   1   7
ATOM      7  O   UNL     1      44.195   4.381  11.611  0.00  0.00    +0.000 OA
BRANCH   7   8
ATOM      8  C   UNL     1      43.781   4.522  10.249  0.00  0.00    +0.000 C 
BRANCH   8  13
ATOM      9  C   UNL     1      47.315   1.442   6.884  0.00  0.00    +0.000 C 
ATOM     10  C   UNL     1      46.416   2.286   7.729  0.00  0.00    +0.000 A 
ATOM     11  C   UNL     1      46.358   3.670   7.582  0.00  0.00    +0.000 A 
ATOM     12  C   UNL     1      45.502   4.413   8.392  0.00  0.00    +0.000 A 
ATOM     13  C   UNL     1      44.706   3.754   9.328  0.00  0.00    +0.000 A 
ATOM     14  N   UNL     1      44.765   2.409   9.500  0.00  0.00    +0.000 NA
ATOM     15  C   UNL     1      45.606   1.713   8.701  0.00  0.00    +0.000 A 
ENDBRANCH   8  13
ENDBRANCH   7   8
ENDBRANCH   1   7
BRANCH   4  16
ATOM     16  C   UNL     1      47.598   8.527  13.500  0.00  0.00    +0.000 C 
BRANCH  16  17
ATOM     17  N   UNL     1      47.231   8.908  14.858  0.00  0.00    +0.000 NA
ATOM     18  H   UNL     1      47.273   8.083  15.453  0.00  0.00    +0.000 HD
ATOM     19  H   UNL     1      46.263   9.222  14.865  0.00  0.00    +0.000 HD
ENDBRANCH  16  17
ENDBRANCH   4  16
TORSDOF 5
ENDMDL
MODEL 6
REMARK VINA RESULT:    -6.411      1.768      5.932
REMARK INTER + INTRA:          -8.588
REMARK INTER:                  -8.212
REMARK INTRA:                  -0.377
REMARK UNBOUND:                -0.491
REMARK  Name = 
REMARK  6 active torsions:
REMARK  status: ('A' for Active; 'I' for Inactive)
REMARK    1  A    between atoms: C_1  and  C_2
REMARK    2  A    between atoms: C_5  and  C_6
REMARK    3  A    between atoms: C_6  and  O_7
REMARK    4  A    between atoms: O_7  and  C_8
REMARK    5  A    between atoms: C_11  and  C_12
REMARK    6  A    between atoms: C_12  and  N_13
REMARK                            x       y       z     vdW  Elec       q    Type
REMARK                         _______ _______ _______ _____ _____    ______ ____
ROOT
ATOM      1  C   UNL     1      45.627   5.473  11.758  0.00  0.00    +0.000 A 
ATOM      2  C   UNL     1      46.763   6.135  12.222  0.00  0.00    +0.000 A 
ATOM      3  C   UNL     1      47.337   5.774  13.447  0.00  0.00    +0.000 A 
ATOM      4  C   UNL     1      46.783   4.747  14.224  0.00  0.00    +0.000 A 
ATOM      5  C   UNL     1      45.636   4.095  13.754  0.00  0.00    +0.000 A 
ATOM      6  C   UNL     1      45.066   4.457  12.532  0.00  0.00    +0.000 A 
ENDROOT
BRANCH   1   7
ATOM      7  O   UNL     1      44.978   5.712  10.579  0.00  0.00    +0.000 OA
BRANCH   7   8
ATOM      8  C   UNL     1      44.207   4.642  10.025  0.00  0.00    +0.000 C 
BRANCH   8  13
ATOM      9  C   UNL     1      47.448   1.264   6.650  0.00  0.00    +0.000 C 
ATOM     10  C   UNL     1      46.628   2.184   7.496  0.00  0.00    +0.000 A 
ATOM     11  C   UNL     1      46.647   3.564   7.312  0.00  0.00    +0.000 A 
ATOM     12  C   UNL     1      45.862   4.379   8.124  0.00  0.00    +0.000 A 
ATOM     13  C   UNL     1      45.057   3.795   9.100  0.00  0.00    +0.000 A 
ATOM     14  N   UNL     1      45.041   2.454   9.309  0.00  0.00    +0.000 NA
ATOM     15  C   UNL     1      45.815   1.687   8.507  0.00  0.00    +0.000 A 
ENDBRANCH   8  13
ENDBRANCH   7   8
ENDBRANCH   1   7
BRANCH   4  16
ATOM     16  C   UNL     1      47.426   4.321  15.519  0.00  0.00    +0.000 C 
BRANCH  16  17
ATOM     17  N   UNL     1      47.932   2.955  15.451  0.00  0.00    +0.000 NA
ATOM     18  H   UNL     1      48.590   2.811  16.215  0.00  0.00    +0.000 HD
ATOM     19  H   UNL     1      48.459   2.838  14.588  0.00  0.00    +0.000 HD
ENDBRANCH  16  17
ENDBRANCH   4  16
TORSDOF 5
ENDMDL
MODEL 7
REMARK VINA RESULT:    -5.519      4.047      6.297
REMARK INTER + INTRA:          -7.462
REMARK INTER:                  -7.153
REMARK INTRA:                  -0.309
REMARK UNBOUND:                -0.491
REMARK  Name = 
REMARK  6 active torsions:
REMARK  status: ('A' for Active; 'I' for Inactive)
REMARK    1  A    between atoms: C_1  and  C_2
REMARK    2  A    between atoms: C_5  and  C_6
REMARK    3  A    between atoms: C_6  and  O_7
REMARK    4  A    between atoms: O_7  and  C_8
REMARK    5  A    between atoms: C_11  and  C_12
REMARK    6  A    between atoms: C_12  and  N_13
REMARK                            x       y       z     vdW  Elec       q    Type
REMARK                         _______ _______ _______ _____ _____    ______ ____
ROOT
ATOM      1  C   UNL     1      46.935   4.044  13.902  0.00  0.00    +0.000 A 
ATOM      2  C   UNL     1      47.183   5.413  13.990  0.00  0.00    +0.000 A 
ATOM      3  C   UNL     1      46.493   6.308  13.163  0.00  0.00    +0.000 A 
ATOM      4  C   UNL     1      45.545   5.846  12.238  0.00  0.00    +0.000 A 
ATOM      5  C   UNL     1      45.310   4.469  12.152  0.00  0.00    +0.000 A 
ATOM      6  C   UNL     1      46.000   3.579  12.977  0.00  0.00    +0.000 A 
ENDROOT
BRANCH   1   7
ATOM      7  O   UNL     1      47.522   3.068  14.656  0.00  0.00    +0.000 OA
BRANCH   7   8
ATOM      8  C   UNL     1      47.520   3.245  16.076  0.00  0.00    +0.000 C 
BRANCH   8  13
ATOM      9  C   UNL     1      52.818   2.394  18.203  0.00  0.00    +0.000 C 
ATOM     10  C   UNL     1      51.446   2.666  17.675  0.00  0.00    +0.000 A 
ATOM     11  C   UNL     1      50.788   3.868  17.923  0.00  0.00    +0.000 A 
ATOM     12  C   UNL     1      49.511   4.075  17.406  0.00  0.00    +0.000 A 
ATOM     13  C   UNL     1      48.918   3.077  16.636  0.00  0.00    +0.000 A 
ATOM     14  N   UNL     1      49.534   1.890  16.401  0.00  0.00    +0.000 NA
ATOM     15  C   UNL     1      50.773   1.716  16.916  0.00  0.00    +0.000 A 
ENDBRANCH   8  13
ENDBRANCH   7   8
ENDBRANCH   1   7
BRANCH   4  16
ATOM     16  C   UNL     1      44.763   6.809  11.382  0.00  0.00    +0.000 C 
BRANCH  16  17
ATOM     17  N   UNL     1      43.465   6.266  11.000  0.00  0.00    +0.000 NA
ATOM     18  H   UNL     1      42.924   6.085  11.845  0.00  0.00    +0.000 HD
ATOM     19  H   UNL     1      43.601   5.366  10.545  0.00  0.00    +0.000 HD
ENDBRANCH  16  17
ENDBRANCH   4  16
TORSDOF 5
ENDMDL
MODEL 8
REMARK VINA RESULT:    -5.080      3.576      5.342
REMARK INTER + INTRA:          -6.907
REMARK INTER:                  -6.631
REMARK INTRA:                  -0.276
REMARK UNBOUND:                -0.491
REMARK  Name = 
REMARK  6 active torsions:
REMARK  status: ('A' for Active; 'I' for Inactive)
REMARK    1  A    between atoms: C_1  and  C_2
REMARK    2  A    between atoms: C_5  and  C_6
REMARK    3  A    between atoms: C_6  and  O_7
REMARK    4  A    between atoms: O_7  and  C_8
REMARK    5  A    between atoms: C_11  and  C_12
REMARK    6  A    between atoms: C_12  and  N_13
REMARK                            x       y       z     vdW  Elec       q    Type
REMARK                         _______ _______ _______ _____ _____    ______ ____
ROOT
ATOM      1  C   UNL     1      46.669   4.991  13.168  0.00  0.00    +0.000 A 
ATOM      2  C   UNL     1      46.513   5.988  12.206  0.00  0.00    +0.000 A 
ATOM      3  C   UNL     1      45.682   5.774  11.099  0.00  0.00    +0.000 A 
ATOM      4  C   UNL     1      44.997   4.561  10.940  0.00  0.00    +0.000 A 
ATOM      5  C   UNL     1      45.169   3.563  11.908  0.00  0.00    +0.000 A 
ATOM      6  C   UNL     1      45.997   3.779  13.010  0.00  0.00    +0.000 A 
ENDROOT
BRANCH   1   7
ATOM      7  O   UNL     1      47.432   5.074  14.299  0.00  0.00    +0.000 OA
BRANCH   7   8
ATOM      8  C   UNL     1      47.016   4.302  15.429  0.00  0.00    +0.000 C 
BRANCH   8  13
ATOM      9  C   UNL     1      50.960   4.877  19.603  0.00  0.00    +0.000 C 
ATOM     10  C   UNL     1      49.913   4.690  18.553  0.00  0.00    +0.000 A 
ATOM     11  C   UNL     1      48.871   3.778  18.710  0.00  0.00    +0.000 A 
ATOM     12  C   UNL     1      47.917   3.642  17.704  0.00  0.00    +0.000 A 
ATOM     13  C   UNL     1      48.014   4.434  16.562  0.00  0.00    +0.000 A 
ATOM     14  N   UNL     1      49.034   5.312  16.381  0.00  0.00    +0.000 NA
ATOM     15  C   UNL     1      49.947   5.422  17.373  0.00  0.00    +0.000 A 
ENDBRANCH   8  13
ENDBRANCH   7   8
ENDBRANCH   1   7
BRANCH   4  16
ATOM     16  C   UNL     1      44.062   4.344   9.777  0.00  0.00    +0.000 C 
BRANCH  16  17
ATOM     17  N   UNL     1      44.047   2.952   9.344  0.00  0.00    +0.000 NA
ATOM     18  H   UNL     1      44.116   2.924   8.328  0.00  0.00    +0.000 HD
ATOM     19  H   UNL     1      43.149   2.538   9.586  0.00  0.00    +0.000 HD
ENDBRANCH  16  17
ENDBRANCH   4  16
TORSDOF 5
ENDMDL
MODEL 9
REMARK VINA RESULT:    -5.036      3.860      8.161
REMARK INTER + INTRA:          -6.852
REMARK INTER:                  -6.579
REMARK INTRA:                  -0.273
REMARK UNBOUND:                -0.491
REMARK  Name = 
REMARK  6 active torsions:
REMARK  status: ('A' for Active; 'I' for Inactive)
REMARK    1  A    between atoms: C_1  and  C_2
REMARK    2  A    between atoms: C_5  and  C_6
REMARK    3  A    between atoms: C_6  and  O_7
REMARK    4  A    between atoms: O_7  and  C_8
REMARK    5  A    between atoms: C_11  and  C_12
REMARK    6  A    between atoms: C_12  and  N_13
REMARK                            x       y       z     vdW  Elec       q    Type
REMARK                         _______ _______ _______ _____ _____    ______ ____
ROOT
ATOM      1  C   UNL     1      47.546   3.973  16.291  0.00  0.00    +0.000 A 
ATOM      2  C   UNL     1      47.576   2.987  17.276  0.00  0.00    +0.000 A 
ATOM      3  C   UNL     1      48.231   3.225  18.490  0.00  0.00    +0.000 A 
ATOM      4  C   UNL     1      48.864   4.452  18.736  0.00  0.00    +0.000 A 
ATOM      5  C   UNL     1      48.836   5.431  17.736  0.00  0.00    +0.000 A 
ATOM      6  C   UNL     1      48.183   5.192  16.526  0.00  0.00    +0.000 A 
ENDROOT
BRANCH   1   7
ATOM      7  O   UNL     1      46.932   3.879  15.074  0.00  0.00    +0.000 OA
BRANCH   7   8
ATOM      8  C   UNL     1      46.755   5.090  14.333  0.00  0.00    +0.000 C 
BRANCH   8  13
ATOM      9  C   UNL     1      44.296   3.802   9.273  0.00  0.00    +0.000 C 
ATOM     10  C   UNL     1      44.944   4.187  10.564  0.00  0.00    +0.000 A 
ATOM     11  C   UNL     1      45.493   5.451  10.761  0.00  0.00    +0.000 A 
ATOM     12  C   UNL     1      46.084   5.763  11.983  0.00  0.00    +0.000 A 
ATOM     13  C   UNL     1      46.101   4.806  12.996  0.00  0.00    +0.000 A 
ATOM     14  N   UNL     1      45.589   3.561  12.816  0.00  0.00    +0.000 NA
ATOM     15  C   UNL     1      45.024   3.285  11.618  0.00  0.00    +0.000 A 
ENDBRANCH   8  13
ENDBRANCH   7   8
ENDBRANCH   1   7
BRANCH   4  16
ATOM     16  C   UNL     1      49.527   4.731  20.061  0.00  0.00    +0.000 C 
BRANCH  16  17
ATOM     17  N   UNL     1      48.723   5.618  20.894  0.00  0.00    +0.000 NA
ATOM     18  H   UNL     1      48.838   5.346  21.869  0.00  0.00    +0.000 HD
ATOM     19  H   UNL     1      47.739   5.484  20.669  0.00  0.00    +0.000 HD
ENDBRANCH  16  17
ENDBRANCH   4  16
TORSDOF 5
ENDMDL
