MODEL 1
REMARK VINA RESULT:    -7.197      0.000      0.000
REMARK INTER + INTRA:         -12.223
REMARK INTER:                 -10.773
REMARK INTRA:                  -1.450
REMARK UNBOUND:                -1.450
REMARK  Name = 
REMARK  11 active torsions:
REMARK  status: ('A' for Active; 'I' for Inactive)
REMARK    1  A    between atoms: C_1  and  O_2
REMARK    2  A    between atoms: O_2  and  C_3
REMARK    3  A    between atoms: C_10  and  C_11
REMARK    4  A    between atoms: N_13  and  C_14
REMARK    5  A    between atoms: C_14  and  C_15
REMARK    6  A    between atoms: C_18  and  N_19
REMARK    7  A    between atoms: N_19  and  C_20
REMARK    8  A    between atoms: C_20  and  C_21
REMARK    9  A    between atoms: C_25  and  C_26
REMARK   10  A    between atoms: C_29  and  C_30
REMARK   11  A    between atoms: C_30  and  O_31
REMARK                            x       y       z     vdW  Elec       q    Type
REMARK                         _______ _______ _______ _____ _____    ______ ____
ROOT
ATOM      1  C   UNL     1      48.229   7.257  14.548  0.00  0.00    +0.000 A 
ATOM      2  C   UNL     1      47.779   5.955  14.291  0.00  0.00    +0.000 A 
ATOM      3  C   UNL     1      47.038   5.661  13.132  0.00  0.00    +0.000 A 
ATOM      4  C   UNL     1      46.712   6.661  12.212  0.00  0.00    +0.000 A 
ATOM      5  C   UNL     1      47.234   7.942  12.444  0.00  0.00    +0.000 A 
ATOM      6  C   UNL     1      47.973   8.243  13.593  0.00  0.00    +0.000 A 
ENDROOT
BRANCH   4   7
ATOM      7  N   UNL     1      46.017   6.448  11.016  0.00  0.00    +0.000 N 
ATOM      8  H   UNL     1      45.979   7.310  10.481  0.00  0.00    +0.000 HD
BRANCH   7   9
ATOM      9  C   UNL     1      44.764   5.701  10.991  0.00  0.00    +0.000 C 
BRANCH   9  10
ATOM     10  C   UNL     1      44.667   4.765   9.759  0.00  0.00    +0.000 C 
ATOM     11  C   UNL     1      45.849   4.930   8.773  0.00  0.00    +0.000 C 
ATOM     12  C   UNL     1      45.717   4.011   7.557  0.00  0.00    +0.000 C 
ATOM     13  N   UNL     1      45.516   2.635   7.996  0.00  0.00    +0.000 N 
ATOM     14  C   UNL     1      46.411   1.583   7.893  0.00  0.00    +0.000 C 
ATOM     15  C   UNL     1      47.746   1.788   7.218  0.00  0.00    +0.000 C 
ATOM     16  O   UNL     1      46.153   0.469   8.358  0.00  0.00    +0.000 OA
ATOM     17  C   UNL     1      44.304   2.448   8.796  0.00  0.00    +0.000 C 
ATOM     18  C   UNL     1      44.375   3.270  10.100  0.00  0.00    +0.000 C 
BRANCH  18  19
ATOM     19  C   UNL     1      45.341   2.630  11.109  0.00  0.00    +0.000 C 
BRANCH  19  20
ATOM     20  O   UNL     1      44.759   2.605  12.411  0.00  0.00    +0.000 OA
ATOM     21  H   UNL     1      45.449   2.317  13.034  0.00  0.00    +0.000 HD
ENDBRANCH  19  20
ENDBRANCH  18  19
ENDBRANCH   9  10
ENDBRANCH   7   9
ENDBRANCH   4   7
BRANCH   1  22
ATOM     22  C   UNL     1      48.998   7.589  15.802  0.00  0.00    +0.000 C 
BRANCH  22  25
ATOM     23  C   UNL     1      50.438   6.403  17.405  0.00  0.00    +0.000 C 
ATOM     24  O   UNL     1      50.107   7.155  18.312  0.00  0.00    +0.000 OA
ATOM     25  N   UNL     1      49.942   6.553  16.138  0.00  0.00    +0.000 N 
ATOM     26  H   UNL     1      50.286   5.972  15.385  0.00  0.00    +0.000 HD
BRANCH  23  34
ATOM     27  C   UNL     1      50.190   2.979  17.062  0.00  0.00    +0.000 A 
ATOM     28  N   UNL     1      50.340   1.640  17.111  0.00  0.00    +0.000 NA
ATOM     29  C   UNL     1      51.499   1.148  17.552  0.00  0.00    +0.000 A 
ATOM     30  N   UNL     1      52.557   1.843  17.955  0.00  0.00    +0.000 NA
ATOM     31  C   UNL     1      52.363   3.172  17.910  0.00  0.00    +0.000 A 
ATOM     32  S   UNL     1      53.618   4.213  18.380  0.00  0.00    +0.000 S 
ATOM     33  C   UNL     1      52.658   5.584  18.085  0.00  0.00    +0.000 A 
ATOM     34  C   UNL     1      51.376   5.288  17.635  0.00  0.00    +0.000 A 
ATOM     35  C   UNL     1      51.213   3.841  17.498  0.00  0.00    +0.000 A 
BRANCH  27  37
ATOM     36  C   UNL     1      47.896   3.315  17.413  0.00  0.00    +0.000 C 
ATOM     37  O   UNL     1      49.015   3.483  16.542  0.00  0.00    +0.000 OA
ENDBRANCH  27  37
ENDBRANCH  23  34
ENDBRANCH  22  25
ENDBRANCH   1  22
TORSDOF 9
ENDMDL
MODEL 2
REMARK VINA RESULT:    -7.088      2.053      3.627
REMARK INTER + INTRA:         -12.060
REMARK INTER:                 -10.940
REMARK INTRA:                  -1.119
REMARK UNBOUND:                -1.450
REMARK  Name = 
REMARK  11 active torsions:
REMARK  status: ('A' for Active; 'I' for Inactive)
REMARK    1  A    between atoms: C_1  and  O_2
REMARK    2  A    between atoms: O_2  and  C_3
REMARK    3  A    between atoms: C_10  and  C_11
REMARK    4  A    between atoms: N_13  and  C_14
REMARK    5  A    between atoms: C_14  and  C_15
REMARK    6  A    between atoms: C_18  and  N_19
REMARK    7  A    between atoms: N_19  and  C_20
REMARK    8  A    between atoms: C_20  and  C_21
REMARK    9  A    between atoms: C_25  and  C_26
REMARK   10  A    between atoms: C_29  and  C_30
REMARK   11  A    between atoms: C_30  and  O_31
REMARK                            x       y       z     vdW  Elec       q    Type
REMARK                         _______ _______ _______ _____ _____    ______ ____
ROOT
ATOM      1  C   UNL     1      48.117   4.358  16.744  0.00  0.00    +0.000 A 
ATOM      2  C   UNL     1      48.642   5.651  16.621  0.00  0.00    +0.000 A 
ATOM      3  C   UNL     1      48.436   6.408  15.453  0.00  0.00    +0.000 A 
ATOM      4  C   UNL     1      47.718   5.886  14.373  0.00  0.00    +0.000 A 
ATOM      5  C   UNL     1      47.135   4.621  14.541  0.00  0.00    +0.000 A 
ATOM      6  C   UNL     1      47.334   3.863  15.699  0.00  0.00    +0.000 A 
ENDROOT
BRANCH   4   7
ATOM      7  N   UNL     1      47.431   6.584  13.195  0.00  0.00    +0.000 N 
ATOM      8  H   UNL     1      48.222   7.167  12.938  0.00  0.00    +0.000 HD
BRANCH   7   9
ATOM      9  C   UNL     1      46.144   7.243  12.999  0.00  0.00    +0.000 C 
BRANCH   9  10
ATOM     10  C   UNL     1      45.341   6.622  11.828  0.00  0.00    +0.000 C 
ATOM     11  C   UNL     1      46.237   5.908  10.786  0.00  0.00    +0.000 C 
ATOM     12  C   UNL     1      45.421   5.323   9.631  0.00  0.00    +0.000 C 
ATOM     13  N   UNL     1      44.355   4.479  10.155  0.00  0.00    +0.000 N 
ATOM     14  C   UNL     1      44.263   3.098  10.075  0.00  0.00    +0.000 C 
ATOM     15  C   UNL     1      45.317   2.311   9.335  0.00  0.00    +0.000 C 
ATOM     16  O   UNL     1      43.338   2.482  10.614  0.00  0.00    +0.000 OA
ATOM     17  C   UNL     1      43.410   5.196  11.014  0.00  0.00    +0.000 C 
ATOM     18  C   UNL     1      44.121   5.754  12.266  0.00  0.00    +0.000 C 
BRANCH  18  19
ATOM     19  C   UNL     1      44.442   4.635  13.269  0.00  0.00    +0.000 C 
BRANCH  19  20
ATOM     20  O   UNL     1      43.350   3.723  13.366  0.00  0.00    +0.000 OA
ATOM     21  H   UNL     1      43.250   3.486  14.304  0.00  0.00    +0.000 HD
ENDBRANCH  19  20
ENDBRANCH  18  19
ENDBRANCH   9  10
ENDBRANCH   7   9
ENDBRANCH   4   7
BRANCH   1  22
ATOM     22  C   UNL     1      48.358   3.526  17.979  0.00  0.00    +0.000 C 
BRANCH  22  25
ATOM     23  C   UNL     1      50.410   2.335  17.330  0.00  0.00    +0.000 C 
ATOM     24  O   UNL     1      49.829   1.760  16.418  0.00  0.00    +0.000 OA
ATOM     25  N   UNL     1      49.755   3.216  18.148  0.00  0.00    +0.000 N 
ATOM     26  H   UNL     1      50.231   3.621  18.944  0.00  0.00    +0.000 HD
BRANCH  23  34
ATOM     27  C   UNL     1      53.093   4.461  17.755  0.00  0.00    +0.000 A 
ATOM     28  N   UNL     1      54.308   5.039  17.858  0.00  0.00    +0.000 NA
ATOM     29  C   UNL     1      55.377   4.251  17.972  0.00  0.00    +0.000 A 
ATOM     30  N   UNL     1      55.389   2.923  18.004  0.00  0.00    +0.000 NA
ATOM     31  C   UNL     1      54.164   2.383  17.880  0.00  0.00    +0.000 A 
ATOM     32  S   UNL     1      53.992   0.695  17.911  0.00  0.00    +0.000 S 
ATOM     33  C   UNL     1      52.311   0.813  17.691  0.00  0.00    +0.000 A 
ATOM     34  C   UNL     1      51.847   2.120  17.584  0.00  0.00    +0.000 A 
ATOM     35  C   UNL     1      52.957   3.060  17.731  0.00  0.00    +0.000 A 
BRANCH  27  37
ATOM     36  C   UNL     1      52.064   6.272  16.679  0.00  0.00    +0.000 C 
ATOM     37  O   UNL     1      51.985   5.281  17.704  0.00  0.00    +0.000 OA
ENDBRANCH  27  37
ENDBRANCH  23  34
ENDBRANCH  22  25
ENDBRANCH   1  22
TORSDOF 9
ENDMDL
MODEL 3
REMARK VINA RESULT:    -6.980      2.179      2.407
REMARK INTER + INTRA:         -11.899
REMARK INTER:                 -10.282
REMARK INTRA:                  -1.617
REMARK UNBOUND:                -1.450
REMARK  Name = 
REMARK  11 active torsions:
REMARK  status: ('A' for Active; 'I' for Inactive)
REMARK    1  A    between atoms: C_1  and  O_2
REMARK    2  A    between atoms: O_2  and  C_3
REMARK    3  A    between atoms: C_10  and  C_11
REMARK    4  A    between atoms: N_13  and  C_14
REMARK    5  A    between atoms: C_14  and  C_15
REMARK    6  A    between atoms: C_18  and  N_19
REMARK    7  A    between atoms: N_19  and  C_20
REMARK    8  A    between atoms: C_20  and  C_21
REMARK    9  A    between atoms: C_25  and  C_26
REMARK   10  A    between atoms: C_29  and  C_30
REMARK   11  A    between atoms: C_30  and  O_31
REMARK                            x       y       z     vdW  Elec       q    Type
REMARK                         _______ _______ _______ _____ _____    ______ ____
ROOT
ATOM      1  C   UNL     1      47.926   8.336  13.296  0.00  0.00    +0.000 A 
ATOM      2  C   UNL     1      48.165   7.191  12.524  0.00  0.00    +0.000 A 
ATOM      3  C   UNL     1      47.155   6.643  11.711  0.00  0.00    +0.000 A 
ATOM      4  C   UNL     1      45.880   7.212  11.663  0.00  0.00    +0.000 A 
ATOM      5  C   UNL     1      45.679   8.400  12.381  0.00  0.00    +0.000 A 
ATOM      6  C   UNL     1      46.677   8.952  13.191  0.00  0.00    +0.000 A 
ENDROOT
BRANCH   4   7
ATOM      7  N   UNL     1      44.835   6.758  10.851  0.00  0.00    +0.000 N 
ATOM      8  H   UNL     1      44.179   7.514  10.677  0.00  0.00    +0.000 HD
BRANCH   7   9
ATOM      9  C   UNL     1      44.180   5.479  11.104  0.00  0.00    +0.000 C 
BRANCH   9  10
ATOM     10  C   UNL     1      44.214   4.550   9.863  0.00  0.00    +0.000 C 
ATOM     11  C   UNL     1      45.322   4.928   8.849  0.00  0.00    +0.000 C 
ATOM     12  C   UNL     1      45.319   4.010   7.626  0.00  0.00    +0.000 C 
ATOM     13  N   UNL     1      45.373   2.616   8.052  0.00  0.00    +0.000 N 
ATOM     14  C   UNL     1      46.435   1.738   7.912  0.00  0.00    +0.000 C 
ATOM     15  C   UNL     1      47.695   2.179   7.206  0.00  0.00    +0.000 C 
ATOM     16  O   UNL     1      46.388   0.592   8.370  0.00  0.00    +0.000 OA
ATOM     17  C   UNL     1      44.235   2.214   8.880  0.00  0.00    +0.000 C 
ATOM     18  C   UNL     1      44.197   3.025  10.193  0.00  0.00    +0.000 C 
BRANCH  18  19
ATOM     19  C   UNL     1      45.288   2.556  11.168  0.00  0.00    +0.000 C 
BRANCH  19  20
ATOM     20  O   UNL     1      44.787   2.532  12.503  0.00  0.00    +0.000 OA
ATOM     21  H   UNL     1      43.822   2.425  12.451  0.00  0.00    +0.000 HD
ENDBRANCH  19  20
ENDBRANCH  18  19
ENDBRANCH   9  10
ENDBRANCH   7   9
ENDBRANCH   4   7
BRANCH   1  22
ATOM     22  C   UNL     1      48.990   8.913  14.194  0.00  0.00    +0.000 C 
BRANCH  22  25
ATOM     23  C   UNL     1      48.596   8.380  16.563  0.00  0.00    +0.000 C 
ATOM     24  O   UNL     1      47.858   9.349  16.694  0.00  0.00    +0.000 OA
ATOM     25  N   UNL     1      49.197   8.100  15.366  0.00  0.00    +0.000 N 
ATOM     26  H   UNL     1      49.865   7.343  15.297  0.00  0.00    +0.000 HD
BRANCH  23  34
ATOM     27  C   UNL     1      48.430   4.953  16.913  0.00  0.00    +0.000 A 
ATOM     28  N   UNL     1      48.362   3.678  17.351  0.00  0.00    +0.000 NA
ATOM     29  C   UNL     1      48.640   3.433  18.631  0.00  0.00    +0.000 A 
ATOM     30  N   UNL     1      48.994   4.321  19.554  0.00  0.00    +0.000 NA
ATOM     31  C   UNL     1      49.033   5.580  19.086  0.00  0.00    +0.000 A 
ATOM     32  S   UNL     1      49.477   6.842  20.130  0.00  0.00    +0.000 S 
ATOM     33  C   UNL     1      49.273   7.997  18.899  0.00  0.00    +0.000 A 
ATOM     34  C   UNL     1      48.862   7.459  17.684  0.00  0.00    +0.000 A 
ATOM     35  C   UNL     1      48.751   6.005  17.790  0.00  0.00    +0.000 A 
BRANCH  27  37
ATOM     36  C   UNL     1      47.049   4.528  15.067  0.00  0.00    +0.000 C 
ATOM     37  O   UNL     1      48.207   5.192  15.572  0.00  0.00    +0.000 OA
ENDBRANCH  27  37
ENDBRANCH  23  34
ENDBRANCH  22  25
ENDBRANCH   1  22
TORSDOF 9
ENDMDL
MODEL 4
REMARK VINA RESULT:    -6.720      2.152      3.119
REMARK INTER + INTRA:         -11.510
REMARK INTER:                  -9.717
REMARK INTRA:                  -1.792
REMARK UNBOUND:                -1.450
REMARK  Name = 
REMARK  11 active torsions:
REMARK  status: ('A' for Active; 'I' for Inactive)
REMARK    1  A    between atoms: C_1  and  O_2
REMARK    2  A    between atoms: O_2  and  C_3
REMARK    3  A    between atoms: C_10  and  C_11
REMARK    4  A    between atoms: N_13  and  C_14
REMARK    5  A    between atoms: C_14  and  C_15
REMARK    6  A    between atoms: C_18  and  N_19
REMARK    7  A    between atoms: N_19  and  C_20
REMARK    8  A    between atoms: C_20  and  C_21
REMARK    9  A    between atoms: C_25  and  C_26
REMARK   10  A    between atoms: C_29  and  C_30
REMARK   11  A    between atoms: C_30  and  O_31
REMARK                            x       y       z     vdW  Elec       q    Type
REMARK                         _______ _______ _______ _____ _____    ______ ____
ROOT
ATOM      1  C   UNL     1      49.593   7.542  16.948  0.00  0.00    +0.000 A 
ATOM      2  C   UNL     1      50.171   6.934  15.826  0.00  0.00    +0.000 A 
ATOM      3  C   UNL     1      49.680   7.188  14.532  0.00  0.00    +0.000 A 
ATOM      4  C   UNL     1      48.590   8.039  14.329  0.00  0.00    +0.000 A 
ATOM      5  C   UNL     1      48.072   8.698  15.453  0.00  0.00    +0.000 A 
ATOM      6  C   UNL     1      48.555   8.453  16.743  0.00  0.00    +0.000 A 
ENDROOT
BRANCH   4   7
ATOM      7  N   UNL     1      48.067   8.379  13.077  0.00  0.00    +0.000 N 
ATOM      8  H   UNL     1      47.263   8.989  13.192  0.00  0.00    +0.000 HD
BRANCH   7   9
ATOM      9  C   UNL     1      47.879   7.374  12.035  0.00  0.00    +0.000 C 
BRANCH   9  10
ATOM     10  C   UNL     1      46.422   6.846  11.990  0.00  0.00    +0.000 C 
ATOM     11  C   UNL     1      46.060   6.171  10.645  0.00  0.00    +0.000 C 
ATOM     12  C   UNL     1      44.612   5.679  10.620  0.00  0.00    +0.000 C 
ATOM     13  N   UNL     1      44.355   4.834  11.781  0.00  0.00    +0.000 N 
ATOM     14  C   UNL     1      44.147   3.464  11.791  0.00  0.00    +0.000 C 
ATOM     15  C   UNL     1      44.117   2.694  10.493  0.00  0.00    +0.000 C 
ATOM     16  O   UNL     1      44.000   2.843  12.848  0.00  0.00    +0.000 OA
ATOM     17  C   UNL     1      44.541   5.525  13.058  0.00  0.00    +0.000 C 
ATOM     18  C   UNL     1      46.004   5.988  13.224  0.00  0.00    +0.000 C 
BRANCH  18  19
ATOM     19  C   UNL     1      46.930   4.802  13.539  0.00  0.00    +0.000 C 
BRANCH  19  20
ATOM     20  O   UNL     1      46.329   3.942  14.504  0.00  0.00    +0.000 OA
ATOM     21  H   UNL     1      45.383   3.876  14.289  0.00  0.00    +0.000 HD
ENDBRANCH  19  20
ENDBRANCH  18  19
ENDBRANCH   9  10
ENDBRANCH   7   9
ENDBRANCH   4   7
BRANCH   1  22
ATOM     22  C   UNL     1      50.091   7.253  18.342  0.00  0.00    +0.000 C 
BRANCH  22  25
ATOM     23  C   UNL     1      52.178   5.956  18.459  0.00  0.00    +0.000 C 
ATOM     24  O   UNL     1      52.854   6.978  18.449  0.00  0.00    +0.000 OA
ATOM     25  N   UNL     1      50.812   6.007  18.402  0.00  0.00    +0.000 N 
ATOM     26  H   UNL     1      50.274   5.152  18.332  0.00  0.00    +0.000 HD
BRANCH  23  34
ATOM     27  C   UNL     1      51.187   2.801  17.481  0.00  0.00    +0.000 A 
ATOM     28  N   UNL     1      51.018   1.475  17.296  0.00  0.00    +0.000 NA
ATOM     29  C   UNL     1      51.975   0.649  17.720  0.00  0.00    +0.000 A 
ATOM     30  N   UNL     1      53.113   0.987  18.317  0.00  0.00    +0.000 NA
ATOM     31  C   UNL     1      53.238   2.313  18.500  0.00  0.00    +0.000 A 
ATOM     32  S   UNL     1      54.638   2.923  19.240  0.00  0.00    +0.000 S 
ATOM     33  C   UNL     1      54.059   4.518  19.133  0.00  0.00    +0.000 A 
ATOM     34  C   UNL     1      52.802   4.623  18.547  0.00  0.00    +0.000 A 
ATOM     35  C   UNL     1      52.326   3.302  18.138  0.00  0.00    +0.000 A 
BRANCH  27  37
ATOM     36  C   UNL     1      48.898   3.147  17.112  0.00  0.00    +0.000 C 
ATOM     37  O   UNL     1      50.226   3.654  16.981  0.00  0.00    +0.000 OA
ENDBRANCH  27  37
ENDBRANCH  23  34
ENDBRANCH  22  25
ENDBRANCH   1  22
TORSDOF 9
ENDMDL
MODEL 5
REMARK VINA RESULT:    -6.471      5.899      7.511
REMARK INTER + INTRA:         -11.137
REMARK INTER:                  -9.667
REMARK INTRA:                  -1.470
REMARK UNBOUND:                -1.450
REMARK  Name = 
REMARK  11 active torsions:
REMARK  status: ('A' for Active; 'I' for Inactive)
REMARK    1  A    between atoms: C_1  and  O_2
REMARK    2  A    between atoms: O_2  and  C_3
REMARK    3  A    between atoms: C_10  and  C_11
REMARK    4  A    between atoms: N_13  and  C_14
REMARK    5  A    between atoms: C_14  and  C_15
REMARK    6  A    between atoms: C_18  and  N_19
REMARK    7  A    between atoms: N_19  and  C_20
REMARK    8  A    between atoms: C_20  and  C_21
REMARK    9  A    between atoms: C_25  and  C_26
REMARK   10  A    between atoms: C_29  and  C_30
REMARK   11  A    between atoms: C_30  and  O_31
REMARK                            x       y       z     vdW  Elec       q    Type
REMARK                         _______ _______ _______ _____ _____    ______ ____
ROOT
ATOM      1  C   UNL     1      50.686   9.066  11.270  0.00  0.00    +0.000 A 
ATOM      2  C   UNL     1      50.210   7.778  11.547  0.00  0.00    +0.000 A 
ATOM      3  C   UNL     1      48.880   7.572  11.958  0.00  0.00    +0.000 A 
ATOM      4  C   UNL     1      48.000   8.645  12.122  0.00  0.00    +0.000 A 
ATOM      5  C   UNL     1      48.469   9.919  11.768  0.00  0.00    +0.000 A 
ATOM      6  C   UNL     1      49.789  10.133  11.357  0.00  0.00    +0.000 A 
ENDROOT
BRANCH   4   7
ATOM      7  N   UNL     1      46.655   8.525  12.485  0.00  0.00    +0.000 N 
ATOM      8  H   UNL     1      46.390   9.298  13.089  0.00  0.00    +0.000 HD
BRANCH   7   9
ATOM      9  C   UNL     1      46.096   7.246  12.912  0.00  0.00    +0.000 C 
BRANCH   9  10
ATOM     10  C   UNL     1      45.227   6.591  11.808  0.00  0.00    +0.000 C 
ATOM     11  C   UNL     1      46.062   5.911  10.696  0.00  0.00    +0.000 C 
ATOM     12  C   UNL     1      45.180   5.293   9.611  0.00  0.00    +0.000 C 
ATOM     13  N   UNL     1      44.192   4.408  10.218  0.00  0.00    +0.000 N 
ATOM     14  C   UNL     1      44.148   3.025  10.144  0.00  0.00    +0.000 C 
ATOM     15  C   UNL     1      45.168   2.278   9.321  0.00  0.00    +0.000 C 
ATOM     16  O   UNL     1      43.294   2.375  10.755  0.00  0.00    +0.000 OA
ATOM     17  C   UNL     1      43.293   5.090  11.151  0.00  0.00    +0.000 C 
ATOM     18  C   UNL     1      44.080   5.678  12.342  0.00  0.00    +0.000 C 
BRANCH  18  19
ATOM     19  C   UNL     1      44.523   4.574  13.314  0.00  0.00    +0.000 C 
BRANCH  19  20
ATOM     20  O   UNL     1      43.514   3.574  13.429  0.00  0.00    +0.000 OA
ATOM     21  H   UNL     1      42.675   4.027  13.628  0.00  0.00    +0.000 HD
ENDBRANCH  19  20
ENDBRANCH  18  19
ENDBRANCH   9  10
ENDBRANCH   7   9
ENDBRANCH   4   7
BRANCH   1  22
ATOM     22  C   UNL     1      52.117   9.303  10.858  0.00  0.00    +0.000 C 
BRANCH  22  25
ATOM     23  C   UNL     1      53.516   9.020   8.855  0.00  0.00    +0.000 C 
ATOM     24  O   UNL     1      54.290   9.892   9.230  0.00  0.00    +0.000 OA
ATOM     25  N   UNL     1      52.419   8.676   9.597  0.00  0.00    +0.000 N 
ATOM     26  H   UNL     1      51.749   8.010   9.234  0.00  0.00    +0.000 HD
BRANCH  23  34
ATOM     27  C   UNL     1      53.594   5.671   8.034  0.00  0.00    +0.000 A 
ATOM     28  N   UNL     1      53.771   4.462   7.461  0.00  0.00    +0.000 NA
ATOM     29  C   UNL     1      54.099   4.415   6.170  0.00  0.00    +0.000 A 
ATOM     30  N   UNL     1      54.271   5.449   5.353  0.00  0.00    +0.000 NA
ATOM     31  C   UNL     1      54.105   6.635   5.963  0.00  0.00    +0.000 A 
ATOM     32  S   UNL     1      54.277   8.064   5.064  0.00  0.00    +0.000 S 
ATOM     33  C   UNL     1      53.968   9.022   6.435  0.00  0.00    +0.000 A 
ATOM     34  C   UNL     1      53.736   8.288   7.594  0.00  0.00    +0.000 A 
ATOM     35  C   UNL     1      53.786   6.856   7.301  0.00  0.00    +0.000 A 
BRANCH  27  37
ATOM     36  C   UNL     1      54.263   5.529  10.277  0.00  0.00    +0.000 C 
ATOM     37  O   UNL     1      53.190   5.713   9.353  0.00  0.00    +0.000 OA
ENDBRANCH  27  37
ENDBRANCH  23  34
ENDBRANCH  22  25
ENDBRANCH   1  22
TORSDOF 9
ENDMDL
MODEL 6
REMARK VINA RESULT:    -6.353      5.729      7.555
REMARK INTER + INTRA:         -10.959
REMARK INTER:                  -9.437
REMARK INTRA:                  -1.523
REMARK UNBOUND:                -1.450
REMARK  Name = 
REMARK  11 active torsions:
REMARK  status: ('A' for Active; 'I' for Inactive)
REMARK    1  A    between atoms: C_1  and  O_2
REMARK    2  A    between atoms: O_2  and  C_3
REMARK    3  A    between atoms: C_10  and  C_11
REMARK    4  A    between atoms: N_13  and  C_14
REMARK    5  A    between atoms: C_14  and  C_15
REMARK    6  A    between atoms: C_18  and  N_19
REMARK    7  A    between atoms: N_19  and  C_20
REMARK    8  A    between atoms: C_20  and  C_21
REMARK    9  A    between atoms: C_25  and  C_26
REMARK   10  A    between atoms: C_29  and  C_30
REMARK   11  A    between atoms: C_30  and  O_31
REMARK                            x       y       z     vdW  Elec       q    Type
REMARK                         _______ _______ _______ _____ _____    ______ ____
ROOT
ATOM      1  C   UNL     1      50.080   8.877  11.748  0.00  0.00    +0.000 A 
ATOM      2  C   UNL     1      49.791   7.583  12.202  0.00  0.00    +0.000 A 
ATOM      3  C   UNL     1      48.479   7.215  12.552  0.00  0.00    +0.000 A 
ATOM      4  C   UNL     1      47.428   8.132  12.474  0.00  0.00    +0.000 A 
ATOM      5  C   UNL     1      47.718   9.399  11.945  0.00  0.00    +0.000 A 
ATOM      6  C   UNL     1      49.020   9.773  11.595  0.00  0.00    +0.000 A 
ENDROOT
BRANCH   4   7
ATOM      7  N   UNL     1      46.090   7.838  12.760  0.00  0.00    +0.000 N 
ATOM      8  H   UNL     1      45.750   8.455  13.491  0.00  0.00    +0.000 HD
BRANCH   7   9
ATOM      9  C   UNL     1      45.633   6.460  12.913  0.00  0.00    +0.000 C 
BRANCH   9  10
ATOM     10  C   UNL     1      44.978   5.915  11.619  0.00  0.00    +0.000 C 
ATOM     11  C   UNL     1      45.994   5.667  10.478  0.00  0.00    +0.000 C 
ATOM     12  C   UNL     1      45.318   5.151   9.207  0.00  0.00    +0.000 C 
ATOM     13  N   UNL     1      44.500   3.984   9.519  0.00  0.00    +0.000 N 
ATOM     14  C   UNL     1      44.743   2.669   9.157  0.00  0.00    +0.000 C 
ATOM     15  C   UNL     1      45.939   2.328   8.301  0.00  0.00    +0.000 C 
ATOM     16  O   UNL     1      44.008   1.751   9.534  0.00  0.00    +0.000 OA
ATOM     17  C   UNL     1      43.431   4.261  10.480  0.00  0.00    +0.000 C 
ATOM     18  C   UNL     1      44.014   4.708  11.838  0.00  0.00    +0.000 C 
BRANCH  18  19
ATOM     19  C   UNL     1      44.620   3.519  12.600  0.00  0.00    +0.000 C 
BRANCH  19  20
ATOM     20  O   UNL     1      43.752   2.390  12.536  0.00  0.00    +0.000 OA
ATOM     21  H   UNL     1      43.809   1.928  13.390  0.00  0.00    +0.000 HD
ENDBRANCH  19  20
ENDBRANCH  18  19
ENDBRANCH   9  10
ENDBRANCH   7   9
ENDBRANCH   4   7
BRANCH   1  22
ATOM     22  C   UNL     1      51.487   9.292  11.400  0.00  0.00    +0.000 C 
BRANCH  22  25
ATOM     23  C   UNL     1      52.989   7.765  10.190  0.00  0.00    +0.000 C 
ATOM     24  O   UNL     1      53.586   7.480  11.221  0.00  0.00    +0.000 OA
ATOM     25  N   UNL     1      51.948   8.654  10.193  0.00  0.00    +0.000 N 
ATOM     26  H   UNL     1      51.518   8.937   9.322  0.00  0.00    +0.000 HD
BRANCH  23  34
ATOM     27  C   UNL     1      53.373   9.012   6.998  0.00  0.00    +0.000 A 
ATOM     28  N   UNL     1      53.496   9.204   5.668  0.00  0.00    +0.000 NA
ATOM     29  C   UNL     1      53.752   8.147   4.896  0.00  0.00    +0.000 A 
ATOM     30  N   UNL     1      53.912   6.890   5.295  0.00  0.00    +0.000 NA
ATOM     31  C   UNL     1      53.765   6.735   6.622  0.00  0.00    +0.000 A 
ATOM     32  S   UNL     1      53.947   5.193   7.305  0.00  0.00    +0.000 S 
ATOM     33  C   UNL     1      53.612   5.789   8.861  0.00  0.00    +0.000 A 
ATOM     34  C   UNL     1      53.351   7.154   8.897  0.00  0.00    +0.000 A 
ATOM     35  C   UNL     1      53.476   7.726   7.557  0.00  0.00    +0.000 A 
BRANCH  27  37
ATOM     36  C   UNL     1      53.878  11.275   7.345  0.00  0.00    +0.000 C 
ATOM     37  O   UNL     1      53.175  10.118   7.798  0.00  0.00    +0.000 OA
ENDBRANCH  27  37
ENDBRANCH  23  34
ENDBRANCH  22  25
ENDBRANCH   1  22
TORSDOF 9
ENDMDL
MODEL 7
REMARK VINA RESULT:    -6.341      4.038      9.241
REMARK INTER + INTRA:         -10.942
REMARK INTER:                  -8.586
REMARK INTRA:                  -2.357
REMARK UNBOUND:                -1.450
REMARK  Name = 
REMARK  11 active torsions:
REMARK  status: ('A' for Active; 'I' for Inactive)
REMARK    1  A    between atoms: C_1  and  O_2
REMARK    2  A    between atoms: O_2  and  C_3
REMARK    3  A    between atoms: C_10  and  C_11
REMARK    4  A    between atoms: N_13  and  C_14
REMARK    5  A    between atoms: C_14  and  C_15
REMARK    6  A    between atoms: C_18  and  N_19
REMARK    7  A    between atoms: N_19  and  C_20
REMARK    8  A    between atoms: C_20  and  C_21
REMARK    9  A    between atoms: C_25  and  C_26
REMARK   10  A    between atoms: C_29  and  C_30
REMARK   11  A    between atoms: C_30  and  O_31
REMARK                            x       y       z     vdW  Elec       q    Type
REMARK                         _______ _______ _______ _____ _____    ______ ____
ROOT
ATOM      1  C   UNL     1      48.052   4.799  17.402  0.00  0.00    +0.000 A 
ATOM      2  C   UNL     1      47.373   5.366  18.490  0.00  0.00    +0.000 A 
ATOM      3  C   UNL     1      48.018   6.272  19.352  0.00  0.00    +0.000 A 
ATOM      4  C   UNL     1      49.358   6.619  19.162  0.00  0.00    +0.000 A 
ATOM      5  C   UNL     1      50.000   6.104  18.026  0.00  0.00    +0.000 A 
ATOM      6  C   UNL     1      49.367   5.204  17.163  0.00  0.00    +0.000 A 
ENDROOT
BRANCH   4   7
ATOM      7  N   UNL     1      50.061   7.542  19.944  0.00  0.00    +0.000 N 
ATOM      8  H   UNL     1      50.340   7.110  20.820  0.00  0.00    +0.000 HD
BRANCH   7   9
ATOM      9  C   UNL     1      49.590   8.913  20.105  0.00  0.00    +0.000 C 
BRANCH   9  10
ATOM     10  C   UNL     1      50.109   9.845  18.980  0.00  0.00    +0.000 C 
ATOM     11  C   UNL     1      51.405   9.329  18.310  0.00  0.00    +0.000 C 
ATOM     12  C   UNL     1      51.906  10.278  17.220  0.00  0.00    +0.000 C 
ATOM     13  N   UNL     1      50.833  10.554  16.272  0.00  0.00    +0.000 N 
ATOM     14  C   UNL     1      50.742  10.121  14.959  0.00  0.00    +0.000 C 
ATOM     15  C   UNL     1      51.861   9.310  14.350  0.00  0.00    +0.000 C 
ATOM     16  O   UNL     1      49.750  10.367  14.266  0.00  0.00    +0.000 OA
ATOM     17  C   UNL     1      49.666  11.195  16.881  0.00  0.00    +0.000 C 
ATOM     18  C   UNL     1      49.026  10.275  17.942  0.00  0.00    +0.000 C 
BRANCH  18  19
ATOM     19  C   UNL     1      48.257   9.118  17.285  0.00  0.00    +0.000 C 
BRANCH  19  20
ATOM     20  O   UNL     1      47.540   9.581  16.142  0.00  0.00    +0.000 OA
ATOM     21  H   UNL     1      47.437  10.544  16.232  0.00  0.00    +0.000 HD
ENDBRANCH  19  20
ENDBRANCH  18  19
ENDBRANCH   9  10
ENDBRANCH   7   9
ENDBRANCH   4   7
BRANCH   1  22
ATOM     22  C   UNL     1      47.380   3.804  16.490  0.00  0.00    +0.000 C 
BRANCH  22  25
ATOM     23  C   UNL     1      46.761   4.091  14.126  0.00  0.00    +0.000 C 
ATOM     24  O   UNL     1      47.515   3.190  13.783  0.00  0.00    +0.000 OA
ATOM     25  N   UNL     1      46.642   4.458  15.440  0.00  0.00    +0.000 N 
ATOM     26  H   UNL     1      46.073   5.256  15.695  0.00  0.00    +0.000 HD
BRANCH  23  34
ATOM     27  C   UNL     1      46.519   7.407  13.206  0.00  0.00    +0.000 A 
ATOM     28  N   UNL     1      46.154   8.615  12.729  0.00  0.00    +0.000 NA
ATOM     29  C   UNL     1      45.161   8.671  11.841  0.00  0.00    +0.000 A 
ATOM     30  N   UNL     1      44.471   7.646  11.351  0.00  0.00    +0.000 NA
ATOM     31  C   UNL     1      44.850   6.463  11.864  0.00  0.00    +0.000 A 
ATOM     32  S   UNL     1      44.080   5.045  11.340  0.00  0.00    +0.000 S 
ATOM     33  C   UNL     1      45.025   4.089  12.381  0.00  0.00    +0.000 A 
ATOM     34  C   UNL     1      45.932   4.816  13.145  0.00  0.00    +0.000 A 
ATOM     35  C   UNL     1      45.847   6.236  12.809  0.00  0.00    +0.000 A 
BRANCH  27  37
ATOM     36  C   UNL     1      48.833   7.096  13.417  0.00  0.00    +0.000 C 
ATOM     37  O   UNL     1      47.591   7.347  14.073  0.00  0.00    +0.000 OA
ENDBRANCH  27  37
ENDBRANCH  23  34
ENDBRANCH  22  25
ENDBRANCH   1  22
TORSDOF 9
ENDMDL
MODEL 8
REMARK VINA RESULT:    -6.151      1.851      2.359
REMARK INTER + INTRA:         -10.658
REMARK INTER:                  -9.526
REMARK INTRA:                  -1.131
REMARK UNBOUND:                -1.450
REMARK  Name = 
REMARK  11 active torsions:
REMARK  status: ('A' for Active; 'I' for Inactive)
REMARK    1  A    between atoms: C_1  and  O_2
REMARK    2  A    between atoms: O_2  and  C_3
REMARK    3  A    between atoms: C_10  and  C_11
REMARK    4  A    between atoms: N_13  and  C_14
REMARK    5  A    between atoms: C_14  and  C_15
REMARK    6  A    between atoms: C_18  and  N_19
REMARK    7  A    between atoms: N_19  and  C_20
REMARK    8  A    between atoms: C_20  and  C_21
REMARK    9  A    between atoms: C_25  and  C_26
REMARK   10  A    between atoms: C_29  and  C_30
REMARK   11  A    between atoms: C_30  and  O_31
REMARK                            x       y       z     vdW  Elec       q    Type
REMARK                         _______ _______ _______ _____ _____    ______ ____
ROOT
ATOM      1  C   UNL     1      48.845   8.198  12.957  0.00  0.00    +0.000 A 
ATOM      2  C   UNL     1      47.882   8.846  13.743  0.00  0.00    +0.000 A 
ATOM      3  C   UNL     1      46.518   8.523  13.628  0.00  0.00    +0.000 A 
ATOM      4  C   UNL     1      46.079   7.560  12.715  0.00  0.00    +0.000 A 
ATOM      5  C   UNL     1      47.060   6.867  11.991  0.00  0.00    +0.000 A 
ATOM      6  C   UNL     1      48.419   7.181  12.100  0.00  0.00    +0.000 A 
ENDROOT
BRANCH   4   7
ATOM      7  N   UNL     1      44.750   7.149  12.567  0.00  0.00    +0.000 N 
ATOM      8  H   UNL     1      44.123   7.895  12.855  0.00  0.00    +0.000 HD
BRANCH   7   9
ATOM      9  C   UNL     1      44.311   5.829  13.010  0.00  0.00    +0.000 C 
BRANCH   9  10
ATOM     10  C   UNL     1      43.914   4.917  11.821  0.00  0.00    +0.000 C 
ATOM     11  C   UNL     1      44.283   5.517  10.442  0.00  0.00    +0.000 C 
ATOM     12  C   UNL     1      43.860   4.606   9.288  0.00  0.00    +0.000 C 
ATOM     13  N   UNL     1      44.389   3.264   9.496  0.00  0.00    +0.000 N 
ATOM     14  C   UNL     1      45.395   2.638   8.777  0.00  0.00    +0.000 C 
ATOM     15  C   UNL     1      46.031   3.337   7.600  0.00  0.00    +0.000 C 
ATOM     16  O   UNL     1      45.805   1.515   9.087  0.00  0.00    +0.000 OA
ATOM     17  C   UNL     1      43.909   2.631  10.726  0.00  0.00    +0.000 C 
ATOM     18  C   UNL     1      44.361   3.429  11.967  0.00  0.00    +0.000 C 
BRANCH  18  19
ATOM     19  C   UNL     1      45.858   3.221  12.247  0.00  0.00    +0.000 C 
BRANCH  19  20
ATOM     20  O   UNL     1      46.169   3.577  13.591  0.00  0.00    +0.000 OA
ATOM     21  H   UNL     1      45.337   3.837  14.025  0.00  0.00    +0.000 HD
ENDBRANCH  19  20
ENDBRANCH  18  19
ENDBRANCH   9  10
ENDBRANCH   7   9
ENDBRANCH   4   7
BRANCH   1  22
ATOM     22  C   UNL     1      50.306   8.558  13.049  0.00  0.00    +0.000 C 
BRANCH  22  25
ATOM     23  C   UNL     1      51.277   8.219  15.284  0.00  0.00    +0.000 C 
ATOM     24  O   UNL     1      50.969   9.353  15.628  0.00  0.00    +0.000 OA
ATOM     25  N   UNL     1      50.992   7.754  14.028  0.00  0.00    +0.000 N 
ATOM     26  H   UNL     1      51.324   6.843  13.736  0.00  0.00    +0.000 HD
BRANCH  23  34
ATOM     27  C   UNL     1      50.276   5.382  16.970  0.00  0.00    +0.000 A 
ATOM     28  N   UNL     1      50.133   4.330  17.803  0.00  0.00    +0.000 NA
ATOM     29  C   UNL     1      51.173   3.973  18.558  0.00  0.00    +0.000 A 
ATOM     30  N   UNL     1      52.372   4.545  18.583  0.00  0.00    +0.000 NA
ATOM     31  C   UNL     1      52.471   5.599  17.755  0.00  0.00    +0.000 A 
ATOM     32  S   UNL     1      53.940   6.443  17.654  0.00  0.00    +0.000 S 
ATOM     33  C   UNL     1      53.290   7.536  16.525  0.00  0.00    +0.000 A 
ATOM     34  C   UNL     1      51.958   7.293  16.208  0.00  0.00    +0.000 A 
ATOM     35  C   UNL     1      51.479   6.111  16.922  0.00  0.00    +0.000 A 
BRANCH  27  37
ATOM     36  C   UNL     1      48.056   4.914  16.382  0.00  0.00    +0.000 C 
ATOM     37  O   UNL     1      49.220   5.705  16.143  0.00  0.00    +0.000 OA
ENDBRANCH  27  37
ENDBRANCH  23  34
ENDBRANCH  22  25
ENDBRANCH   1  22
TORSDOF 9
ENDMDL
MODEL 9
REMARK VINA RESULT:    -6.100      3.706      8.457
REMARK INTER + INTRA:         -10.581
REMARK INTER:                  -9.202
REMARK INTRA:                  -1.380
REMARK UNBOUND:                -1.450
REMARK  Name = 
REMARK  11 active torsions:
REMARK  status: ('A' for Active; 'I' for Inactive)
REMARK    1  A    between atoms: C_1  and  O_2
REMARK    2  A    between atoms: O_2  and  C_3
REMARK    3  A    between atoms: C_10  and  C_11
REMARK    4  A    between atoms: N_13  and  C_14
REMARK    5  A    between atoms: C_14  and  C_15
REMARK    6  A    between atoms: C_18  and  N_19
REMARK    7  A    between atoms: N_19  and  C_20
REMARK    8  A    between atoms: C_20  and  C_21
REMARK    9  A    between atoms: C_25  and  C_26
REMARK   10  A    between atoms: C_29  and  C_30
REMARK   11  A    between atoms: C_30  and  O_31
REMARK                            x       y       z     vdW  Elec       q    Type
REMARK                         _______ _______ _______ _____ _____    ______ ____
ROOT
ATOM      1  C   UNL     1      48.982   9.193  16.741  0.00  0.00    +0.000 A 
ATOM      2  C   UNL     1      47.903   8.644  17.446  0.00  0.00    +0.000 A 
ATOM      3  C   UNL     1      48.089   8.059  18.712  0.00  0.00    +0.000 A 
ATOM      4  C   UNL     1      49.356   7.992  19.297  0.00  0.00    +0.000 A 
ATOM      5  C   UNL     1      50.412   8.613  18.613  0.00  0.00    +0.000 A 
ATOM      6  C   UNL     1      50.236   9.198  17.355  0.00  0.00    +0.000 A 
ENDROOT
BRANCH   4   7
ATOM      7  N   UNL     1      49.622   7.468  20.566  0.00  0.00    +0.000 N 
ATOM      8  H   UNL     1      50.179   8.126  21.102  0.00  0.00    +0.000 HD
BRANCH   7   9
ATOM      9  C   UNL     1      50.047   6.082  20.741  0.00  0.00    +0.000 C 
BRANCH   9  10
ATOM     10  C   UNL     1      50.679   5.499  19.451  0.00  0.00    +0.000 C 
ATOM     11  C   UNL     1      51.816   4.487  19.733  0.00  0.00    +0.000 C 
ATOM     12  C   UNL     1      52.435   3.944  18.444  0.00  0.00    +0.000 C 
ATOM     13  N   UNL     1      51.390   3.415  17.576  0.00  0.00    +0.000 N 
ATOM     14  C   UNL     1      51.151   2.086  17.265  0.00  0.00    +0.000 C 
ATOM     15  C   UNL     1      52.061   1.008  17.803  0.00  0.00    +0.000 C 
ATOM     16  O   UNL     1      50.192   1.751  16.564  0.00  0.00    +0.000 OA
ATOM     17  C   UNL     1      50.400   4.417  17.176  0.00  0.00    +0.000 C 
ATOM     18  C   UNL     1      49.649   4.969  18.406  0.00  0.00    +0.000 C 
BRANCH  18  19
ATOM     19  C   UNL     1      48.639   3.944  18.946  0.00  0.00    +0.000 C 
BRANCH  19  20
ATOM     20  O   UNL     1      47.325   4.497  18.960  0.00  0.00    +0.000 OA
ATOM     21  H   UNL     1      47.378   5.387  18.570  0.00  0.00    +0.000 HD
ENDBRANCH  19  20
ENDBRANCH  18  19
ENDBRANCH   9  10
ENDBRANCH   7   9
ENDBRANCH   4   7
BRANCH   1  22
ATOM     22  C   UNL     1      48.800   9.795  15.370  0.00  0.00    +0.000 C 
BRANCH  22  25
ATOM     23  C   UNL     1      47.881   8.221  13.718  0.00  0.00    +0.000 C 
ATOM     24  O   UNL     1      49.001   7.828  13.418  0.00  0.00    +0.000 OA
ATOM     25  N   UNL     1      47.697   9.191  14.666  0.00  0.00    +0.000 N 
ATOM     26  H   UNL     1      46.771   9.559  14.844  0.00  0.00    +0.000 HD
BRANCH  23  34
ATOM     27  C   UNL     1      46.505   5.060  13.617  0.00  0.00    +0.000 A 
ATOM     28  N   UNL     1      45.812   3.937  13.335  0.00  0.00    +0.000 NA
ATOM     29  C   UNL     1      44.752   4.030  12.532  0.00  0.00    +0.000 A 
ATOM     30  N   UNL     1      44.279   5.134  11.963  0.00  0.00    +0.000 NA
ATOM     31  C   UNL     1      45.005   6.228  12.251  0.00  0.00    +0.000 A 
ATOM     32  S   UNL     1      44.535   7.730  11.615  0.00  0.00    +0.000 S 
ATOM     33  C   UNL     1      45.853   8.510  12.353  0.00  0.00    +0.000 A 
ATOM     34  C   UNL     1      46.673   7.658  13.085  0.00  0.00    +0.000 A 
ATOM     35  C   UNL     1      46.144   6.296  13.050  0.00  0.00    +0.000 A 
BRANCH  27  37
ATOM     36  C   UNL     1      47.328   4.040  15.560  0.00  0.00    +0.000 C 
ATOM     37  O   UNL     1      47.560   4.968  14.501  0.00  0.00    +0.000 OA
ENDBRANCH  27  37
ENDBRANCH  23  34
ENDBRANCH  22  25
ENDBRANCH   1  22
TORSDOF 9
ENDMDL
