MODEL 1
REMARK VINA RESULT:    -8.102      0.000      0.000
REMARK INTER + INTRA:         -10.051
REMARK INTER:                  -9.523
REMARK INTRA:                  -0.528
REMARK UNBOUND:                -0.528
REMARK  Name = 
REMARK  3 active torsions:
REMARK  status: ('A' for Active; 'I' for Inactive)
REMARK    1  A    between atoms: C_2  and  C_4
REMARK    2  A    between atoms: C_7  and  C_8
REMARK    3  A    between atoms: C_8  and  N_9
REMARK                            x       y       z     vdW  Elec       q    Type
REMARK                         _______ _______ _______ _____ _____    ______ ____
ROOT
ATOM      1  C   UNL     1      46.465   2.555   7.730  0.00  0.00    +0.000 A 
ATOM      2  C   UNL     1      46.419   3.954   7.723  0.00  0.00    +0.000 A 
ATOM      3  C   UNL     1      45.582   4.636   8.610  0.00  0.00    +0.000 A 
ATOM      4  C   UNL     1      44.774   3.928   9.512  0.00  0.00    +0.000 A 
ATOM      5  C   UNL     1      44.812   2.526   9.503  0.00  0.00    +0.000 A 
ATOM      6  C   UNL     1      45.648   1.843   8.613  0.00  0.00    +0.000 A 
ENDROOT
BRANCH   1   8
ATOM      7  N   UNL     1      48.419   2.477   6.283  0.00  0.00    +0.000 N 
ATOM      8  C   UNL     1      47.349   1.803   6.802  0.00  0.00    +0.000 C 
ATOM      9  O   UNL     1      47.157   0.622   6.543  0.00  0.00    +0.000 OA
ATOM     10  H   UNL     1      49.069   1.941   5.728  0.00  0.00    +0.000 HD
ATOM     11  H   UNL     1      48.740   3.356   6.668  0.00  0.00    +0.000 HD
ENDBRANCH   1   8
BRANCH   4  12
ATOM     12  C   UNL     1      43.876   4.667  10.474  0.00  0.00    +0.000 C 
BRANCH  12  13
ATOM     13  N   UNL     1      44.609   5.277  11.574  0.00  0.00    +0.000 N 
ATOM     14  C   UNL     1      45.387   4.598  12.484  0.00  0.00    +0.000 A 
ATOM     15  C   UNL     1      46.045   5.528  13.260  0.00  0.00    +0.000 A 
ATOM     16  C   UNL     1      45.671   6.817  12.796  0.00  0.00    +0.000 A 
ATOM     17  C   UNL     1      46.019   8.136  13.124  0.00  0.00    +0.000 A 
ATOM     18  C   UNL     1      45.434   9.164  12.387  0.00  0.00    +0.000 A 
ATOM     19  C   UNL     1      44.531   8.841  11.382  0.00  0.00    +0.000 A 
ATOM     20  N   UNL     1      44.160   7.592  11.023  0.00  0.00    +0.000 NA
ATOM     21  C   UNL     1      44.761   6.631  11.755  0.00  0.00    +0.000 A 
ENDBRANCH  12  13
ENDBRANCH   4  12
TORSDOF 3
ENDMDL
MODEL 2
REMARK VINA RESULT:    -7.828      0.911      2.391
REMARK INTER + INTRA:          -9.729
REMARK INTER:                  -9.392
REMARK INTRA:                  -0.338
REMARK UNBOUND:                -0.528
REMARK  Name = 
REMARK  3 active torsions:
REMARK  status: ('A' for Active; 'I' for Inactive)
REMARK    1  A    between atoms: C_2  and  C_4
REMARK    2  A    between atoms: C_7  and  C_8
REMARK    3  A    between atoms: C_8  and  N_9
REMARK                            x       y       z     vdW  Elec       q    Type
REMARK                         _______ _______ _______ _____ _____    ______ ____
ROOT
ATOM      1  C   UNL     1      46.513   2.464   7.674  0.00  0.00    +0.000 A 
ATOM      2  C   UNL     1      46.484   3.863   7.648  0.00  0.00    +0.000 A 
ATOM      3  C   UNL     1      45.669   4.566   8.539  0.00  0.00    +0.000 A 
ATOM      4  C   UNL     1      44.868   3.881   9.464  0.00  0.00    +0.000 A 
ATOM      5  C   UNL     1      44.890   2.478   9.473  0.00  0.00    +0.000 A 
ATOM      6  C   UNL     1      45.703   1.773   8.580  0.00  0.00    +0.000 A 
ENDROOT
BRANCH   1   8
ATOM      7  N   UNL     1      48.459   2.335   6.219  0.00  0.00    +0.000 N 
ATOM      8  C   UNL     1      47.374   1.689   6.742  0.00  0.00    +0.000 C 
ATOM      9  O   UNL     1      47.149   0.513   6.483  0.00  0.00    +0.000 OA
ATOM     10  H   UNL     1      49.092   1.782   5.661  0.00  0.00    +0.000 HD
ATOM     11  H   UNL     1      48.804   3.205   6.603  0.00  0.00    +0.000 HD
ENDBRANCH   1   8
BRANCH   4  12
ATOM     12  C   UNL     1      43.994   4.643  10.430  0.00  0.00    +0.000 C 
BRANCH  12  13
ATOM     13  N   UNL     1      44.759   5.491  11.332  0.00  0.00    +0.000 N 
ATOM     14  C   UNL     1      44.642   6.860  11.427  0.00  0.00    +0.000 A 
ATOM     15  C   UNL     1      45.402   7.279  12.498  0.00  0.00    +0.000 A 
ATOM     16  C   UNL     1      45.986   6.127  13.089  0.00  0.00    +0.000 A 
ATOM     17  C   UNL     1      46.800   5.881  14.203  0.00  0.00    +0.000 A 
ATOM     18  C   UNL     1      47.147   4.558  14.475  0.00  0.00    +0.000 A 
ATOM     19  C   UNL     1      46.687   3.556  13.631  0.00  0.00    +0.000 A 
ATOM     20  N   UNL     1      45.901   3.734  12.545  0.00  0.00    +0.000 NA
ATOM     21  C   UNL     1      45.582   5.028  12.330  0.00  0.00    +0.000 A 
ENDBRANCH  12  13
ENDBRANCH   4  12
TORSDOF 3
ENDMDL
MODEL 3
REMARK VINA RESULT:    -6.631      3.154      6.704
REMARK INTER + INTRA:          -8.322
REMARK INTER:                  -7.890
REMARK INTRA:                  -0.433
REMARK UNBOUND:                -0.528
REMARK  Name = 
REMARK  3 active torsions:
REMARK  status: ('A' for Active; 'I' for Inactive)
REMARK    1  A    between atoms: C_2  and  C_4
REMARK    2  A    between atoms: C_7  and  C_8
REMARK    3  A    between atoms: C_8  and  N_9
REMARK                            x       y       z     vdW  Elec       q    Type
REMARK                         _______ _______ _______ _____ _____    ______ ____
ROOT
ATOM      1  C   UNL     1      46.499   4.705  13.562  0.00  0.00    +0.000 A 
ATOM      2  C   UNL     1      46.242   5.714  12.627  0.00  0.00    +0.000 A 
ATOM      3  C   UNL     1      45.567   5.418  11.440  0.00  0.00    +0.000 A 
ATOM      4  C   UNL     1      45.144   4.109  11.169  0.00  0.00    +0.000 A 
ATOM      5  C   UNL     1      45.418   3.099  12.103  0.00  0.00    +0.000 A 
ATOM      6  C   UNL     1      46.097   3.393  13.290  0.00  0.00    +0.000 A 
ENDROOT
BRANCH   1   8
ATOM      7  N   UNL     1      46.804   4.297  15.941  0.00  0.00    +0.000 N 
ATOM      8  C   UNL     1      47.211   4.990  14.835  0.00  0.00    +0.000 C 
ATOM      9  O   UNL     1      48.147   5.778  14.889  0.00  0.00    +0.000 OA
ATOM     10  H   UNL     1      47.347   4.422  16.782  0.00  0.00    +0.000 HD
ATOM     11  H   UNL     1      46.218   3.474  15.875  0.00  0.00    +0.000 HD
ENDBRANCH   1   8
BRANCH   4  12
ATOM     12  C   UNL     1      44.408   3.794   9.889  0.00  0.00    +0.000 C 
BRANCH  12  13
ATOM     13  N   UNL     1      45.296   3.683   8.741  0.00  0.00    +0.000 N 
ATOM     14  C   UNL     1      45.876   4.742   8.080  0.00  0.00    +0.000 A 
ATOM     15  C   UNL     1      46.773   4.234   7.166  0.00  0.00    +0.000 A 
ATOM     16  C   UNL     1      46.755   2.819   7.286  0.00  0.00    +0.000 A 
ATOM     17  C   UNL     1      47.452   1.757   6.691  0.00  0.00    +0.000 A 
ATOM     18  C   UNL     1      47.155   0.465   7.118  0.00  0.00    +0.000 A 
ATOM     19  C   UNL     1      46.183   0.286   8.094  0.00  0.00    +0.000 A 
ATOM     20  N   UNL     1      45.482   1.270   8.702  0.00  0.00    +0.000 NA
ATOM     21  C   UNL     1      45.812   2.503   8.265  0.00  0.00    +0.000 A 
ENDBRANCH  12  13
ENDBRANCH   4  12
TORSDOF 3
ENDMDL
MODEL 4
REMARK VINA RESULT:    -6.472      3.084      6.528
REMARK INTER + INTRA:          -8.136
REMARK INTER:                  -7.652
REMARK INTRA:                  -0.483
REMARK UNBOUND:                -0.528
REMARK  Name = 
REMARK  3 active torsions:
REMARK  status: ('A' for Active; 'I' for Inactive)
REMARK    1  A    between atoms: C_2  and  C_4
REMARK    2  A    between atoms: C_7  and  C_8
REMARK    3  A    between atoms: C_8  and  N_9
REMARK                            x       y       z     vdW  Elec       q    Type
REMARK                         _______ _______ _______ _____ _____    ______ ____
ROOT
ATOM      1  C   UNL     1      46.912   6.206  12.968  0.00  0.00    +0.000 A 
ATOM      2  C   UNL     1      46.103   5.086  13.193  0.00  0.00    +0.000 A 
ATOM      3  C   UNL     1      45.312   4.571  12.162  0.00  0.00    +0.000 A 
ATOM      4  C   UNL     1      45.315   5.171  10.895  0.00  0.00    +0.000 A 
ATOM      5  C   UNL     1      46.116   6.304  10.681  0.00  0.00    +0.000 A 
ATOM      6  C   UNL     1      46.905   6.822  11.713  0.00  0.00    +0.000 A 
ENDROOT
BRANCH   1   8
ATOM      7  N   UNL     1      47.858   6.058  15.205  0.00  0.00    +0.000 N 
ATOM      8  C   UNL     1      47.767   6.773  14.044  0.00  0.00    +0.000 C 
ATOM      9  O   UNL     1      48.396   7.812  13.888  0.00  0.00    +0.000 OA
ATOM     10  H   UNL     1      48.510   6.395  15.897  0.00  0.00    +0.000 HD
ATOM     11  H   UNL     1      47.561   5.092  15.267  0.00  0.00    +0.000 HD
ENDBRANCH   1   8
BRANCH   4  12
ATOM     12  C   UNL     1      44.466   4.609   9.781  0.00  0.00    +0.000 C 
BRANCH  12  13
ATOM     13  N   UNL     1      44.986   3.355   9.256  0.00  0.00    +0.000 N 
ATOM     14  C   UNL     1      44.516   2.102   9.579  0.00  0.00    +0.000 A 
ATOM     15  C   UNL     1      45.143   1.187   8.760  0.00  0.00    +0.000 A 
ATOM     16  C   UNL     1      46.009   1.907   7.895  0.00  0.00    +0.000 A 
ATOM     17  C   UNL     1      46.862   1.573   6.834  0.00  0.00    +0.000 A 
ATOM     18  C   UNL     1      47.542   2.609   6.197  0.00  0.00    +0.000 A 
ATOM     19  C   UNL     1      47.358   3.910   6.646  0.00  0.00    +0.000 A 
ATOM     20  N   UNL     1      46.549   4.290   7.661  0.00  0.00    +0.000 NA
ATOM     21  C   UNL     1      45.904   3.255   8.238  0.00  0.00    +0.000 A 
ENDBRANCH  12  13
ENDBRANCH   4  12
TORSDOF 3
ENDMDL
MODEL 5
REMARK VINA RESULT:    -6.235      3.274      6.444
REMARK INTER + INTRA:          -7.857
REMARK INTER:                  -7.523
REMARK INTRA:                  -0.334
REMARK UNBOUND:                -0.528
REMARK  Name = 
REMARK  3 active torsions:
REMARK  status: ('A' for Active; 'I' for Inactive)
REMARK    1  A    between atoms: C_2  and  C_4
REMARK    2  A    between atoms: C_7  and  C_8
REMARK    3  A    between atoms: C_8  and  N_9
REMARK                            x       y       z     vdW  Elec       q    Type
REMARK                         _______ _______ _______ _____ _____    ______ ____
ROOT
ATOM      1  C   UNL     1      47.888   7.267  14.013  0.00  0.00    +0.000 A 
ATOM      2  C   UNL     1      47.053   8.303  13.579  0.00  0.00    +0.000 A 
ATOM      3  C   UNL     1      45.925   8.020  12.804  0.00  0.00    +0.000 A 
ATOM      4  C   UNL     1      45.621   6.699  12.446  0.00  0.00    +0.000 A 
ATOM      5  C   UNL     1      46.471   5.667  12.871  0.00  0.00    +0.000 A 
ATOM      6  C   UNL     1      47.602   5.949  13.644  0.00  0.00    +0.000 A 
ENDROOT
BRANCH   1   8
ATOM      7  N   UNL     1      49.271   8.820  15.275  0.00  0.00    +0.000 N 
ATOM      8  C   UNL     1      49.092   7.537  14.843  0.00  0.00    +0.000 C 
ATOM      9  O   UNL     1      49.869   6.645  15.162  0.00  0.00    +0.000 OA
ATOM     10  H   UNL     1      50.035   8.983  15.914  0.00  0.00    +0.000 HD
ATOM     11  H   UNL     1      48.529   9.508  15.241  0.00  0.00    +0.000 HD
ENDBRANCH   1   8
BRANCH   4  12
ATOM     12  C   UNL     1      44.398   6.396  11.615  0.00  0.00    +0.000 C 
BRANCH  12  13
ATOM     13  N   UNL     1      44.247   4.975  11.333  0.00  0.00    +0.000 N 
ATOM     14  C   UNL     1      43.458   4.103  12.049  0.00  0.00    +0.000 A 
ATOM     15  C   UNL     1      43.446   2.896  11.382  0.00  0.00    +0.000 A 
ATOM     16  C   UNL     1      44.236   3.043  10.212  0.00  0.00    +0.000 A 
ATOM     17  C   UNL     1      44.571   2.223   9.124  0.00  0.00    +0.000 A 
ATOM     18  C   UNL     1      45.378   2.765   8.126  0.00  0.00    +0.000 A 
ATOM     19  C   UNL     1      45.822   4.075   8.258  0.00  0.00    +0.000 A 
ATOM     20  N   UNL     1      45.531   4.910   9.282  0.00  0.00    +0.000 NA
ATOM     21  C   UNL     1      44.738   4.345  10.216  0.00  0.00    +0.000 A 
ENDBRANCH  12  13
ENDBRANCH   4  12
TORSDOF 3
ENDMDL
MODEL 6
REMARK VINA RESULT:    -5.882      2.574      3.596
REMARK INTER + INTRA:          -7.442
REMARK INTER:                  -6.949
REMARK INTRA:                  -0.493
REMARK UNBOUND:                -0.528
REMARK  Name = 
REMARK  3 active torsions:
REMARK  status: ('A' for Active; 'I' for Inactive)
REMARK    1  A    between atoms: C_2  and  C_4
REMARK    2  A    between atoms: C_7  and  C_8
REMARK    3  A    between atoms: C_8  and  N_9
REMARK                            x       y       z     vdW  Elec       q    Type
REMARK                         _______ _______ _______ _____ _____    ______ ____
ROOT
ATOM      1  C   UNL     1      44.933   3.682  10.018  0.00  0.00    +0.000 A 
ATOM      2  C   UNL     1      44.913   3.310  11.367  0.00  0.00    +0.000 A 
ATOM      3  C   UNL     1      45.262   4.233  12.357  0.00  0.00    +0.000 A 
ATOM      4  C   UNL     1      45.642   5.537  12.011  0.00  0.00    +0.000 A 
ATOM      5  C   UNL     1      45.676   5.899  10.655  0.00  0.00    +0.000 A 
ATOM      6  C   UNL     1      45.330   4.975   9.664  0.00  0.00    +0.000 A 
ENDROOT
BRANCH   1   8
ATOM      7  N   UNL     1      44.305   3.248   7.708  0.00  0.00    +0.000 N 
ATOM      8  C   UNL     1      44.561   2.724   8.944  0.00  0.00    +0.000 C 
ATOM      9  O   UNL     1      44.525   1.516   9.141  0.00  0.00    +0.000 OA
ATOM     10  H   UNL     1      44.144   2.591   6.959  0.00  0.00    +0.000 HD
ATOM     11  H   UNL     1      44.568   4.192   7.459  0.00  0.00    +0.000 HD
ENDBRANCH   1   8
BRANCH   4  12
ATOM     12  C   UNL     1      46.013   6.534  13.082  0.00  0.00    +0.000 C 
BRANCH  12  13
ATOM     13  N   UNL     1      47.271   7.213  12.808  0.00  0.00    +0.000 N 
ATOM     14  C   UNL     1      48.510   6.614  12.788  0.00  0.00    +0.000 A 
ATOM     15  C   UNL     1      49.423   7.539  12.331  0.00  0.00    +0.000 A 
ATOM     16  C   UNL     1      48.716   8.737  12.044  0.00  0.00    +0.000 A 
ATOM     17  C   UNL     1      49.052   9.994  11.520  0.00  0.00    +0.000 A 
ATOM     18  C   UNL     1      48.028  10.925  11.359  0.00  0.00    +0.000 A 
ATOM     19  C   UNL     1      46.737  10.576  11.733  0.00  0.00    +0.000 A 
ATOM     20  N   UNL     1      46.356   9.382  12.242  0.00  0.00    +0.000 NA
ATOM     21  C   UNL     1      47.378   8.510  12.367  0.00  0.00    +0.000 A 
ENDBRANCH  12  13
ENDBRANCH   4  12
TORSDOF 3
ENDMDL
MODEL 7
REMARK VINA RESULT:    -5.770      4.090      6.021
REMARK INTER + INTRA:          -7.310
REMARK INTER:                  -6.782
REMARK INTRA:                  -0.528
REMARK UNBOUND:                -0.528
REMARK  Name = 
REMARK  3 active torsions:
REMARK  status: ('A' for Active; 'I' for Inactive)
REMARK    1  A    between atoms: C_2  and  C_4
REMARK    2  A    between atoms: C_7  and  C_8
REMARK    3  A    between atoms: C_8  and  N_9
REMARK                            x       y       z     vdW  Elec       q    Type
REMARK                         _______ _______ _______ _____ _____    ______ ____
ROOT
ATOM      1  C   UNL     1      44.494   5.422  11.947  0.00  0.00    +0.000 A 
ATOM      2  C   UNL     1      45.280   6.240  11.126  0.00  0.00    +0.000 A 
ATOM      3  C   UNL     1      46.592   6.553  11.494  0.00  0.00    +0.000 A 
ATOM      4  C   UNL     1      47.133   6.059  12.689  0.00  0.00    +0.000 A 
ATOM      5  C   UNL     1      46.334   5.253  13.515  0.00  0.00    +0.000 A 
ATOM      6  C   UNL     1      45.021   4.942  13.150  0.00  0.00    +0.000 A 
ENDROOT
BRANCH   1   8
ATOM      7  N   UNL     1      42.156   6.050  11.707  0.00  0.00    +0.000 N 
ATOM      8  C   UNL     1      43.098   5.068  11.580  0.00  0.00    +0.000 C 
ATOM      9  O   UNL     1      42.807   3.962  11.143  0.00  0.00    +0.000 OA
ATOM     10  H   UNL     1      41.229   5.838  11.371  0.00  0.00    +0.000 HD
ATOM     11  H   UNL     1      42.406   7.024  11.820  0.00  0.00    +0.000 HD
ENDBRANCH   1   8
BRANCH   4  12
ATOM     12  C   UNL     1      48.552   6.393  13.081  0.00  0.00    +0.000 C 
BRANCH  12  13
ATOM     13  N   UNL     1      48.624   7.305  14.212  0.00  0.00    +0.000 N 
ATOM     14  C   UNL     1      48.302   8.643  14.176  0.00  0.00    +0.000 A 
ATOM     15  C   UNL     1      48.336   9.124  15.468  0.00  0.00    +0.000 A 
ATOM     16  C   UNL     1      48.670   8.040  16.322  0.00  0.00    +0.000 A 
ATOM     17  C   UNL     1      48.812   7.868  17.707  0.00  0.00    +0.000 A 
ATOM     18  C   UNL     1      49.131   6.594  18.173  0.00  0.00    +0.000 A 
ATOM     19  C   UNL     1      49.307   5.567  17.255  0.00  0.00    +0.000 A 
ATOM     20  N   UNL     1      49.182   5.675  15.913  0.00  0.00    +0.000 NA
ATOM     21  C   UNL     1      48.861   6.922  15.510  0.00  0.00    +0.000 A 
ENDBRANCH  12  13
ENDBRANCH   4  12
TORSDOF 3
ENDMDL
MODEL 8
REMARK VINA RESULT:    -5.520      4.978      7.958
REMARK INTER + INTRA:          -7.016
REMARK INTER:                  -6.527
REMARK INTRA:                  -0.489
REMARK UNBOUND:                -0.528
REMARK  Name = 
REMARK  3 active torsions:
REMARK  status: ('A' for Active; 'I' for Inactive)
REMARK    1  A    between atoms: C_2  and  C_4
REMARK    2  A    between atoms: C_7  and  C_8
REMARK    3  A    between atoms: C_8  and  N_9
REMARK                            x       y       z     vdW  Elec       q    Type
REMARK                         _______ _______ _______ _____ _____    ______ ____
ROOT
ATOM      1  C   UNL     1      48.052   5.073  17.969  0.00  0.00    +0.000 A 
ATOM      2  C   UNL     1      47.286   4.101  17.315  0.00  0.00    +0.000 A 
ATOM      3  C   UNL     1      47.160   4.123  15.923  0.00  0.00    +0.000 A 
ATOM      4  C   UNL     1      47.792   5.121  15.167  0.00  0.00    +0.000 A 
ATOM      5  C   UNL     1      48.544   6.102  15.830  0.00  0.00    +0.000 A 
ATOM      6  C   UNL     1      48.668   6.083  17.224  0.00  0.00    +0.000 A 
ENDROOT
BRANCH   1   8
ATOM      7  N   UNL     1      48.378   3.858  20.051  0.00  0.00    +0.000 N 
ATOM      8  C   UNL     1      48.208   5.072  19.447  0.00  0.00    +0.000 C 
ATOM      9  O   UNL     1      48.226   6.111  20.095  0.00  0.00    +0.000 OA
ATOM     10  H   UNL     1      48.576   3.865  21.040  0.00  0.00    +0.000 HD
ATOM     11  H   UNL     1      48.616   3.025  19.528  0.00  0.00    +0.000 HD
ENDBRANCH   1   8
BRANCH   4  12
ATOM     12  C   UNL     1      47.660   5.139  13.664  0.00  0.00    +0.000 C 
BRANCH  12  13
ATOM     13  N   UNL     1      46.403   5.721  13.216  0.00  0.00    +0.000 N 
ATOM     14  C   UNL     1      46.180   7.062  13.004  0.00  0.00    +0.000 A 
ATOM     15  C   UNL     1      44.934   7.201  12.429  0.00  0.00    +0.000 A 
ATOM     16  C   UNL     1      44.388   5.900  12.267  0.00  0.00    +0.000 A 
ATOM     17  C   UNL     1      43.211   5.373  11.716  0.00  0.00    +0.000 A 
ATOM     18  C   UNL     1      43.054   3.989  11.721  0.00  0.00    +0.000 A 
ATOM     19  C   UNL     1      44.054   3.201  12.278  0.00  0.00    +0.000 A 
ATOM     20  N   UNL     1      45.207   3.653  12.821  0.00  0.00    +0.000 NA
ATOM     21  C   UNL     1      45.319   4.997  12.782  0.00  0.00    +0.000 A 
ENDBRANCH  12  13
ENDBRANCH   4  12
TORSDOF 3
ENDMDL
MODEL 9
REMARK VINA RESULT:    -5.507      3.594      5.186
REMARK INTER + INTRA:          -7.002
REMARK INTER:                  -6.514
REMARK INTRA:                  -0.488
REMARK UNBOUND:                -0.528
REMARK  Name = 
REMARK  3 active torsions:
REMARK  status: ('A' for Active; 'I' for Inactive)
REMARK    1  A    between atoms: C_2  and  C_4
REMARK    2  A    between atoms: C_7  and  C_8
REMARK    3  A    between atoms: C_8  and  N_9
REMARK                            x       y       z     vdW  Elec       q    Type
REMARK                         _______ _______ _______ _____ _____    ______ ____
ROOT
ATOM      1  C   UNL     1      44.669   4.053  11.540  0.00  0.00    +0.000 A 
ATOM      2  C   UNL     1      45.336   4.038  12.770  0.00  0.00    +0.000 A 
ATOM      3  C   UNL     1      45.919   5.207  13.268  0.00  0.00    +0.000 A 
ATOM      4  C   UNL     1      45.849   6.403  12.540  0.00  0.00    +0.000 A 
ATOM      5  C   UNL     1      45.194   6.407  11.300  0.00  0.00    +0.000 A 
ATOM      6  C   UNL     1      44.612   5.238  10.799  0.00  0.00    +0.000 A 
ENDROOT
BRANCH   1   8
ATOM      7  N   UNL     1      44.667   2.222   9.938  0.00  0.00    +0.000 N 
ATOM      8  C   UNL     1      44.035   2.828  10.987  0.00  0.00    +0.000 C 
ATOM      9  O   UNL     1      43.014   2.354  11.472  0.00  0.00    +0.000 OA
ATOM     10  H   UNL     1      44.288   1.341   9.624  0.00  0.00    +0.000 HD
ATOM     11  H   UNL     1      45.623   2.440   9.687  0.00  0.00    +0.000 HD
ENDBRANCH   1   8
BRANCH   4  12
ATOM     12  C   UNL     1      46.474   7.665  13.083  0.00  0.00    +0.000 C 
BRANCH  12  13
ATOM     13  N   UNL     1      47.919   7.699  12.907  0.00  0.00    +0.000 N 
ATOM     14  C   UNL     1      48.569   8.048  11.746  0.00  0.00    +0.000 A 
ATOM     15  C   UNL     1      49.919   8.121  12.019  0.00  0.00    +0.000 A 
ATOM     16  C   UNL     1      50.095   7.827  13.397  0.00  0.00    +0.000 A 
ATOM     17  C   UNL     1      51.186   7.785  14.277  0.00  0.00    +0.000 A 
ATOM     18  C   UNL     1      50.933   7.473  15.611  0.00  0.00    +0.000 A 
ATOM     19  C   UNL     1      49.628   7.205  16.003  0.00  0.00    +0.000 A 
ATOM     20  N   UNL     1      48.539   7.232  15.200  0.00  0.00    +0.000 NA
ATOM     21  C   UNL     1      48.832   7.551  13.922  0.00  0.00    +0.000 A 
ENDBRANCH  12  13
ENDBRANCH   4  12
TORSDOF 3
ENDMDL
