MODEL 1
REMARK VINA RESULT:    -7.134      0.000      0.000
REMARK INTER + INTRA:         -12.006
REMARK INTER:                 -10.679
REMARK INTRA:                  -1.327
REMARK UNBOUND:                -1.327
REMARK  Name = 
REMARK  10 active torsions:
REMARK  status: ('A' for Active; 'I' for Inactive)
REMARK    1  A    between atoms: C_1  and  O_2
REMARK    2  A    between atoms: O_2  and  C_3
REMARK    3  A    between atoms: C_10  and  C_11
REMARK    4  A    between atoms: N_13  and  C_14
REMARK    5  A    between atoms: C_14  and  C_15
REMARK    6  A    between atoms: C_18  and  O_19
REMARK    7  A    between atoms: O_19  and  C_20
REMARK    8  A    between atoms: C_20  and  C_21
REMARK    9  A    between atoms: C_21  and  C_22
REMARK   10  A    between atoms: C_22  and  O_24
REMARK                            x       y       z     vdW  Elec       q    Type
REMARK                         _______ _______ _______ _____ _____    ______ ____
ROOT
ATOM      1  C   UNL     1      48.660   7.186  14.716  0.00  0.00    +0.000 A 
ATOM      2  C   UNL     1      48.588   7.952  13.545  0.00  0.00    +0.000 A 
ATOM      3  C   UNL     1      47.830   7.520  12.446  0.00  0.00    +0.000 A 
ATOM      4  C   UNL     1      47.126   6.318  12.510  0.00  0.00    +0.000 A 
ATOM      5  C   UNL     1      47.169   5.569  13.688  0.00  0.00    +0.000 A 
ATOM      6  C   UNL     1      47.921   5.999  14.784  0.00  0.00    +0.000 A 
ENDROOT
BRANCH   1   7
ATOM      7  C   UNL     1      49.501   7.634  15.884  0.00  0.00    +0.000 C 
BRANCH   7  10
ATOM      8  C   UNL     1      50.433   6.055  17.514  0.00  0.00    +0.000 C 
ATOM      9  O   UNL     1      49.608   6.401  18.358  0.00  0.00    +0.000 OA
ATOM     10  N   UNL     1      50.455   6.625  16.270  0.00  0.00    +0.000 N 
ATOM     11  H   UNL     1      51.178   6.380  15.608  0.00  0.00    +0.000 HD
BRANCH   8  19
ATOM     12  C   UNL     1      50.431   2.624  17.152  0.00  0.00    +0.000 A 
ATOM     13  N   UNL     1      50.672   1.299  17.200  0.00  0.00    +0.000 NA
ATOM     14  C   UNL     1      51.834   0.883  17.709  0.00  0.00    +0.000 A 
ATOM     15  N   UNL     1      52.817   1.646  18.180  0.00  0.00    +0.000 NA
ATOM     16  C   UNL     1      52.535   2.958  18.127  0.00  0.00    +0.000 A 
ATOM     17  S   UNL     1      53.686   4.079  18.677  0.00  0.00    +0.000 S 
ATOM     18  C   UNL     1      52.654   5.383  18.327  0.00  0.00    +0.000 A 
ATOM     19  C   UNL     1      51.425   5.002  17.799  0.00  0.00    +0.000 A 
ATOM     20  C   UNL     1      51.369   3.550  17.649  0.00  0.00    +0.000 A 
BRANCH  12  22
ATOM     21  C   UNL     1      48.144   3.045  17.481  0.00  0.00    +0.000 C 
ATOM     22  O   UNL     1      49.252   3.057  16.582  0.00  0.00    +0.000 OA
ENDBRANCH  12  22
ENDBRANCH   8  19
ENDBRANCH   7  10
ENDBRANCH   1   7
BRANCH   4  23
ATOM     23  O   UNL     1      46.368   5.770  11.512  0.00  0.00    +0.000 OA
BRANCH  23  24
ATOM     24  C   UNL     1      45.657   4.563  11.810  0.00  0.00    +0.000 C 
BRANCH  24  25
ATOM     25  C   UNL     1      44.805   4.114  10.591  0.00  0.00    +0.000 C 
ATOM     26  C   UNL     1      44.992   2.618  10.302  0.00  0.00    +0.000 C 
ATOM     27  C   UNL     1      44.838   2.439   8.792  0.00  0.00    +0.000 C 
ATOM     28  C   UNL     1      44.953   3.824   8.163  0.00  0.00    +0.000 C 
ATOM     29  C   UNL     1      45.287   4.788   9.297  0.00  0.00    +0.000 C 
BRANCH  25  30
ATOM     30  C   UNL     1      43.354   4.467  10.942  0.00  0.00    +0.000 C 
ATOM     31  O   UNL     1      42.864   5.576  10.763  0.00  0.00    +0.000 OA
BRANCH  30  32
ATOM     32  O   UNL     1      42.604   3.483  11.478  0.00  0.00    +0.000 OA
ATOM     33  H   UNL     1      42.708   3.324  12.430  0.00  0.00    +0.000 HD
ENDBRANCH  30  32
ENDBRANCH  25  30
ENDBRANCH  24  25
ENDBRANCH  23  24
ENDBRANCH   4  23
TORSDOF 9
ENDMDL
MODEL 2
REMARK VINA RESULT:    -6.708      5.386      6.900
REMARK INTER + INTRA:         -11.368
REMARK INTER:                 -10.005
REMARK INTRA:                  -1.363
REMARK UNBOUND:                -1.327
REMARK  Name = 
REMARK  10 active torsions:
REMARK  status: ('A' for Active; 'I' for Inactive)
REMARK    1  A    between atoms: C_1  and  O_2
REMARK    2  A    between atoms: O_2  and  C_3
REMARK    3  A    between atoms: C_10  and  C_11
REMARK    4  A    between atoms: N_13  and  C_14
REMARK    5  A    between atoms: C_14  and  C_15
REMARK    6  A    between atoms: C_18  and  O_19
REMARK    7  A    between atoms: O_19  and  C_20
REMARK    8  A    between atoms: C_20  and  C_21
REMARK    9  A    between atoms: C_21  and  C_22
REMARK   10  A    between atoms: C_22  and  O_24
REMARK                            x       y       z     vdW  Elec       q    Type
REMARK                         _______ _______ _______ _____ _____    ______ ____
ROOT
ATOM      1  C   UNL     1      49.382   8.316  11.862  0.00  0.00    +0.000 A 
ATOM      2  C   UNL     1      48.255   9.149  11.869  0.00  0.00    +0.000 A 
ATOM      3  C   UNL     1      46.999   8.657  12.257  0.00  0.00    +0.000 A 
ATOM      4  C   UNL     1      46.859   7.328  12.652  0.00  0.00    +0.000 A 
ATOM      5  C   UNL     1      47.987   6.505  12.678  0.00  0.00    +0.000 A 
ATOM      6  C   UNL     1      49.239   6.993  12.294  0.00  0.00    +0.000 A 
ENDROOT
BRANCH   1   7
ATOM      7  C   UNL     1      50.725   8.836  11.413  0.00  0.00    +0.000 C 
BRANCH   7  10
ATOM      8  C   UNL     1      52.623   7.996  10.105  0.00  0.00    +0.000 C 
ATOM      9  O   UNL     1      52.847   9.121   9.660  0.00  0.00    +0.000 OA
ATOM     10  N   UNL     1      51.586   7.768  10.968  0.00  0.00    +0.000 N 
ATOM     11  H   UNL     1      51.372   6.830  11.274  0.00  0.00    +0.000 HD
BRANCH   8  19
ATOM     12  C   UNL     1      52.967   6.102   7.241  0.00  0.00    +0.000 A 
ATOM     13  N   UNL     1      53.244   5.166   6.312  0.00  0.00    +0.000 NA
ATOM     14  C   UNL     1      54.120   4.206   6.620  0.00  0.00    +0.000 A 
ATOM     15  N   UNL     1      54.779   4.066   7.766  0.00  0.00    +0.000 NA
ATOM     16  C   UNL     1      54.468   5.009   8.670  0.00  0.00    +0.000 A 
ATOM     17  S   UNL     1      55.228   4.989  10.188  0.00  0.00    +0.000 S 
ATOM     18  C   UNL     1      54.355   6.355  10.697  0.00  0.00    +0.000 A 
ATOM     19  C   UNL     1      53.472   6.847   9.742  0.00  0.00    +0.000 A 
ATOM     20  C   UNL     1      53.566   6.058   8.515  0.00  0.00    +0.000 A 
BRANCH  12  22
ATOM     21  C   UNL     1      52.738   8.237   6.290  0.00  0.00    +0.000 C 
ATOM     22  O   UNL     1      52.099   7.122   6.909  0.00  0.00    +0.000 OA
ENDBRANCH  12  22
ENDBRANCH   8  19
ENDBRANCH   7  10
ENDBRANCH   1   7
BRANCH   4  23
ATOM     23  O   UNL     1      45.696   6.715  13.033  0.00  0.00    +0.000 OA
BRANCH  23  24
ATOM     24  C   UNL     1      45.640   5.287  12.936  0.00  0.00    +0.000 C 
BRANCH  24  25
ATOM     25  C   UNL     1      44.633   4.853  11.836  0.00  0.00    +0.000 C 
ATOM     26  C   UNL     1      44.461   3.327  11.810  0.00  0.00    +0.000 C 
ATOM     27  C   UNL     1      44.175   2.942  10.359  0.00  0.00    +0.000 C 
ATOM     28  C   UNL     1      44.557   4.138   9.494  0.00  0.00    +0.000 C 
ATOM     29  C   UNL     1      45.170   5.173  10.432  0.00  0.00    +0.000 C 
BRANCH  25  30
ATOM     30  C   UNL     1      43.323   5.585  12.154  0.00  0.00    +0.000 C 
ATOM     31  O   UNL     1      42.648   6.163  11.311  0.00  0.00    +0.000 OA
BRANCH  30  32
ATOM     32  O   UNL     1      42.923   5.578  13.442  0.00  0.00    +0.000 OA
ATOM     33  H   UNL     1      43.579   5.299  14.101  0.00  0.00    +0.000 HD
ENDBRANCH  30  32
ENDBRANCH  25  30
ENDBRANCH  24  25
ENDBRANCH  23  24
ENDBRANCH   4  23
TORSDOF 9
ENDMDL
MODEL 3
REMARK VINA RESULT:    -6.605      1.339      2.255
REMARK INTER + INTRA:         -11.214
REMARK INTER:                  -9.774
REMARK INTRA:                  -1.440
REMARK UNBOUND:                -1.327
REMARK  Name = 
REMARK  10 active torsions:
REMARK  status: ('A' for Active; 'I' for Inactive)
REMARK    1  A    between atoms: C_1  and  O_2
REMARK    2  A    between atoms: O_2  and  C_3
REMARK    3  A    between atoms: C_10  and  C_11
REMARK    4  A    between atoms: N_13  and  C_14
REMARK    5  A    between atoms: C_14  and  C_15
REMARK    6  A    between atoms: C_18  and  O_19
REMARK    7  A    between atoms: O_19  and  C_20
REMARK    8  A    between atoms: C_20  and  C_21
REMARK    9  A    between atoms: C_21  and  C_22
REMARK   10  A    between atoms: C_22  and  O_24
REMARK                            x       y       z     vdW  Elec       q    Type
REMARK                         _______ _______ _______ _____ _____    ______ ____
ROOT
ATOM      1  C   UNL     1      49.564   7.358  14.694  0.00  0.00    +0.000 A 
ATOM      2  C   UNL     1      48.511   6.453  14.879  0.00  0.00    +0.000 A 
ATOM      3  C   UNL     1      47.635   6.141  13.828  0.00  0.00    +0.000 A 
ATOM      4  C   UNL     1      47.809   6.726  12.575  0.00  0.00    +0.000 A 
ATOM      5  C   UNL     1      48.878   7.603  12.378  0.00  0.00    +0.000 A 
ATOM      6  C   UNL     1      49.752   7.914  13.423  0.00  0.00    +0.000 A 
ENDROOT
BRANCH   1   7
ATOM      7  C   UNL     1      50.484   7.719  15.833  0.00  0.00    +0.000 C 
BRANCH   7  10
ATOM      8  C   UNL     1      51.206   6.070  17.500  0.00  0.00    +0.000 C 
ATOM      9  O   UNL     1      50.449   6.552  18.342  0.00  0.00    +0.000 OA
ATOM     10  N   UNL     1      51.292   6.596  16.239  0.00  0.00    +0.000 N 
ATOM     11  H   UNL     1      51.964   6.233  15.579  0.00  0.00    +0.000 HD
BRANCH   8  19
ATOM     12  C   UNL     1      50.721   2.665  17.226  0.00  0.00    +0.000 A 
ATOM     13  N   UNL     1      50.774   1.321  17.307  0.00  0.00    +0.000 NA
ATOM     14  C   UNL     1      51.872   0.759  17.821  0.00  0.00    +0.000 A 
ATOM     15  N   UNL     1      52.955   1.388  18.266  0.00  0.00    +0.000 NA
ATOM     16  C   UNL     1      52.859   2.725  18.181  0.00  0.00    +0.000 A 
ATOM     17  S   UNL     1      54.160   3.687  18.696  0.00  0.00    +0.000 S 
ATOM     18  C   UNL     1      53.318   5.113  18.318  0.00  0.00    +0.000 A 
ATOM     19  C   UNL     1      52.043   4.896  17.806  0.00  0.00    +0.000 A 
ATOM     20  C   UNL     1      51.783   3.462  17.694  0.00  0.00    +0.000 A 
BRANCH  12  22
ATOM     21  C   UNL     1      48.542   3.471  17.572  0.00  0.00    +0.000 C 
ATOM     22  O   UNL     1      49.609   3.245  16.652  0.00  0.00    +0.000 OA
ENDBRANCH  12  22
ENDBRANCH   8  19
ENDBRANCH   7  10
ENDBRANCH   1   7
BRANCH   4  23
ATOM     23  O   UNL     1      47.023   6.529  11.473  0.00  0.00    +0.000 OA
BRANCH  23  24
ATOM     24  C   UNL     1      45.692   7.058  11.507  0.00  0.00    +0.000 C 
BRANCH  24  25
ATOM     25  C   UNL     1      44.646   5.913  11.429  0.00  0.00    +0.000 C 
ATOM     26  C   UNL     1      43.239   6.462  11.148  0.00  0.00    +0.000 C 
ATOM     27  C   UNL     1      42.254   5.522  11.843  0.00  0.00    +0.000 C 
ATOM     28  C   UNL     1      43.058   4.679  12.828  0.00  0.00    +0.000 C 
ATOM     29  C   UNL     1      44.488   5.208  12.785  0.00  0.00    +0.000 C 
BRANCH  25  30
ATOM     30  C   UNL     1      45.139   4.970  10.322  0.00  0.00    +0.000 C 
ATOM     31  O   UNL     1      45.178   3.751  10.439  0.00  0.00    +0.000 OA
BRANCH  30  32
ATOM     32  O   UNL     1      45.548   5.547   9.174  0.00  0.00    +0.000 OA
ATOM     33  H   UNL     1      44.964   5.448   8.404  0.00  0.00    +0.000 HD
ENDBRANCH  30  32
ENDBRANCH  25  30
ENDBRANCH  24  25
ENDBRANCH  23  24
ENDBRANCH   4  23
TORSDOF 9
ENDMDL
MODEL 4
REMARK VINA RESULT:    -6.573      2.575      3.241
REMARK INTER + INTRA:         -11.166
REMARK INTER:                  -9.283
REMARK INTRA:                  -1.883
REMARK UNBOUND:                -1.327
REMARK  Name = 
REMARK  10 active torsions:
REMARK  status: ('A' for Active; 'I' for Inactive)
REMARK    1  A    between atoms: C_1  and  O_2
REMARK    2  A    between atoms: O_2  and  C_3
REMARK    3  A    between atoms: C_10  and  C_11
REMARK    4  A    between atoms: N_13  and  C_14
REMARK    5  A    between atoms: C_14  and  C_15
REMARK    6  A    between atoms: C_18  and  O_19
REMARK    7  A    between atoms: O_19  and  C_20
REMARK    8  A    between atoms: C_20  and  C_21
REMARK    9  A    between atoms: C_21  and  C_22
REMARK   10  A    between atoms: C_22  and  O_24
REMARK                            x       y       z     vdW  Elec       q    Type
REMARK                         _______ _______ _______ _____ _____    ______ ____
ROOT
ATOM      1  C   UNL     1      48.272   8.484  13.741  0.00  0.00    +0.000 A 
ATOM      2  C   UNL     1      48.696   7.536  12.800  0.00  0.00    +0.000 A 
ATOM      3  C   UNL     1      47.811   7.034  11.835  0.00  0.00    +0.000 A 
ATOM      4  C   UNL     1      46.492   7.483  11.792  0.00  0.00    +0.000 A 
ATOM      5  C   UNL     1      46.076   8.453  12.706  0.00  0.00    +0.000 A 
ATOM      6  C   UNL     1      46.956   8.956  13.669  0.00  0.00    +0.000 A 
ENDROOT
BRANCH   1   7
ATOM      7  C   UNL     1      49.214   8.998  14.800  0.00  0.00    +0.000 C 
BRANCH   7  10
ATOM      8  C   UNL     1      48.646   8.263  17.071  0.00  0.00    +0.000 C 
ATOM      9  O   UNL     1      47.920   9.242  17.234  0.00  0.00    +0.000 OA
ATOM     10  N   UNL     1      49.331   8.074  15.901  0.00  0.00    +0.000 N 
ATOM     11  H   UNL     1      49.974   7.302  15.804  0.00  0.00    +0.000 HD
BRANCH   8  19
ATOM     12  C   UNL     1      48.438   4.818  17.089  0.00  0.00    +0.000 A 
ATOM     13  N   UNL     1      48.335   3.511  17.401  0.00  0.00    +0.000 NA
ATOM     14  C   UNL     1      48.491   3.149  18.676  0.00  0.00    +0.000 A 
ATOM     15  N   UNL     1      48.753   3.948  19.706  0.00  0.00    +0.000 NA
ATOM     16  C   UNL     1      48.835   5.243  19.359  0.00  0.00    +0.000 A 
ATOM     17  S   UNL     1      49.178   6.404  20.549  0.00  0.00    +0.000 S 
ATOM     18  C   UNL     1      49.093   7.664  19.413  0.00  0.00    +0.000 A 
ATOM     19  C   UNL     1      48.799   7.240  18.122  0.00  0.00    +0.000 A 
ATOM     20  C   UNL     1      48.678   5.784  18.085  0.00  0.00    +0.000 A 
BRANCH  12  22
ATOM     21  C   UNL     1      47.185   4.636  15.111  0.00  0.00    +0.000 C 
ATOM     22  O   UNL     1      48.326   5.189  15.765  0.00  0.00    +0.000 OA
ENDBRANCH  12  22
ENDBRANCH   8  19
ENDBRANCH   7  10
ENDBRANCH   1   7
BRANCH   4  23
ATOM     23  O   UNL     1      45.522   7.067  10.921  0.00  0.00    +0.000 OA
BRANCH  23  24
ATOM     24  C   UNL     1      45.662   5.761  10.352  0.00  0.00    +0.000 C 
BRANCH  24  25
ATOM     25  C   UNL     1      44.521   4.826  10.839  0.00  0.00    +0.000 C 
ATOM     26  C   UNL     1      43.278   5.630  11.245  0.00  0.00    +0.000 C 
ATOM     27  C   UNL     1      42.599   4.851  12.372  0.00  0.00    +0.000 C 
ATOM     28  C   UNL     1      43.612   3.833  12.885  0.00  0.00    +0.000 C 
ATOM     29  C   UNL     1      44.913   4.099  12.135  0.00  0.00    +0.000 C 
BRANCH  25  30
ATOM     30  C   UNL     1      44.243   3.863   9.677  0.00  0.00    +0.000 C 
ATOM     31  O   UNL     1      44.431   2.654   9.740  0.00  0.00    +0.000 OA
BRANCH  30  32
ATOM     32  O   UNL     1      43.772   4.409   8.538  0.00  0.00    +0.000 OA
ATOM     33  H   UNL     1      43.454   5.325   8.592  0.00  0.00    +0.000 HD
ENDBRANCH  30  32
ENDBRANCH  25  30
ENDBRANCH  24  25
ENDBRANCH  23  24
ENDBRANCH   4  23
TORSDOF 9
ENDMDL
MODEL 5
REMARK VINA RESULT:    -6.540      2.078      2.321
REMARK INTER + INTRA:         -11.117
REMARK INTER:                  -9.618
REMARK INTRA:                  -1.500
REMARK UNBOUND:                -1.327
REMARK  Name = 
REMARK  10 active torsions:
REMARK  status: ('A' for Active; 'I' for Inactive)
REMARK    1  A    between atoms: C_1  and  O_2
REMARK    2  A    between atoms: O_2  and  C_3
REMARK    3  A    between atoms: C_10  and  C_11
REMARK    4  A    between atoms: N_13  and  C_14
REMARK    5  A    between atoms: C_14  and  C_15
REMARK    6  A    between atoms: C_18  and  O_19
REMARK    7  A    between atoms: O_19  and  C_20
REMARK    8  A    between atoms: C_20  and  C_21
REMARK    9  A    between atoms: C_21  and  C_22
REMARK   10  A    between atoms: C_22  and  O_24
REMARK                            x       y       z     vdW  Elec       q    Type
REMARK                         _______ _______ _______ _____ _____    ______ ____
ROOT
ATOM      1  C   UNL     1      49.439   7.508  13.571  0.00  0.00    +0.000 A 
ATOM      2  C   UNL     1      49.354   7.863  12.218  0.00  0.00    +0.000 A 
ATOM      3  C   UNL     1      48.266   7.454  11.433  0.00  0.00    +0.000 A 
ATOM      4  C   UNL     1      47.243   6.691  11.995  0.00  0.00    +0.000 A 
ATOM      5  C   UNL     1      47.308   6.365  13.351  0.00  0.00    +0.000 A 
ATOM      6  C   UNL     1      48.391   6.773  14.136  0.00  0.00    +0.000 A 
ENDROOT
BRANCH   1   7
ATOM      7  C   UNL     1      50.625   7.920  14.406  0.00  0.00    +0.000 C 
BRANCH   7  10
ATOM      8  C   UNL     1      51.518   6.879  16.440  0.00  0.00    +0.000 C 
ATOM      9  O   UNL     1      52.595   6.663  15.887  0.00  0.00    +0.000 OA
ATOM     10  N   UNL     1      50.488   7.486  15.774  0.00  0.00    +0.000 N 
ATOM     11  H   UNL     1      49.588   7.599  16.218  0.00  0.00    +0.000 HD
BRANCH   8  19
ATOM     12  C   UNL     1      49.209   4.874  18.037  0.00  0.00    +0.000 A 
ATOM     13  N   UNL     1      48.404   4.239  18.911  0.00  0.00    +0.000 NA
ATOM     14  C   UNL     1      48.661   4.362  20.215  0.00  0.00    +0.000 A 
ATOM     15  N   UNL     1      49.654   5.051  20.770  0.00  0.00    +0.000 NA
ATOM     16  C   UNL     1      50.426   5.679  19.869  0.00  0.00    +0.000 A 
ATOM     17  S   UNL     1      51.751   6.597  20.403  0.00  0.00    +0.000 S 
ATOM     18  C   UNL     1      52.150   7.036  18.811  0.00  0.00    +0.000 A 
ATOM     19  C   UNL     1      51.293   6.510  17.850  0.00  0.00    +0.000 A 
ATOM     20  C   UNL     1      50.280   5.670  18.484  0.00  0.00    +0.000 A 
BRANCH  12  22
ATOM     21  C   UNL     1      47.890   3.825  16.400  0.00  0.00    +0.000 C 
ATOM     22  O   UNL     1      48.973   4.708  16.687  0.00  0.00    +0.000 OA
ENDBRANCH  12  22
ENDBRANCH   8  19
ENDBRANCH   7  10
ENDBRANCH   1   7
BRANCH   4  23
ATOM     23  O   UNL     1      46.140   6.210  11.345  0.00  0.00    +0.000 OA
BRANCH  23  24
ATOM     24  C   UNL     1      45.704   4.886  11.674  0.00  0.00    +0.000 C 
BRANCH  24  25
ATOM     25  C   UNL     1      44.826   4.299  10.535  0.00  0.00    +0.000 C 
ATOM     26  C   UNL     1      44.969   2.773  10.452  0.00  0.00    +0.000 C 
ATOM     27  C   UNL     1      44.792   2.394   8.982  0.00  0.00    +0.000 C 
ATOM     28  C   UNL     1      44.937   3.676   8.169  0.00  0.00    +0.000 C 
ATOM     29  C   UNL     1      45.310   4.777   9.157  0.00  0.00    +0.000 C 
BRANCH  25  30
ATOM     30  C   UNL     1      43.389   4.738  10.846  0.00  0.00    +0.000 C 
ATOM     31  O   UNL     1      42.554   4.005  11.363  0.00  0.00    +0.000 OA
BRANCH  30  32
ATOM     32  O   UNL     1      43.057   6.003  10.517  0.00  0.00    +0.000 OA
ATOM     33  H   UNL     1      42.513   6.118   9.721  0.00  0.00    +0.000 HD
ENDBRANCH  30  32
ENDBRANCH  25  30
ENDBRANCH  24  25
ENDBRANCH  23  24
ENDBRANCH   4  23
TORSDOF 9
ENDMDL
MODEL 6
REMARK VINA RESULT:    -6.359      1.382      1.685
REMARK INTER + INTRA:         -10.845
REMARK INTER:                  -9.479
REMARK INTRA:                  -1.366
REMARK UNBOUND:                -1.327
REMARK  Name = 
REMARK  10 active torsions:
REMARK  status: ('A' for Active; 'I' for Inactive)
REMARK    1  A    between atoms: C_1  and  O_2
REMARK    2  A    between atoms: O_2  and  C_3
REMARK    3  A    between atoms: C_10  and  C_11
REMARK    4  A    between atoms: N_13  and  C_14
REMARK    5  A    between atoms: C_14  and  C_15
REMARK    6  A    between atoms: C_18  and  O_19
REMARK    7  A    between atoms: O_19  and  C_20
REMARK    8  A    between atoms: C_20  and  C_21
REMARK    9  A    between atoms: C_21  and  C_22
REMARK   10  A    between atoms: C_22  and  O_24
REMARK                            x       y       z     vdW  Elec       q    Type
REMARK                         _______ _______ _______ _____ _____    ______ ____
ROOT
ATOM      1  C   UNL     1      48.626   6.000  16.317  0.00  0.00    +0.000 A 
ATOM      2  C   UNL     1      48.698   6.813  15.178  0.00  0.00    +0.000 A 
ATOM      3  C   UNL     1      47.990   6.485  14.012  0.00  0.00    +0.000 A 
ATOM      4  C   UNL     1      47.193   5.342  13.975  0.00  0.00    +0.000 A 
ATOM      5  C   UNL     1      47.092   4.548  15.120  0.00  0.00    +0.000 A 
ATOM      6  C   UNL     1      47.795   4.874  16.283  0.00  0.00    +0.000 A 
ENDROOT
BRANCH   1   7
ATOM      7  C   UNL     1      49.414   6.335  17.558  0.00  0.00    +0.000 C 
BRANCH   7  10
ATOM      8  C   UNL     1      51.731   5.543  17.721  0.00  0.00    +0.000 C 
ATOM      9  O   UNL     1      52.155   6.622  17.311  0.00  0.00    +0.000 OA
ATOM     10  N   UNL     1      50.388   5.316  17.861  0.00  0.00    +0.000 N 
ATOM     11  H   UNL     1      50.049   4.405  18.136  0.00  0.00    +0.000 HD
BRANCH   8  19
ATOM     12  C   UNL     1      51.572   2.106  17.464  0.00  0.00    +0.000 A 
ATOM     13  N   UNL     1      51.740   0.773  17.567  0.00  0.00    +0.000 NA
ATOM     14  C   UNL     1      52.848   0.317  18.157  0.00  0.00    +0.000 A 
ATOM     15  N   UNL     1      53.840   1.045  18.661  0.00  0.00    +0.000 NA
ATOM     16  C   UNL     1      53.630   2.367  18.552  0.00  0.00    +0.000 A 
ATOM     17  S   UNL     1      54.804   3.447  19.134  0.00  0.00    +0.000 S 
ATOM     18  C   UNL     1      53.863   4.788  18.683  0.00  0.00    +0.000 A 
ATOM     19  C   UNL     1      52.648   4.452  18.096  0.00  0.00    +0.000 A 
ATOM     20  C   UNL     1      52.526   3.000  17.987  0.00  0.00    +0.000 A 
BRANCH  12  22
ATOM     21  C   UNL     1      49.484   1.567  16.533  0.00  0.00    +0.000 C 
ATOM     22  O   UNL     1      50.451   2.578  16.813  0.00  0.00    +0.000 OA
ENDBRANCH  12  22
ENDBRANCH   8  19
ENDBRANCH   7  10
ENDBRANCH   1   7
BRANCH   4  23
ATOM     23  O   UNL     1      46.468   4.894  12.905  0.00  0.00    +0.000 OA
BRANCH  23  24
ATOM     24  C   UNL     1      45.369   5.701  12.466  0.00  0.00    +0.000 C 
BRANCH  24  25
ATOM     25  C   UNL     1      44.517   4.940  11.414  0.00  0.00    +0.000 C 
ATOM     26  C   UNL     1      44.642   3.420  11.590  0.00  0.00    +0.000 C 
ATOM     27  C   UNL     1      44.502   2.803  10.199  0.00  0.00    +0.000 C 
ATOM     28  C   UNL     1      44.687   3.931   9.189  0.00  0.00    +0.000 C 
ATOM     29  C   UNL     1      45.046   5.178   9.991  0.00  0.00    +0.000 C 
BRANCH  25  30
ATOM     30  C   UNL     1      43.077   5.436  11.604  0.00  0.00    +0.000 C 
ATOM     31  O   UNL     1      42.342   5.053  12.508  0.00  0.00    +0.000 OA
BRANCH  30  32
ATOM     32  O   UNL     1      42.624   6.338  10.710  0.00  0.00    +0.000 OA
ATOM     33  H   UNL     1      42.844   7.268  10.879  0.00  0.00    +0.000 HD
ENDBRANCH  30  32
ENDBRANCH  25  30
ENDBRANCH  24  25
ENDBRANCH  23  24
ENDBRANCH   4  23
TORSDOF 9
ENDMDL
MODEL 7
REMARK VINA RESULT:    -6.212      3.652      9.457
REMARK INTER + INTRA:         -10.626
REMARK INTER:                  -9.099
REMARK INTRA:                  -1.528
REMARK UNBOUND:                -1.327
REMARK  Name = 
REMARK  10 active torsions:
REMARK  status: ('A' for Active; 'I' for Inactive)
REMARK    1  A    between atoms: C_1  and  O_2
REMARK    2  A    between atoms: O_2  and  C_3
REMARK    3  A    between atoms: C_10  and  C_11
REMARK    4  A    between atoms: N_13  and  C_14
REMARK    5  A    between atoms: C_14  and  C_15
REMARK    6  A    between atoms: C_18  and  O_19
REMARK    7  A    between atoms: O_19  and  C_20
REMARK    8  A    between atoms: C_20  and  C_21
REMARK    9  A    between atoms: C_21  and  C_22
REMARK   10  A    between atoms: C_22  and  O_24
REMARK                            x       y       z     vdW  Elec       q    Type
REMARK                         _______ _______ _______ _____ _____    ______ ____
ROOT
ATOM      1  C   UNL     1      48.585   3.438  17.308  0.00  0.00    +0.000 A 
ATOM      2  C   UNL     1      48.989   4.554  18.053  0.00  0.00    +0.000 A 
ATOM      3  C   UNL     1      50.301   4.658  18.540  0.00  0.00    +0.000 A 
ATOM      4  C   UNL     1      51.227   3.649  18.280  0.00  0.00    +0.000 A 
ATOM      5  C   UNL     1      50.836   2.552  17.509  0.00  0.00    +0.000 A 
ATOM      6  C   UNL     1      49.531   2.447  17.021  0.00  0.00    +0.000 A 
ENDROOT
BRANCH   1   7
ATOM      7  C   UNL     1      47.166   3.311  16.813  0.00  0.00    +0.000 C 
BRANCH   7  10
ATOM      8  C   UNL     1      46.896   4.258  14.566  0.00  0.00    +0.000 C 
ATOM      9  O   UNL     1      47.295   3.215  14.051  0.00  0.00    +0.000 OA
ATOM     10  N   UNL     1      46.814   4.391  15.926  0.00  0.00    +0.000 N 
ATOM     11  H   UNL     1      46.547   5.274  16.339  0.00  0.00    +0.000 HD
BRANCH   8  19
ATOM     12  C   UNL     1      44.103   4.913  12.649  0.00  0.00    +0.000 A 
ATOM     13  N   UNL     1      43.189   5.390  11.782  0.00  0.00    +0.000 NA
ATOM     14  C   UNL     1      43.417   6.573  11.206  0.00  0.00    +0.000 A 
ATOM     15  N   UNL     1      44.467   7.365  11.401  0.00  0.00    +0.000 NA
ATOM     16  C   UNL     1      45.361   6.851  12.261  0.00  0.00    +0.000 A 
ATOM     17  S   UNL     1      46.760   7.736  12.637  0.00  0.00    +0.000 S 
ATOM     18  C   UNL     1      47.320   6.507  13.668  0.00  0.00    +0.000 A 
ATOM     19  C   UNL     1      46.473   5.406  13.744  0.00  0.00    +0.000 A 
ATOM     20  C   UNL     1      45.283   5.629  12.926  0.00  0.00    +0.000 A 
BRANCH  12  22
ATOM     21  C   UNL     1      43.556   2.644  12.382  0.00  0.00    +0.000 C 
ATOM     22  O   UNL     1      43.845   3.713  13.281  0.00  0.00    +0.000 OA
ENDBRANCH  12  22
ENDBRANCH   8  19
ENDBRANCH   7  10
ENDBRANCH   1   7
BRANCH   4  23
ATOM     23  O   UNL     1      52.526   3.612  18.708  0.00  0.00    +0.000 OA
BRANCH  23  24
ATOM     24  C   UNL     1      53.550   3.559  17.708  0.00  0.00    +0.000 C 
BRANCH  24  25
ATOM     25  C   UNL     1      54.168   4.966  17.483  0.00  0.00    +0.000 C 
ATOM     26  C   UNL     1      53.241   5.853  16.639  0.00  0.00    +0.000 C 
ATOM     27  C   UNL     1      54.142   6.786  15.830  0.00  0.00    +0.000 C 
ATOM     28  C   UNL     1      55.552   6.209  15.890  0.00  0.00    +0.000 C 
ATOM     29  C   UNL     1      55.448   4.883  16.636  0.00  0.00    +0.000 C 
BRANCH  25  30
ATOM     30  C   UNL     1      54.417   5.543  18.883  0.00  0.00    +0.000 C 
ATOM     31  O   UNL     1      55.394   5.263  19.567  0.00  0.00    +0.000 OA
BRANCH  30  32
ATOM     32  O   UNL     1      53.489   6.398  19.359  0.00  0.00    +0.000 OA
ATOM     33  H   UNL     1      52.563   6.111  19.305  0.00  0.00    +0.000 HD
ENDBRANCH  30  32
ENDBRANCH  25  30
ENDBRANCH  24  25
ENDBRANCH  23  24
ENDBRANCH   4  23
TORSDOF 9
ENDMDL
MODEL 8
REMARK VINA RESULT:    -6.208      1.688      2.558
REMARK INTER + INTRA:         -10.621
REMARK INTER:                  -9.509
REMARK INTRA:                  -1.111
REMARK UNBOUND:                -1.327
REMARK  Name = 
REMARK  10 active torsions:
REMARK  status: ('A' for Active; 'I' for Inactive)
REMARK    1  A    between atoms: C_1  and  O_2
REMARK    2  A    between atoms: O_2  and  C_3
REMARK    3  A    between atoms: C_10  and  C_11
REMARK    4  A    between atoms: N_13  and  C_14
REMARK    5  A    between atoms: C_14  and  C_15
REMARK    6  A    between atoms: C_18  and  O_19
REMARK    7  A    between atoms: O_19  and  C_20
REMARK    8  A    between atoms: C_20  and  C_21
REMARK    9  A    between atoms: C_21  and  C_22
REMARK   10  A    between atoms: C_22  and  O_24
REMARK                            x       y       z     vdW  Elec       q    Type
REMARK                         _______ _______ _______ _____ _____    ______ ____
ROOT
ATOM      1  C   UNL     1      48.357   5.797  15.697  0.00  0.00    +0.000 A 
ATOM      2  C   UNL     1      48.223   6.579  14.542  0.00  0.00    +0.000 A 
ATOM      3  C   UNL     1      47.328   6.214  13.525  0.00  0.00    +0.000 A 
ATOM      4  C   UNL     1      46.547   5.066  13.657  0.00  0.00    +0.000 A 
ATOM      5  C   UNL     1      46.654   4.304  14.822  0.00  0.00    +0.000 A 
ATOM      6  C   UNL     1      47.545   4.666  15.836  0.00  0.00    +0.000 A 
ENDROOT
BRANCH   1   7
ATOM      7  C   UNL     1      49.344   6.170  16.774  0.00  0.00    +0.000 C 
BRANCH   7  10
ATOM      8  C   UNL     1      50.313   4.255  17.963  0.00  0.00    +0.000 C 
ATOM      9  O   UNL     1      49.410   4.283  18.797  0.00  0.00    +0.000 OA
ATOM     10  N   UNL     1      50.360   5.160  16.937  0.00  0.00    +0.000 N 
ATOM     11  H   UNL     1      51.141   5.168  16.297  0.00  0.00    +0.000 HD
BRANCH   8  19
ATOM     12  C   UNL     1      53.472   4.184  19.348  0.00  0.00    +0.000 A 
ATOM     13  N   UNL     1      54.743   3.912  19.706  0.00  0.00    +0.000 NA
ATOM     14  C   UNL     1      55.262   2.733  19.358  0.00  0.00    +0.000 A 
ATOM     15  N   UNL     1      54.651   1.760  18.686  0.00  0.00    +0.000 NA
ATOM     16  C   UNL     1      53.393   2.073  18.336  0.00  0.00    +0.000 A 
ATOM     17  S   UNL     1      52.460   0.939  17.483  0.00  0.00    +0.000 S 
ATOM     18  C   UNL     1      51.140   2.006  17.412  0.00  0.00    +0.000 A 
ATOM     19  C   UNL     1      51.376   3.235  18.020  0.00  0.00    +0.000 A 
ATOM     20  C   UNL     1      52.715   3.260  18.603  0.00  0.00    +0.000 A 
BRANCH  12  22
ATOM     21  C   UNL     1      52.268   5.316  21.018  0.00  0.00    +0.000 C 
ATOM     22  O   UNL     1      52.918   5.382  19.750  0.00  0.00    +0.000 OA
ENDBRANCH  12  22
ENDBRANCH   8  19
ENDBRANCH   7  10
ENDBRANCH   1   7
BRANCH   4  23
ATOM     23  O   UNL     1      45.653   4.585  12.740  0.00  0.00    +0.000 OA
BRANCH  23  24
ATOM     24  C   UNL     1      45.725   5.109  11.409  0.00  0.00    +0.000 C 
BRANCH  24  25
ATOM     25  C   UNL     1      44.820   4.289  10.449  0.00  0.00    +0.000 C 
ATOM     26  C   UNL     1      45.185   2.798  10.477  0.00  0.00    +0.000 C 
ATOM     27  C   UNL     1      44.898   2.249   9.080  0.00  0.00    +0.000 C 
ATOM     28  C   UNL     1      44.748   3.448   8.150  0.00  0.00    +0.000 C 
ATOM     29  C   UNL     1      45.060   4.686   8.984  0.00  0.00    +0.000 C 
BRANCH  25  30
ATOM     30  C   UNL     1      43.379   4.549  10.907  0.00  0.00    +0.000 C 
ATOM     31  O   UNL     1      42.807   5.624  10.768  0.00  0.00    +0.000 OA
BRANCH  30  32
ATOM     32  O   UNL     1      42.736   3.520  11.495  0.00  0.00    +0.000 OA
ATOM     33  H   UNL     1      43.194   2.664  11.498  0.00  0.00    +0.000 HD
ENDBRANCH  30  32
ENDBRANCH  25  30
ENDBRANCH  24  25
ENDBRANCH  23  24
ENDBRANCH   4  23
TORSDOF 9
ENDMDL
MODEL 9
REMARK VINA RESULT:    -6.193      3.680      9.502
REMARK INTER + INTRA:         -10.598
REMARK INTER:                  -8.985
REMARK INTRA:                  -1.613
REMARK UNBOUND:                -1.327
REMARK  Name = 
REMARK  10 active torsions:
REMARK  status: ('A' for Active; 'I' for Inactive)
REMARK    1  A    between atoms: C_1  and  O_2
REMARK    2  A    between atoms: O_2  and  C_3
REMARK    3  A    between atoms: C_10  and  C_11
REMARK    4  A    between atoms: N_13  and  C_14
REMARK    5  A    between atoms: C_14  and  C_15
REMARK    6  A    between atoms: C_18  and  O_19
REMARK    7  A    between atoms: O_19  and  C_20
REMARK    8  A    between atoms: C_20  and  C_21
REMARK    9  A    between atoms: C_21  and  C_22
REMARK   10  A    between atoms: C_22  and  O_24
REMARK                            x       y       z     vdW  Elec       q    Type
REMARK                         _______ _______ _______ _____ _____    ______ ____
ROOT
ATOM      1  C   UNL     1      48.751   3.401  17.140  0.00  0.00    +0.000 A 
ATOM      2  C   UNL     1      49.673   4.284  17.719  0.00  0.00    +0.000 A 
ATOM      3  C   UNL     1      50.997   3.888  17.957  0.00  0.00    +0.000 A 
ATOM      4  C   UNL     1      51.419   2.606  17.608  0.00  0.00    +0.000 A 
ATOM      5  C   UNL     1      50.512   1.735  17.000  0.00  0.00    +0.000 A 
ATOM      6  C   UNL     1      49.192   2.128  16.761  0.00  0.00    +0.000 A 
ENDROOT
BRANCH   1   7
ATOM      7  C   UNL     1      47.319   3.815  16.915  0.00  0.00    +0.000 C 
BRANCH   7  10
ATOM      8  C   UNL     1      47.138   4.398  14.538  0.00  0.00    +0.000 C 
ATOM      9  O   UNL     1      47.193   3.212  14.218  0.00  0.00    +0.000 OA
ATOM     10  N   UNL     1      47.205   4.781  15.851  0.00  0.00    +0.000 N 
ATOM     11  H   UNL     1      47.225   5.761  16.097  0.00  0.00    +0.000 HD
BRANCH   8  19
ATOM     12  C   UNL     1      48.892   7.281  13.820  0.00  0.00    +0.000 A 
ATOM     13  N   UNL     1      49.324   8.479  13.380  0.00  0.00    +0.000 NA
ATOM     14  C   UNL     1      48.648   9.075  12.395  0.00  0.00    +0.000 A 
ATOM     15  N   UNL     1      47.571   8.607  11.771  0.00  0.00    +0.000 NA
ATOM     16  C   UNL     1      47.163   7.419  12.245  0.00  0.00    +0.000 A 
ATOM     17  S   UNL     1      45.807   6.667  11.553  0.00  0.00    +0.000 S 
ATOM     18  C   UNL     1      45.927   5.355  12.625  0.00  0.00    +0.000 A 
ATOM     19  C   UNL     1      46.981   5.458  13.527  0.00  0.00    +0.000 A 
ATOM     20  C   UNL     1      47.741   6.680  13.275  0.00  0.00    +0.000 A 
BRANCH  12  22
ATOM     21  C   UNL     1      49.804   7.429  15.979  0.00  0.00    +0.000 C 
ATOM     22  O   UNL     1      49.617   6.642  14.805  0.00  0.00    +0.000 OA
ENDBRANCH  12  22
ENDBRANCH   8  19
ENDBRANCH   7  10
ENDBRANCH   1   7
BRANCH   4  23
ATOM     23  O   UNL     1      52.669   2.084  17.801  0.00  0.00    +0.000 OA
BRANCH  23  24
ATOM     24  C   UNL     1      52.770   0.670  18.007  0.00  0.00    +0.000 C 
BRANCH  24  25
ATOM     25  C   UNL     1      54.220   0.181  17.743  0.00  0.00    +0.000 C 
ATOM     26  C   UNL     1      54.436  -0.144  16.258  0.00  0.00    +0.000 C 
ATOM     27  C   UNL     1      55.457  -1.280  16.200  0.00  0.00    +0.000 C 
ATOM     28  C   UNL     1      55.544  -1.875  17.602  0.00  0.00    +0.000 C 
ATOM     29  C   UNL     1      54.492  -1.160  18.443  0.00  0.00    +0.000 C 
BRANCH  25  30
ATOM     30  C   UNL     1      55.139   1.307  18.236  0.00  0.00    +0.000 C 
ATOM     31  O   UNL     1      55.529   1.405  19.394  0.00  0.00    +0.000 OA
BRANCH  30  32
ATOM     32  O   UNL     1      55.516   2.224  17.323  0.00  0.00    +0.000 OA
ATOM     33  H   UNL     1      55.371   1.997  16.390  0.00  0.00    +0.000 HD
ENDBRANCH  30  32
ENDBRANCH  25  30
ENDBRANCH  24  25
ENDBRANCH  23  24
ENDBRANCH   4  23
TORSDOF 9
ENDMDL
