MODEL 1
REMARK VINA RESULT:    -9.147      0.000      0.000
REMARK INTER + INTRA:         -12.658
REMARK INTER:                 -12.355
REMARK INTRA:                  -0.303
REMARK UNBOUND:                -0.303
REMARK  Name = 
REMARK  6 active torsions:
REMARK  status: ('A' for Active; 'I' for Inactive)
REMARK    1  A    between atoms: C_2  and  C_4
REMARK    2  A    between atoms: C_7  and  N_8
REMARK    3  A    between atoms: N_8  and  C_9
REMARK    4  A    between atoms: C_9  and  C_10
REMARK    5  A    between atoms: C_14  and  C_15
REMARK    6  A    between atoms: C_20  and  C_21
REMARK                            x       y       z     vdW  Elec       q    Type
REMARK                         _______ _______ _______ _____ _____    ______ ____
ROOT
ATOM      1  C   UNL     1      43.952   4.983  11.233  0.00  0.00    +0.000 C 
ATOM      2  C   UNL     1      42.977   3.896  11.682  0.00  0.00    +0.000 C 
ATOM      3  C   UNL     1      42.539   5.318  11.712  0.00  0.00    +0.000 C 
ENDROOT
BRANCH   1   4
ATOM      4  C   UNL     1      45.126   5.208  12.207  0.00  0.00    +0.000 A 
ATOM      5  C   UNL     1      45.445   4.265  13.184  0.00  0.00    +0.000 A 
ATOM      6  C   UNL     1      46.654   4.350  13.864  0.00  0.00    +0.000 A 
ATOM      7  C   UNL     1      47.510   5.402  13.578  0.00  0.00    +0.000 A 
ATOM      8  C   UNL     1      47.110   6.372  12.661  0.00  0.00    +0.000 A 
ATOM      9  N   UNL     1      45.941   6.276  11.980  0.00  0.00    +0.000 NA
BRANCH   8  10
ATOM     10  C   UNL     1      47.988   7.497  12.287  0.00  0.00    +0.000 A 
ATOM     11  N   UNL     1      49.294   7.127  12.098  0.00  0.00    +0.000 NA
ATOM     12  C   UNL     1      50.172   8.047  11.652  0.00  0.00    +0.000 A 
ATOM     13  C   UNL     1      49.830   9.352  11.379  0.00  0.00    +0.000 A 
ATOM     14  C   UNL     1      48.515   9.735  11.604  0.00  0.00    +0.000 A 
ATOM     15  C   UNL     1      47.565   8.810  12.086  0.00  0.00    +0.000 A 
BRANCH  15  16
ATOM     16  C   UNL     1      46.178   9.319  12.364  0.00  0.00    +0.000 C 
ATOM     17  F   UNL     1      45.611   8.992  13.552  0.00  0.00    +0.000 F 
ATOM     18  F   UNL     1      46.166  10.692  12.363  0.00  0.00    +0.000 F 
ATOM     19  F   UNL     1      45.287   8.970  11.392  0.00  0.00    +0.000 F 
ENDBRANCH  15  16
ENDBRANCH   8  10
ENDBRANCH   1   4
BRANCH   1  20
ATOM     20  N   UNL     1      44.249   5.196   9.780  0.00  0.00    +0.000 N 
ATOM     21  H   UNL     1      44.686   6.084   9.563  0.00  0.00    +0.000 HD
BRANCH  20  25
ATOM     22  C   UNL     1      46.274   2.108   7.948  0.00  0.00    +0.000 A 
ATOM     23  C   UNL     1      46.476   3.416   7.571  0.00  0.00    +0.000 A 
ATOM     24  N   UNL     1      45.797   4.432   8.137  0.00  0.00    +0.000 NA
ATOM     25  C   UNL     1      44.891   4.135   9.100  0.00  0.00    +0.000 A 
ATOM     26  C   UNL     1      44.691   2.801   9.456  0.00  0.00    +0.000 A 
ATOM     27  N   UNL     1      45.355   1.751   8.889  0.00  0.00    +0.000 NA
BRANCH  22  29
ATOM     28  N   UNL     1      46.830  -0.231   7.668  0.00  0.00    +0.000 N 
ATOM     29  C   UNL     1      47.125   1.059   7.330  0.00  0.00    +0.000 C 
ATOM     30  O   UNL     1      48.047   1.330   6.569  0.00  0.00    +0.000 OA
ATOM     31  H   UNL     1      47.416  -0.975   7.316  0.00  0.00    +0.000 HD
ATOM     32  H   UNL     1      46.087  -0.428   8.323  0.00  0.00    +0.000 HD
ENDBRANCH  22  29
ENDBRANCH  20  25
ENDBRANCH   1  20
TORSDOF 6
ENDMDL
MODEL 2
REMARK VINA RESULT:    -8.798      2.130      2.819
REMARK INTER + INTRA:         -12.186
REMARK INTER:                 -11.124
REMARK INTRA:                  -1.062
REMARK UNBOUND:                -0.303
REMARK  Name = 
REMARK  6 active torsions:
REMARK  status: ('A' for Active; 'I' for Inactive)
REMARK    1  A    between atoms: C_2  and  C_4
REMARK    2  A    between atoms: C_7  and  N_8
REMARK    3  A    between atoms: N_8  and  C_9
REMARK    4  A    between atoms: C_9  and  C_10
REMARK    5  A    between atoms: C_14  and  C_15
REMARK    6  A    between atoms: C_20  and  C_21
REMARK                            x       y       z     vdW  Elec       q    Type
REMARK                         _______ _______ _______ _____ _____    ______ ____
ROOT
ATOM      1  C   UNL     1      44.566   4.992  11.549  0.00  0.00    +0.000 C 
ATOM      2  C   UNL     1      45.270   3.896  12.348  0.00  0.00    +0.000 C 
ATOM      3  C   UNL     1      43.914   4.342  12.770  0.00  0.00    +0.000 C 
ENDROOT
BRANCH   1   4
ATOM      4  C   UNL     1      45.198   6.388  11.716  0.00  0.00    +0.000 A 
ATOM      5  C   UNL     1      44.493   7.545  11.384  0.00  0.00    +0.000 A 
ATOM      6  C   UNL     1      44.964   8.787  11.791  0.00  0.00    +0.000 A 
ATOM      7  C   UNL     1      46.156   8.853  12.496  0.00  0.00    +0.000 A 
ATOM      8  C   UNL     1      46.874   7.681  12.726  0.00  0.00    +0.000 A 
ATOM      9  N   UNL     1      46.402   6.466  12.350  0.00  0.00    +0.000 NA
BRANCH   8  10
ATOM     10  C   UNL     1      48.130   7.678  13.497  0.00  0.00    +0.000 A 
ATOM     11  N   UNL     1      47.957   7.354  14.818  0.00  0.00    +0.000 NA
ATOM     12  C   UNL     1      49.043   7.215  15.602  0.00  0.00    +0.000 A 
ATOM     13  C   UNL     1      50.332   7.390  15.150  0.00  0.00    +0.000 A 
ATOM     14  C   UNL     1      50.506   7.753  13.822  0.00  0.00    +0.000 A 
ATOM     15  C   UNL     1      49.396   7.925  12.968  0.00  0.00    +0.000 A 
BRANCH  15  16
ATOM     16  C   UNL     1      49.666   8.382  11.561  0.00  0.00    +0.000 C 
ATOM     17  F   UNL     1      49.155   9.578  11.175  0.00  0.00    +0.000 F 
ATOM     18  F   UNL     1      51.016   8.523  11.357  0.00  0.00    +0.000 F 
ATOM     19  F   UNL     1      49.274   7.467  10.629  0.00  0.00    +0.000 F 
ENDBRANCH  15  16
ENDBRANCH   8  10
ENDBRANCH   1   4
BRANCH   1  20
ATOM     20  N   UNL     1      43.958   4.697  10.213  0.00  0.00    +0.000 N 
ATOM     21  H   UNL     1      43.536   5.496   9.754  0.00  0.00    +0.000 HD
BRANCH  20  25
ATOM     22  C   UNL     1      46.408   2.515   7.717  0.00  0.00    +0.000 A 
ATOM     23  C   UNL     1      46.369   3.890   7.654  0.00  0.00    +0.000 A 
ATOM     24  N   UNL     1      45.549   4.613   8.440  0.00  0.00    +0.000 NA
ATOM     25  C   UNL     1      44.745   3.950   9.307  0.00  0.00    +0.000 A 
ATOM     26  C   UNL     1      44.791   2.556   9.342  0.00  0.00    +0.000 A 
ATOM     27  N   UNL     1      45.602   1.797   8.548  0.00  0.00    +0.000 NA
BRANCH  22  29
ATOM     28  N   UNL     1      48.484   2.533   6.473  0.00  0.00    +0.000 N 
ATOM     29  C   UNL     1      47.402   1.802   6.874  0.00  0.00    +0.000 C 
ATOM     30  O   UNL     1      47.260   0.630   6.547  0.00  0.00    +0.000 OA
ATOM     31  H   UNL     1      49.159   2.107   5.854  0.00  0.00    +0.000 HD
ATOM     32  H   UNL     1      48.563   3.507   6.729  0.00  0.00    +0.000 HD
ENDBRANCH  22  29
ENDBRANCH  20  25
ENDBRANCH   1  20
TORSDOF 6
ENDMDL
MODEL 3
REMARK VINA RESULT:    -8.642      1.862      2.364
REMARK INTER + INTRA:         -11.976
REMARK INTER:                 -11.866
REMARK INTRA:                  -0.110
REMARK UNBOUND:                -0.303
REMARK  Name = 
REMARK  6 active torsions:
REMARK  status: ('A' for Active; 'I' for Inactive)
REMARK    1  A    between atoms: C_2  and  C_4
REMARK    2  A    between atoms: C_7  and  N_8
REMARK    3  A    between atoms: N_8  and  C_9
REMARK    4  A    between atoms: C_9  and  C_10
REMARK    5  A    between atoms: C_14  and  C_15
REMARK    6  A    between atoms: C_20  and  C_21
REMARK                            x       y       z     vdW  Elec       q    Type
REMARK                         _______ _______ _______ _____ _____    ______ ____
ROOT
ATOM      1  C   UNL     1      44.066   4.795  11.274  0.00  0.00    +0.000 C 
ATOM      2  C   UNL     1      43.600   3.437  11.796  0.00  0.00    +0.000 C 
ATOM      3  C   UNL     1      42.690   4.610  11.916  0.00  0.00    +0.000 C 
ENDROOT
BRANCH   1   4
ATOM      4  C   UNL     1      45.185   5.436  12.119  0.00  0.00    +0.000 A 
ATOM      5  C   UNL     1      45.990   4.665  12.958  0.00  0.00    +0.000 A 
ATOM      6  C   UNL     1      47.152   5.203  13.494  0.00  0.00    +0.000 A 
ATOM      7  C   UNL     1      47.473   6.521  13.210  0.00  0.00    +0.000 A 
ATOM      8  C   UNL     1      46.594   7.282  12.442  0.00  0.00    +0.000 A 
ATOM      9  N   UNL     1      45.472   6.750  11.899  0.00  0.00    +0.000 NA
BRANCH   8  10
ATOM     10  C   UNL     1      46.893   8.679  12.075  0.00  0.00    +0.000 A 
ATOM     11  N   UNL     1      45.791   9.494  12.097  0.00  0.00    +0.000 NA
ATOM     12  C   UNL     1      45.954  10.814  11.883  0.00  0.00    +0.000 A 
ATOM     13  C   UNL     1      47.176  11.397  11.632  0.00  0.00    +0.000 A 
ATOM     14  C   UNL     1      48.287  10.566  11.574  0.00  0.00    +0.000 A 
ATOM     15  C   UNL     1      48.161   9.175  11.777  0.00  0.00    +0.000 A 
BRANCH  15  16
ATOM     16  C   UNL     1      49.402   8.337  11.635  0.00  0.00    +0.000 C 
ATOM     17  F   UNL     1      49.332   7.234  10.848  0.00  0.00    +0.000 F 
ATOM     18  F   UNL     1      50.413   9.077  11.073  0.00  0.00    +0.000 F 
ATOM     19  F   UNL     1      49.901   7.933  12.838  0.00  0.00    +0.000 F 
ENDBRANCH  15  16
ENDBRANCH   8  10
ENDBRANCH   1   4
BRANCH   1  20
ATOM     20  N   UNL     1      44.100   5.083   9.805  0.00  0.00    +0.000 N 
ATOM     21  H   UNL     1      44.274   6.052   9.567  0.00  0.00    +0.000 HD
BRANCH  20  25
ATOM     22  C   UNL     1      46.526   2.556   7.630  0.00  0.00    +0.000 A 
ATOM     23  C   UNL     1      46.584   3.921   7.460  0.00  0.00    +0.000 A 
ATOM     24  N   UNL     1      45.774   4.756   8.140  0.00  0.00    +0.000 NA
ATOM     25  C   UNL     1      44.882   4.217   9.006  0.00  0.00    +0.000 A 
ATOM     26  C   UNL     1      44.830   2.830   9.150  0.00  0.00    +0.000 A 
ATOM     27  N   UNL     1      45.629   1.959   8.465  0.00  0.00    +0.000 NA
BRANCH  22  29
ATOM     28  N   UNL     1      48.607   2.367   6.410  0.00  0.00    +0.000 N 
ATOM     29  C   UNL     1      47.512   1.716   6.904  0.00  0.00    +0.000 C 
ATOM     30  O   UNL     1      47.353   0.511   6.745  0.00  0.00    +0.000 OA
ATOM     31  H   UNL     1      49.278   1.847   5.861  0.00  0.00    +0.000 HD
ATOM     32  H   UNL     1      48.699   3.366   6.525  0.00  0.00    +0.000 HD
ENDBRANCH  22  29
ENDBRANCH  20  25
ENDBRANCH   1  20
TORSDOF 6
ENDMDL
MODEL 4
REMARK VINA RESULT:    -8.319      1.695      2.637
REMARK INTER + INTRA:         -11.540
REMARK INTER:                 -10.590
REMARK INTRA:                  -0.950
REMARK UNBOUND:                -0.303
REMARK  Name = 
REMARK  6 active torsions:
REMARK  status: ('A' for Active; 'I' for Inactive)
REMARK    1  A    between atoms: C_2  and  C_4
REMARK    2  A    between atoms: C_7  and  N_8
REMARK    3  A    between atoms: N_8  and  C_9
REMARK    4  A    between atoms: C_9  and  C_10
REMARK    5  A    between atoms: C_14  and  C_15
REMARK    6  A    between atoms: C_20  and  C_21
REMARK                            x       y       z     vdW  Elec       q    Type
REMARK                         _______ _______ _______ _____ _____    ______ ____
ROOT
ATOM      1  C   UNL     1      44.875   5.487  11.337  0.00  0.00    +0.000 C 
ATOM      2  C   UNL     1      45.584   4.421  12.170  0.00  0.00    +0.000 C 
ATOM      3  C   UNL     1      44.228   4.877  12.580  0.00  0.00    +0.000 C 
ENDROOT
BRANCH   1   4
ATOM      4  C   UNL     1      45.504   6.890  11.455  0.00  0.00    +0.000 A 
ATOM      5  C   UNL     1      44.710   8.037  11.505  0.00  0.00    +0.000 A 
ATOM      6  C   UNL     1      45.267   9.251  11.882  0.00  0.00    +0.000 A 
ATOM      7  C   UNL     1      46.622   9.307  12.170  0.00  0.00    +0.000 A 
ATOM      8  C   UNL     1      47.394   8.158  12.018  0.00  0.00    +0.000 A 
ATOM      9  N   UNL     1      46.847   6.966  11.673  0.00  0.00    +0.000 NA
BRANCH   8  10
ATOM     10  C   UNL     1      48.834   8.141  12.340  0.00  0.00    +0.000 A 
ATOM     11  N   UNL     1      49.633   8.460  11.274  0.00  0.00    +0.000 NA
ATOM     12  C   UNL     1      50.961   8.581  11.469  0.00  0.00    +0.000 A 
ATOM     13  C   UNL     1      51.568   8.393  12.690  0.00  0.00    +0.000 A 
ATOM     14  C   UNL     1      50.762   8.035  13.763  0.00  0.00    +0.000 A 
ATOM     15  C   UNL     1      49.369   7.882  13.601  0.00  0.00    +0.000 A 
BRANCH  15  16
ATOM     16  C   UNL     1      48.577   7.431  14.797  0.00  0.00    +0.000 C 
ATOM     17  F   UNL     1      47.764   6.354  14.647  0.00  0.00    +0.000 F 
ATOM     18  F   UNL     1      49.420   7.064  15.816  0.00  0.00    +0.000 F 
ATOM     19  F   UNL     1      47.815   8.430  15.326  0.00  0.00    +0.000 F 
ENDBRANCH  15  16
ENDBRANCH   8  10
ENDBRANCH   1   4
BRANCH   1  20
ATOM     20  N   UNL     1      44.265   5.146  10.012  0.00  0.00    +0.000 N 
ATOM     21  H   UNL     1      44.056   5.944   9.424  0.00  0.00    +0.000 HD
BRANCH  20  25
ATOM     22  C   UNL     1      46.238   2.139   7.998  0.00  0.00    +0.000 A 
ATOM     23  C   UNL     1      46.485   3.465   7.720  0.00  0.00    +0.000 A 
ATOM     24  N   UNL     1      45.824   4.457   8.347  0.00  0.00    +0.000 NA
ATOM     25  C   UNL     1      44.891   4.119   9.269  0.00  0.00    +0.000 A 
ATOM     26  C   UNL     1      44.646   2.768   9.524  0.00  0.00    +0.000 A 
ATOM     27  N   UNL     1      45.291   1.743   8.894  0.00  0.00    +0.000 NA
BRANCH  22  29
ATOM     28  N   UNL     1      46.821  -0.186   7.663  0.00  0.00    +0.000 N 
ATOM     29  C   UNL     1      47.072   1.113   7.322  0.00  0.00    +0.000 C 
ATOM     30  O   UNL     1      47.943   1.409   6.512  0.00  0.00    +0.000 OA
ATOM     31  H   UNL     1      47.400  -0.915   7.271  0.00  0.00    +0.000 HD
ATOM     32  H   UNL     1      46.121  -0.403   8.358  0.00  0.00    +0.000 HD
ENDBRANCH  22  29
ENDBRANCH  20  25
ENDBRANCH   1  20
TORSDOF 6
ENDMDL
MODEL 5
REMARK VINA RESULT:    -8.308      3.927      7.277
REMARK INTER + INTRA:         -11.524
REMARK INTER:                 -10.320
REMARK INTRA:                  -1.204
REMARK UNBOUND:                -0.303
REMARK  Name = 
REMARK  6 active torsions:
REMARK  status: ('A' for Active; 'I' for Inactive)
REMARK    1  A    between atoms: C_2  and  C_4
REMARK    2  A    between atoms: C_7  and  N_8
REMARK    3  A    between atoms: N_8  and  C_9
REMARK    4  A    between atoms: C_9  and  C_10
REMARK    5  A    between atoms: C_14  and  C_15
REMARK    6  A    between atoms: C_20  and  C_21
REMARK                            x       y       z     vdW  Elec       q    Type
REMARK                         _______ _______ _______ _____ _____    ______ ____
ROOT
ATOM      1  C   UNL     1      47.921   7.401  13.260  0.00  0.00    +0.000 C 
ATOM      2  C   UNL     1      49.055   6.694  12.520  0.00  0.00    +0.000 C 
ATOM      3  C   UNL     1      49.010   8.182  12.523  0.00  0.00    +0.000 C 
ENDROOT
BRANCH   1   4
ATOM      4  C   UNL     1      46.545   7.249  12.581  0.00  0.00    +0.000 A 
ATOM      5  C   UNL     1      45.606   8.281  12.612  0.00  0.00    +0.000 A 
ATOM      6  C   UNL     1      44.498   8.237  11.777  0.00  0.00    +0.000 A 
ATOM      7  C   UNL     1      44.327   7.141  10.947  0.00  0.00    +0.000 A 
ATOM      8  C   UNL     1      45.240   6.090  11.015  0.00  0.00    +0.000 A 
ATOM      9  N   UNL     1      46.336   6.144  11.813  0.00  0.00    +0.000 NA
BRANCH   8  10
ATOM     10  C   UNL     1      45.136   4.911  10.136  0.00  0.00    +0.000 A 
ATOM     11  N   UNL     1      45.790   5.064   8.941  0.00  0.00    +0.000 NA
ATOM     12  C   UNL     1      45.856   4.016   8.096  0.00  0.00    +0.000 A 
ATOM     13  C   UNL     1      45.290   2.790   8.364  0.00  0.00    +0.000 A 
ATOM     14  C   UNL     1      44.597   2.646   9.558  0.00  0.00    +0.000 A 
ATOM     15  C   UNL     1      44.490   3.721  10.466  0.00  0.00    +0.000 A 
BRANCH  15  16
ATOM     16  C   UNL     1      43.668   3.503  11.706  0.00  0.00    +0.000 C 
ATOM     17  F   UNL     1      42.648   4.364  11.948  0.00  0.00    +0.000 F 
ATOM     18  F   UNL     1      43.057   2.275  11.662  0.00  0.00    +0.000 F 
ATOM     19  F   UNL     1      44.429   3.465  12.837  0.00  0.00    +0.000 F 
ENDBRANCH  15  16
ENDBRANCH   8  10
ENDBRANCH   1   4
BRANCH   1  20
ATOM     20  N   UNL     1      47.915   7.484  14.755  0.00  0.00    +0.000 N 
ATOM     21  H   UNL     1      47.077   7.893  15.153  0.00  0.00    +0.000 HD
BRANCH  20  25
ATOM     22  C   UNL     1      48.877   4.136  16.960  0.00  0.00    +0.000 A 
ATOM     23  C   UNL     1      49.612   5.296  17.067  0.00  0.00    +0.000 A 
ATOM     24  N   UNL     1      49.329   6.386  16.328  0.00  0.00    +0.000 NA
ATOM     25  C   UNL     1      48.292   6.317  15.459  0.00  0.00    +0.000 A 
ATOM     26  C   UNL     1      47.571   5.126  15.356  0.00  0.00    +0.000 A 
ATOM     27  N   UNL     1      47.844   4.002  16.082  0.00  0.00    +0.000 NA
BRANCH  22  29
ATOM     28  N   UNL     1      48.486   2.949  19.032  0.00  0.00    +0.000 N 
ATOM     29  C   UNL     1      49.205   3.011  17.872  0.00  0.00    +0.000 C 
ATOM     30  O   UNL     1      50.076   2.189  17.610  0.00  0.00    +0.000 OA
ATOM     31  H   UNL     1      48.711   2.233  19.709  0.00  0.00    +0.000 HD
ATOM     32  H   UNL     1      47.796   3.656  19.241  0.00  0.00    +0.000 HD
ENDBRANCH  22  29
ENDBRANCH  20  25
ENDBRANCH   1  20
TORSDOF 6
ENDMDL
MODEL 6
REMARK VINA RESULT:    -7.963      3.968      6.427
REMARK INTER + INTRA:         -11.059
REMARK INTER:                  -9.776
REMARK INTRA:                  -1.283
REMARK UNBOUND:                -0.303
REMARK  Name = 
REMARK  6 active torsions:
REMARK  status: ('A' for Active; 'I' for Inactive)
REMARK    1  A    between atoms: C_2  and  C_4
REMARK    2  A    between atoms: C_7  and  N_8
REMARK    3  A    between atoms: N_8  and  C_9
REMARK    4  A    between atoms: C_9  and  C_10
REMARK    5  A    between atoms: C_14  and  C_15
REMARK    6  A    between atoms: C_20  and  C_21
REMARK                            x       y       z     vdW  Elec       q    Type
REMARK                         _______ _______ _______ _____ _____    ______ ____
ROOT
ATOM      1  C   UNL     1      48.382   7.981  13.230  0.00  0.00    +0.000 C 
ATOM      2  C   UNL     1      47.580   9.226  12.853  0.00  0.00    +0.000 C 
ATOM      3  C   UNL     1      49.011   9.137  12.452  0.00  0.00    +0.000 C 
ENDROOT
BRANCH   1   4
ATOM      4  C   UNL     1      48.682   7.866  14.737  0.00  0.00    +0.000 A 
ATOM      5  C   UNL     1      48.298   8.869  15.629  0.00  0.00    +0.000 A 
ATOM      6  C   UNL     1      48.328   8.631  16.997  0.00  0.00    +0.000 A 
ATOM      7  C   UNL     1      48.777   7.401  17.454  0.00  0.00    +0.000 A 
ATOM      8  C   UNL     1      49.237   6.463  16.532  0.00  0.00    +0.000 A 
ATOM      9  N   UNL     1      49.185   6.686  15.195  0.00  0.00    +0.000 NA
BRANCH   8  10
ATOM     10  C   UNL     1      49.696   5.125  16.949  0.00  0.00    +0.000 A 
ATOM     11  N   UNL     1      51.061   5.016  17.022  0.00  0.00    +0.000 NA
ATOM     12  C   UNL     1      51.598   3.874  17.493  0.00  0.00    +0.000 A 
ATOM     13  C   UNL     1      50.848   2.795  17.901  0.00  0.00    +0.000 A 
ATOM     14  C   UNL     1      49.467   2.892  17.794  0.00  0.00    +0.000 A 
ATOM     15  C   UNL     1      48.861   4.063  17.292  0.00  0.00    +0.000 A 
BRANCH  15  16
ATOM     16  C   UNL     1      47.364   4.063  17.147  0.00  0.00    +0.000 C 
ATOM     17  F   UNL     1      46.847   4.369  15.931  0.00  0.00    +0.000 F 
ATOM     18  F   UNL     1      46.860   2.815  17.413  0.00  0.00    +0.000 F 
ATOM     19  F   UNL     1      46.752   4.878  18.053  0.00  0.00    +0.000 F 
ENDBRANCH  15  16
ENDBRANCH   8  10
ENDBRANCH   1   4
BRANCH   1  20
ATOM     20  N   UNL     1      48.186   6.690  12.495  0.00  0.00    +0.000 N 
ATOM     21  H   UNL     1      48.764   5.925  12.822  0.00  0.00    +0.000 HD
BRANCH  20  25
ATOM     22  C   UNL     1      44.367   5.259  11.892  0.00  0.00    +0.000 A 
ATOM     23  C   UNL     1      45.112   5.766  10.850  0.00  0.00    +0.000 A 
ATOM     24  N   UNL     1      46.347   6.268  11.039  0.00  0.00    +0.000 NA
ATOM     25  C   UNL     1      46.851   6.268  12.296  0.00  0.00    +0.000 A 
ATOM     26  C   UNL     1      46.073   5.763  13.339  0.00  0.00    +0.000 A 
ATOM     27  N   UNL     1      44.813   5.261  13.179  0.00  0.00    +0.000 NA
BRANCH  22  29
ATOM     28  N   UNL     1      41.967   5.478  11.676  0.00  0.00    +0.000 N 
ATOM     29  C   UNL     1      43.049   4.650  11.581  0.00  0.00    +0.000 C 
ATOM     30  O   UNL     1      42.932   3.471  11.266  0.00  0.00    +0.000 OA
ATOM     31  H   UNL     1      41.044   5.095  11.527  0.00  0.00    +0.000 HD
ATOM     32  H   UNL     1      42.085   6.437  11.969  0.00  0.00    +0.000 HD
ENDBRANCH  22  29
ENDBRANCH  20  25
ENDBRANCH   1  20
TORSDOF 6
ENDMDL
MODEL 7
REMARK VINA RESULT:    -7.932      2.436      3.853
REMARK INTER + INTRA:         -11.017
REMARK INTER:                 -11.906
REMARK INTRA:                   0.889
REMARK UNBOUND:                -0.303
REMARK  Name = 
REMARK  6 active torsions:
REMARK  status: ('A' for Active; 'I' for Inactive)
REMARK    1  A    between atoms: C_2  and  C_4
REMARK    2  A    between atoms: C_7  and  N_8
REMARK    3  A    between atoms: N_8  and  C_9
REMARK    4  A    between atoms: C_9  and  C_10
REMARK    5  A    between atoms: C_14  and  C_15
REMARK    6  A    between atoms: C_20  and  C_21
REMARK                            x       y       z     vdW  Elec       q    Type
REMARK                         _______ _______ _______ _____ _____    ______ ____
ROOT
ATOM      1  C   UNL     1      44.225   4.699  11.560  0.00  0.00    +0.000 C 
ATOM      2  C   UNL     1      43.749   3.539  12.434  0.00  0.00    +0.000 C 
ATOM      3  C   UNL     1      43.000   4.826  12.468  0.00  0.00    +0.000 C 
ENDROOT
BRANCH   1   4
ATOM      4  C   UNL     1      45.550   5.330  12.030  0.00  0.00    +0.000 A 
ATOM      5  C   UNL     1      46.110   6.420  11.363  0.00  0.00    +0.000 A 
ATOM      6  C   UNL     1      47.142   7.140  11.950  0.00  0.00    +0.000 A 
ATOM      7  C   UNL     1      47.624   6.734  13.185  0.00  0.00    +0.000 A 
ATOM      8  C   UNL     1      47.099   5.585  13.773  0.00  0.00    +0.000 A 
ATOM      9  N   UNL     1      46.075   4.896  13.211  0.00  0.00    +0.000 NA
BRANCH   8  10
ATOM     10  C   UNL     1      47.544   5.118  15.099  0.00  0.00    +0.000 A 
ATOM     11  N   UNL     1      46.943   3.952  15.495  0.00  0.00    +0.000 NA
ATOM     12  C   UNL     1      47.344   3.369  16.642  0.00  0.00    +0.000 A 
ATOM     13  C   UNL     1      48.328   3.889  17.452  0.00  0.00    +0.000 A 
ATOM     14  C   UNL     1      48.912   5.089  17.069  0.00  0.00    +0.000 A 
ATOM     15  C   UNL     1      48.512   5.742  15.884  0.00  0.00    +0.000 A 
BRANCH  15  16
ATOM     16  C   UNL     1      49.148   7.069  15.575  0.00  0.00    +0.000 C 
ATOM     17  F   UNL     1      49.857   7.177  14.423  0.00  0.00    +0.000 F 
ATOM     18  F   UNL     1      48.186   8.041  15.458  0.00  0.00    +0.000 F 
ATOM     19  F   UNL     1      49.958   7.509  16.580  0.00  0.00    +0.000 F 
ENDBRANCH  15  16
ENDBRANCH   8  10
ENDBRANCH   1   4
BRANCH   1  20
ATOM     20  N   UNL     1      43.981   4.698  10.082  0.00  0.00    +0.000 N 
ATOM     21  H   UNL     1      43.719   5.597   9.695  0.00  0.00    +0.000 HD
BRANCH  20  25
ATOM     22  C   UNL     1      46.683   2.849   7.578  0.00  0.00    +0.000 A 
ATOM     23  C   UNL     1      45.887   2.118   8.432  0.00  0.00    +0.000 A 
ATOM     24  N   UNL     1      45.024   2.711   9.279  0.00  0.00    +0.000 NA
ATOM     25  C   UNL     1      44.956   4.064   9.278  0.00  0.00    +0.000 A 
ATOM     26  C   UNL     1      45.784   4.785   8.415  0.00  0.00    +0.000 A 
ATOM     27  N   UNL     1      46.677   4.211   7.556  0.00  0.00    +0.000 NA
BRANCH  22  29
ATOM     28  N   UNL     1      47.802   2.743   5.435  0.00  0.00    +0.000 N 
ATOM     29  C   UNL     1      47.545   2.111   6.618  0.00  0.00    +0.000 C 
ATOM     30  O   UNL     1      47.993   0.998   6.865  0.00  0.00    +0.000 OA
ATOM     31  H   UNL     1      48.339   2.258   4.728  0.00  0.00    +0.000 HD
ATOM     32  H   UNL     1      47.395   3.646   5.241  0.00  0.00    +0.000 HD
ENDBRANCH  22  29
ENDBRANCH  20  25
ENDBRANCH   1  20
TORSDOF 6
ENDMDL
MODEL 8
REMARK VINA RESULT:    -7.757      2.239      3.256
REMARK INTER + INTRA:         -10.781
REMARK INTER:                 -10.618
REMARK INTRA:                  -0.163
REMARK UNBOUND:                -0.303
REMARK  Name = 
REMARK  6 active torsions:
REMARK  status: ('A' for Active; 'I' for Inactive)
REMARK    1  A    between atoms: C_2  and  C_4
REMARK    2  A    between atoms: C_7  and  N_8
REMARK    3  A    between atoms: N_8  and  C_9
REMARK    4  A    between atoms: C_9  and  C_10
REMARK    5  A    between atoms: C_14  and  C_15
REMARK    6  A    between atoms: C_20  and  C_21
REMARK                            x       y       z     vdW  Elec       q    Type
REMARK                         _______ _______ _______ _____ _____    ______ ____
ROOT
ATOM      1  C   UNL     1      44.177   4.605  11.364  0.00  0.00    +0.000 C 
ATOM      2  C   UNL     1      44.661   3.518  12.322  0.00  0.00    +0.000 C 
ATOM      3  C   UNL     1      43.272   4.036  12.456  0.00  0.00    +0.000 C 
ENDROOT
BRANCH   1   4
ATOM      4  C   UNL     1      44.832   5.981  11.602  0.00  0.00    +0.000 A 
ATOM      5  C   UNL     1      44.156   7.164  11.304  0.00  0.00    +0.000 A 
ATOM      6  C   UNL     1      44.641   8.378  11.772  0.00  0.00    +0.000 A 
ATOM      7  C   UNL     1      45.819   8.392  12.503  0.00  0.00    +0.000 A 
ATOM      8  C   UNL     1      46.509   7.198  12.698  0.00  0.00    +0.000 A 
ATOM      9  N   UNL     1      46.024   6.009  12.262  0.00  0.00    +0.000 NA
BRANCH   8  10
ATOM     10  C   UNL     1      47.749   7.139  13.495  0.00  0.00    +0.000 A 
ATOM     11  N   UNL     1      48.577   8.212  13.293  0.00  0.00    +0.000 NA
ATOM     12  C   UNL     1      49.691   8.325  14.042  0.00  0.00    +0.000 A 
ATOM     13  C   UNL     1      50.054   7.409  15.003  0.00  0.00    +0.000 A 
ATOM     14  C   UNL     1      49.234   6.303  15.183  0.00  0.00    +0.000 A 
ATOM     15  C   UNL     1      48.066   6.136  14.410  0.00  0.00    +0.000 A 
BRANCH  15  16
ATOM     16  C   UNL     1      47.267   4.880  14.621  0.00  0.00    +0.000 C 
ATOM     17  F   UNL     1      47.460   3.855  13.754  0.00  0.00    +0.000 F 
ATOM     18  F   UNL     1      47.557   4.332  15.846  0.00  0.00    +0.000 F 
ATOM     19  F   UNL     1      45.924   5.115  14.662  0.00  0.00    +0.000 F 
ENDBRANCH  15  16
ENDBRANCH   8  10
ENDBRANCH   1   4
BRANCH   1  20
ATOM     20  N   UNL     1      43.825   4.278   9.946  0.00  0.00    +0.000 N 
ATOM     21  H   UNL     1      43.285   4.990   9.468  0.00  0.00    +0.000 HD
BRANCH  20  25
ATOM     22  C   UNL     1      46.742   2.887   7.386  0.00  0.00    +0.000 A 
ATOM     23  C   UNL     1      45.964   2.019   8.119  0.00  0.00    +0.000 A 
ATOM     24  N   UNL     1      45.030   2.460   8.984  0.00  0.00    +0.000 NA
ATOM     25  C   UNL     1      44.871   3.799   9.124  0.00  0.00    +0.000 A 
ATOM     26  C   UNL     1      45.681   4.660   8.383  0.00  0.00    +0.000 A 
ATOM     27  N   UNL     1      46.644   4.241   7.510  0.00  0.00    +0.000 NA
BRANCH  22  29
ATOM     28  N   UNL     1      47.842   3.020   5.235  0.00  0.00    +0.000 N 
ATOM     29  C   UNL     1      47.688   2.315   6.395  0.00  0.00    +0.000 C 
ATOM     30  O   UNL     1      48.290   1.267   6.596  0.00  0.00    +0.000 OA
ATOM     31  H   UNL     1      48.433   2.641   4.508  0.00  0.00    +0.000 HD
ATOM     32  H   UNL     1      47.309   3.863   5.078  0.00  0.00    +0.000 HD
ENDBRANCH  22  29
ENDBRANCH  20  25
ENDBRANCH   1  20
TORSDOF 6
ENDMDL
MODEL 9
REMARK VINA RESULT:    -7.402      3.927      7.597
REMARK INTER + INTRA:         -10.300
REMARK INTER:                  -9.096
REMARK INTRA:                  -1.204
REMARK UNBOUND:                -0.303
REMARK  Name = 
REMARK  6 active torsions:
REMARK  status: ('A' for Active; 'I' for Inactive)
REMARK    1  A    between atoms: C_2  and  C_4
REMARK    2  A    between atoms: C_7  and  N_8
REMARK    3  A    between atoms: N_8  and  C_9
REMARK    4  A    between atoms: C_9  and  C_10
REMARK    5  A    between atoms: C_14  and  C_15
REMARK    6  A    between atoms: C_20  and  C_21
REMARK                            x       y       z     vdW  Elec       q    Type
REMARK                         _______ _______ _______ _____ _____    ______ ____
ROOT
ATOM      1  C   UNL     1      49.102   8.158  12.616  0.00  0.00    +0.000 C 
ATOM      2  C   UNL     1      49.889   7.191  11.733  0.00  0.00    +0.000 C 
ATOM      3  C   UNL     1      49.876   8.639  11.388  0.00  0.00    +0.000 C 
ENDROOT
BRANCH   1   4
ATOM      4  C   UNL     1      47.573   8.004  12.501  0.00  0.00    +0.000 A 
ATOM      5  C   UNL     1      46.713   9.054  12.825  0.00  0.00    +0.000 A 
ATOM      6  C   UNL     1      45.375   8.995  12.460  0.00  0.00    +0.000 A 
ATOM      7  C   UNL     1      44.908   7.865  11.806  0.00  0.00    +0.000 A 
ATOM      8  C   UNL     1      45.780   6.802  11.584  0.00  0.00    +0.000 A 
ATOM      9  N   UNL     1      47.093   6.869  11.918  0.00  0.00    +0.000 NA
BRANCH   8  10
ATOM     10  C   UNL     1      45.357   5.586  10.864  0.00  0.00    +0.000 A 
ATOM     11  N   UNL     1      45.763   5.560   9.555  0.00  0.00    +0.000 NA
ATOM     12  C   UNL     1      45.528   4.454   8.822  0.00  0.00    +0.000 A 
ATOM     13  C   UNL     1      44.888   3.340   9.316  0.00  0.00    +0.000 A 
ATOM     14  C   UNL     1      44.445   3.380  10.631  0.00  0.00    +0.000 A 
ATOM     15  C   UNL     1      44.656   4.523  11.431  0.00  0.00    +0.000 A 
BRANCH  15  16
ATOM     16  C   UNL     1      44.089   4.511  12.823  0.00  0.00    +0.000 C 
ATOM     17  F   UNL     1      44.930   4.791  13.851  0.00  0.00    +0.000 F 
ATOM     18  F   UNL     1      43.100   5.456  12.943  0.00  0.00    +0.000 F 
ATOM     19  F   UNL     1      43.473   3.332  13.127  0.00  0.00    +0.000 F 
ENDBRANCH  15  16
ENDBRANCH   8  10
ENDBRANCH   1   4
BRANCH   1  20
ATOM     20  N   UNL     1      49.625   8.572  13.957  0.00  0.00    +0.000 N 
ATOM     21  H   UNL     1      49.630   9.572  14.120  0.00  0.00    +0.000 HD
BRANCH  20  25
ATOM     22  C   UNL     1      48.339   6.549  17.311  0.00  0.00    +0.000 A 
ATOM     23  C   UNL     1      48.695   5.875  16.164  0.00  0.00    +0.000 A 
ATOM     24  N   UNL     1      49.085   6.525  15.051  0.00  0.00    +0.000 NA
ATOM     25  C   UNL     1      49.117   7.879  15.080  0.00  0.00    +0.000 A 
ATOM     26  C   UNL     1      48.737   8.542  16.248  0.00  0.00    +0.000 A 
ATOM     27  N   UNL     1      48.325   7.910  17.386  0.00  0.00    +0.000 NA
BRANCH  22  29
ATOM     28  N   UNL     1      46.756   5.193  18.541  0.00  0.00    +0.000 N 
ATOM     29  C   UNL     1      48.003   5.752  18.518  0.00  0.00    +0.000 C 
ATOM     30  O   UNL     1      48.789   5.609  19.447  0.00  0.00    +0.000 OA
ATOM     31  H   UNL     1      46.462   4.688  19.365  0.00  0.00    +0.000 HD
ATOM     32  H   UNL     1      46.113   5.353  17.778  0.00  0.00    +0.000 HD
ENDBRANCH  22  29
ENDBRANCH  20  25
ENDBRANCH   1  20
TORSDOF 6
ENDMDL
