MODEL 1
REMARK VINA RESULT:    -8.397      0.000      0.000
REMARK INTER + INTRA:         -12.617
REMARK INTER:                 -11.342
REMARK INTRA:                  -1.275
REMARK UNBOUND:                -1.275
REMARK  Name = 
REMARK  9 active torsions:
REMARK  status: ('A' for Active; 'I' for Inactive)
REMARK    1  A    between atoms: C_1  and  C_2
REMARK    2  A    between atoms: C_4  and  C_5
REMARK    3  A    between atoms: C_9  and  C_10
REMARK    4  A    between atoms: C_10  and  C_11
REMARK    5  A    between atoms: C_10  and  C_12
REMARK    6  A    between atoms: C_10  and  C_13
REMARK    7  A    between atoms: C_13  and  N_14
REMARK    8  A    between atoms: N_14  and  C_15
REMARK    9  A    between atoms: C_18  and  C_19
REMARK                            x       y       z     vdW  Elec       q    Type
REMARK                         _______ _______ _______ _____ _____    ______ ____
ROOT
ATOM      1  C   UNL     1      43.865   4.693  12.084  0.00  0.00    +0.000 C 
ATOM      2  C   UNL     1      43.966   3.283  12.722  0.00  0.00    +0.000 C 
ATOM      3  C   UNL     1      42.709   5.477  12.742  0.00  0.00    +0.000 C 
ENDROOT
BRANCH   1   8
ATOM      4  C   UNL     1      47.145   5.770  13.840  0.00  0.00    +0.000 A 
ATOM      5  C   UNL     1      47.778   6.478  12.809  0.00  0.00    +0.000 A 
ATOM      6  C   UNL     1      47.138   6.706  11.593  0.00  0.00    +0.000 A 
ATOM      7  C   UNL     1      45.867   6.184  11.359  0.00  0.00    +0.000 A 
ATOM      8  C   UNL     1      45.203   5.430  12.338  0.00  0.00    +0.000 A 
ATOM      9  C   UNL     1      45.844   5.292  13.586  0.00  0.00    +0.000 A 
BRANCH   4  13
ATOM     10  C   UNL     1      47.843   2.903  17.908  0.00  0.00    +0.000 C 
ATOM     11  C   UNL     1      48.171   4.113  17.087  0.00  0.00    +0.000 A 
ATOM     12  C   UNL     1      47.524   4.345  15.878  0.00  0.00    +0.000 A 
ATOM     13  C   UNL     1      47.820   5.498  15.126  0.00  0.00    +0.000 A 
ATOM     14  C   UNL     1      48.793   6.357  15.648  0.00  0.00    +0.000 A 
ATOM     15  C   UNL     1      49.400   6.046  16.852  0.00  0.00    +0.000 A 
ATOM     16  N   UNL     1      49.108   4.950  17.581  0.00  0.00    +0.000 NA
ENDBRANCH   4  13
ENDBRANCH   1   8
BRANCH   1  17
ATOM     17  C   UNL     1      43.586   4.514  10.562  0.00  0.00    +0.000 C 
BRANCH  17  18
ATOM     18  N   UNL     1      43.800   3.145  10.070  0.00  0.00    +0.000 N 
ATOM     19  H   UNL     1      42.933   2.670   9.832  0.00  0.00    +0.000 HD
BRANCH  18  20
ATOM     20  C   UNL     1      44.757   2.980   9.058  0.00  0.00    +0.000 A 
ATOM     21  C   UNL     1      45.279   4.047   8.320  0.00  0.00    +0.000 A 
ATOM     22  C   UNL     1      46.287   3.836   7.383  0.00  0.00    +0.000 A 
ATOM     23  C   UNL     1      46.776   2.552   7.224  0.00  0.00    +0.000 A 
ATOM     24  N   UNL     1      46.331   1.476   7.931  0.00  0.00    +0.000 NA
ATOM     25  C   UNL     1      45.351   1.731   8.833  0.00  0.00    +0.000 A 
BRANCH  23  26
ATOM     26  C   UNL     1      47.879   2.308   6.245  0.00  0.00    +0.000 C 
ATOM     27  N   UNL     1      47.830   3.062   5.104  0.00  0.00    +0.000 N 
ATOM     28  O   UNL     1      48.767   1.487   6.439  0.00  0.00    +0.000 OA
ATOM     29  H   UNL     1      47.060   3.709   4.969  0.00  0.00    +0.000 HD
ATOM     30  H   UNL     1      48.522   2.921   4.387  0.00  0.00    +0.000 HD
ENDBRANCH  23  26
ENDBRANCH  18  20
ENDBRANCH  17  18
ENDBRANCH   1  17
TORSDOF 6
ENDMDL
MODEL 2
REMARK VINA RESULT:    -7.892      2.407      3.838
REMARK INTER + INTRA:         -11.935
REMARK INTER:                 -10.888
REMARK INTRA:                  -1.047
REMARK UNBOUND:                -1.275
REMARK  Name = 
REMARK  9 active torsions:
REMARK  status: ('A' for Active; 'I' for Inactive)
REMARK    1  A    between atoms: C_1  and  C_2
REMARK    2  A    between atoms: C_4  and  C_5
REMARK    3  A    between atoms: C_9  and  C_10
REMARK    4  A    between atoms: C_10  and  C_11
REMARK    5  A    between atoms: C_10  and  C_12
REMARK    6  A    between atoms: C_10  and  C_13
REMARK    7  A    between atoms: C_13  and  N_14
REMARK    8  A    between atoms: N_14  and  C_15
REMARK    9  A    between atoms: C_18  and  C_19
REMARK                            x       y       z     vdW  Elec       q    Type
REMARK                         _______ _______ _______ _____ _____    ______ ____
ROOT
ATOM      1  C   UNL     1      44.263   5.032  12.204  0.00  0.00    +0.000 C 
ATOM      2  C   UNL     1      43.224   5.048  13.355  0.00  0.00    +0.000 C 
ATOM      3  C   UNL     1      43.867   6.074  11.135  0.00  0.00    +0.000 C 
ENDROOT
BRANCH   1   8
ATOM      4  C   UNL     1      47.536   7.001  12.846  0.00  0.00    +0.000 A 
ATOM      5  C   UNL     1      48.018   6.349  13.990  0.00  0.00    +0.000 A 
ATOM      6  C   UNL     1      47.372   5.229  14.507  0.00  0.00    +0.000 A 
ATOM      7  C   UNL     1      46.196   4.763  13.921  0.00  0.00    +0.000 A 
ATOM      8  C   UNL     1      45.644   5.401  12.801  0.00  0.00    +0.000 A 
ATOM      9  C   UNL     1      46.369   6.479  12.254  0.00  0.00    +0.000 A 
BRANCH   4  13
ATOM     10  C   UNL     1      51.641   9.392  11.206  0.00  0.00    +0.000 C 
ATOM     11  C   UNL     1      50.172   9.363  11.497  0.00  0.00    +0.000 A 
ATOM     12  C   UNL     1      49.572   8.215  12.006  0.00  0.00    +0.000 A 
ATOM     13  C   UNL     1      48.196   8.206  12.301  0.00  0.00    +0.000 A 
ATOM     14  C   UNL     1      47.488   9.384  12.039  0.00  0.00    +0.000 A 
ATOM     15  C   UNL     1      48.157  10.478  11.520  0.00  0.00    +0.000 A 
ATOM     16  N   UNL     1      49.478  10.494  11.249  0.00  0.00    +0.000 NA
ENDBRANCH   4  13
ENDBRANCH   1   8
BRANCH   1  17
ATOM     17  C   UNL     1      44.269   3.605  11.579  0.00  0.00    +0.000 C 
BRANCH  17  18
ATOM     18  N   UNL     1      43.739   3.548  10.210  0.00  0.00    +0.000 N 
ATOM     19  H   UNL     1      43.176   4.360   9.969  0.00  0.00    +0.000 HD
BRANCH  18  20
ATOM     20  C   UNL     1      44.655   3.253   9.190  0.00  0.00    +0.000 A 
ATOM     21  C   UNL     1      45.160   4.220   8.315  0.00  0.00    +0.000 A 
ATOM     22  C   UNL     1      46.130   3.888   7.372  0.00  0.00    +0.000 A 
ATOM     23  C   UNL     1      46.598   2.586   7.345  0.00  0.00    +0.000 A 
ATOM     24  N   UNL     1      46.168   1.606   8.187  0.00  0.00    +0.000 NA
ATOM     25  C   UNL     1      45.226   1.978   9.089  0.00  0.00    +0.000 A 
BRANCH  23  26
ATOM     26  C   UNL     1      47.660   2.214   6.362  0.00  0.00    +0.000 C 
ATOM     27  N   UNL     1      47.824   3.082   5.317  0.00  0.00    +0.000 N 
ATOM     28  O   UNL     1      48.340   1.201   6.471  0.00  0.00    +0.000 OA
ATOM     29  H   UNL     1      47.220   3.895   5.246  0.00  0.00    +0.000 HD
ATOM     30  H   UNL     1      48.498   2.872   4.598  0.00  0.00    +0.000 HD
ENDBRANCH  23  26
ENDBRANCH  18  20
ENDBRANCH  17  18
ENDBRANCH   1  17
TORSDOF 6
ENDMDL
MODEL 3
REMARK VINA RESULT:    -7.731      2.465      3.298
REMARK INTER + INTRA:         -11.717
REMARK INTER:                 -10.952
REMARK INTRA:                  -0.765
REMARK UNBOUND:                -1.275
REMARK  Name = 
REMARK  9 active torsions:
REMARK  status: ('A' for Active; 'I' for Inactive)
REMARK    1  A    between atoms: C_1  and  C_2
REMARK    2  A    between atoms: C_4  and  C_5
REMARK    3  A    between atoms: C_9  and  C_10
REMARK    4  A    between atoms: C_10  and  C_11
REMARK    5  A    between atoms: C_10  and  C_12
REMARK    6  A    between atoms: C_10  and  C_13
REMARK    7  A    between atoms: C_13  and  N_14
REMARK    8  A    between atoms: N_14  and  C_15
REMARK    9  A    between atoms: C_18  and  C_19
REMARK                            x       y       z     vdW  Elec       q    Type
REMARK                         _______ _______ _______ _____ _____    ______ ____
ROOT
ATOM      1  C   UNL     1      44.021   4.668  12.318  0.00  0.00    +0.000 C 
ATOM      2  C   UNL     1      45.203   3.683  12.518  0.00  0.00    +0.000 C 
ATOM      3  C   UNL     1      43.077   4.598  13.538  0.00  0.00    +0.000 C 
ENDROOT
BRANCH   1   8
ATOM      4  C   UNL     1      46.609   7.550  12.329  0.00  0.00    +0.000 A 
ATOM      5  C   UNL     1      45.862   8.580  11.740  0.00  0.00    +0.000 A 
ATOM      6  C   UNL     1      44.515   8.406  11.427  0.00  0.00    +0.000 A 
ATOM      7  C   UNL     1      43.896   7.177  11.650  0.00  0.00    +0.000 A 
ATOM      8  C   UNL     1      44.605   6.097  12.196  0.00  0.00    +0.000 A 
ATOM      9  C   UNL     1      45.941   6.334  12.578  0.00  0.00    +0.000 A 
BRANCH   4  13
ATOM     10  C   UNL     1      51.397   7.962  10.862  0.00  0.00    +0.000 C 
ATOM     11  C   UNL     1      50.358   7.922  11.940  0.00  0.00    +0.000 A 
ATOM     12  C   UNL     1      49.011   7.774  11.621  0.00  0.00    +0.000 A 
ATOM     13  C   UNL     1      48.044   7.711  12.641  0.00  0.00    +0.000 A 
ATOM     14  C   UNL     1      48.508   7.824  13.956  0.00  0.00    +0.000 A 
ATOM     15  C   UNL     1      49.863   7.984  14.188  0.00  0.00    +0.000 A 
ATOM     16  N   UNL     1      50.793   8.030  13.213  0.00  0.00    +0.000 NA
ENDBRANCH   4  13
ENDBRANCH   1   8
BRANCH   1  17
ATOM     17  C   UNL     1      43.255   4.246  11.029  0.00  0.00    +0.000 C 
BRANCH  17  18
ATOM     18  N   UNL     1      43.810   4.812   9.791  0.00  0.00    +0.000 N 
ATOM     19  H   UNL     1      44.124   5.773   9.900  0.00  0.00    +0.000 HD
BRANCH  18  20
ATOM     20  C   UNL     1      44.773   4.043   9.121  0.00  0.00    +0.000 A 
ATOM     21  C   UNL     1      44.784   2.645   9.145  0.00  0.00    +0.000 A 
ATOM     22  C   UNL     1      45.715   1.929   8.396  0.00  0.00    +0.000 A 
ATOM     23  C   UNL     1      46.605   2.637   7.607  0.00  0.00    +0.000 A 
ATOM     24  N   UNL     1      46.627   3.995   7.519  0.00  0.00    +0.000 NA
ATOM     25  C   UNL     1      45.701   4.648   8.264  0.00  0.00    +0.000 A 
BRANCH  23  26
ATOM     26  C   UNL     1      47.592   1.888   6.772  0.00  0.00    +0.000 C 
ATOM     27  N   UNL     1      48.652   2.623   6.313  0.00  0.00    +0.000 N 
ATOM     28  O   UNL     1      47.468   0.699   6.506  0.00  0.00    +0.000 OA
ATOM     29  H   UNL     1      48.701   3.613   6.531  0.00  0.00    +0.000 HD
ATOM     30  H   UNL     1      49.334   2.188   5.714  0.00  0.00    +0.000 HD
ENDBRANCH  23  26
ENDBRANCH  18  20
ENDBRANCH  17  18
ENDBRANCH   1  17
TORSDOF 6
ENDMDL
MODEL 4
REMARK VINA RESULT:    -7.286      2.936      8.215
REMARK INTER + INTRA:         -11.117
REMARK INTER:                 -10.169
REMARK INTRA:                  -0.948
REMARK UNBOUND:                -1.275
REMARK  Name = 
REMARK  9 active torsions:
REMARK  status: ('A' for Active; 'I' for Inactive)
REMARK    1  A    between atoms: C_1  and  C_2
REMARK    2  A    between atoms: C_4  and  C_5
REMARK    3  A    between atoms: C_9  and  C_10
REMARK    4  A    between atoms: C_10  and  C_11
REMARK    5  A    between atoms: C_10  and  C_12
REMARK    6  A    between atoms: C_10  and  C_13
REMARK    7  A    between atoms: C_13  and  N_14
REMARK    8  A    between atoms: N_14  and  C_15
REMARK    9  A    between atoms: C_18  and  C_19
REMARK                            x       y       z     vdW  Elec       q    Type
REMARK                         _______ _______ _______ _____ _____    ______ ____
ROOT
ATOM      1  C   UNL     1      46.164   7.135  11.876  0.00  0.00    +0.000 C 
ATOM      2  C   UNL     1      47.577   7.116  11.239  0.00  0.00    +0.000 C 
ATOM      3  C   UNL     1      45.564   8.553  11.764  0.00  0.00    +0.000 C 
ENDROOT
BRANCH   1   8
ATOM      4  C   UNL     1      45.158   4.335   9.396  0.00  0.00    +0.000 A 
ATOM      5  C   UNL     1      43.844   4.074   9.809  0.00  0.00    +0.000 A 
ATOM      6  C   UNL     1      43.233   4.840  10.799  0.00  0.00    +0.000 A 
ATOM      7  C   UNL     1      43.943   5.855  11.439  0.00  0.00    +0.000 A 
ATOM      8  C   UNL     1      45.275   6.133  11.098  0.00  0.00    +0.000 A 
ATOM      9  C   UNL     1      45.833   5.394  10.034  0.00  0.00    +0.000 A 
BRANCH   4  13
ATOM     10  C   UNL     1      46.702  -0.121   7.660  0.00  0.00    +0.000 C 
ATOM     11  C   UNL     1      46.566   1.364   7.516  0.00  0.00    +0.000 A 
ATOM     12  C   UNL     1      45.928   2.116   8.498  0.00  0.00    +0.000 A 
ATOM     13  C   UNL     1      45.827   3.513   8.366  0.00  0.00    +0.000 A 
ATOM     14  C   UNL     1      46.376   4.077   7.210  0.00  0.00    +0.000 A 
ATOM     15  C   UNL     1      46.981   3.258   6.274  0.00  0.00    +0.000 A 
ATOM     16  N   UNL     1      47.092   1.920   6.404  0.00  0.00    +0.000 NA
ENDBRANCH   4  13
ENDBRANCH   1   8
BRANCH   1  17
ATOM     17  C   UNL     1      46.306   6.734  13.375  0.00  0.00    +0.000 C 
BRANCH  17  18
ATOM     18  N   UNL     1      46.572   5.305  13.591  0.00  0.00    +0.000 N 
ATOM     19  H   UNL     1      46.975   4.849  12.776  0.00  0.00    +0.000 HD
BRANCH  18  20
ATOM     20  C   UNL     1      47.274   4.962  14.755  0.00  0.00    +0.000 A 
ATOM     21  C   UNL     1      48.055   5.874  15.472  0.00  0.00    +0.000 A 
ATOM     22  C   UNL     1      48.665   5.502  16.667  0.00  0.00    +0.000 A 
ATOM     23  C   UNL     1      48.453   4.218  17.139  0.00  0.00    +0.000 A 
ATOM     24  N   UNL     1      47.682   3.293  16.504  0.00  0.00    +0.000 NA
ATOM     25  C   UNL     1      47.107   3.702  15.346  0.00  0.00    +0.000 A 
BRANCH  23  26
ATOM     26  C   UNL     1      49.074   3.807  18.434  0.00  0.00    +0.000 C 
ATOM     27  N   UNL     1      48.301   3.004  19.229  0.00  0.00    +0.000 N 
ATOM     28  O   UNL     1      50.195   4.163  18.775  0.00  0.00    +0.000 OA
ATOM     29  H   UNL     1      47.365   2.756  18.923  0.00  0.00    +0.000 HD
ATOM     30  H   UNL     1      48.644   2.721  20.132  0.00  0.00    +0.000 HD
ENDBRANCH  23  26
ENDBRANCH  18  20
ENDBRANCH  17  18
ENDBRANCH   1  17
TORSDOF 6
ENDMDL
MODEL 5
REMARK VINA RESULT:    -7.277      2.953      8.033
REMARK INTER + INTRA:         -11.105
REMARK INTER:                  -9.500
REMARK INTRA:                  -1.605
REMARK UNBOUND:                -1.275
REMARK  Name = 
REMARK  9 active torsions:
REMARK  status: ('A' for Active; 'I' for Inactive)
REMARK    1  A    between atoms: C_1  and  C_2
REMARK    2  A    between atoms: C_4  and  C_5
REMARK    3  A    between atoms: C_9  and  C_10
REMARK    4  A    between atoms: C_10  and  C_11
REMARK    5  A    between atoms: C_10  and  C_12
REMARK    6  A    between atoms: C_10  and  C_13
REMARK    7  A    between atoms: C_13  and  N_14
REMARK    8  A    between atoms: N_14  and  C_15
REMARK    9  A    between atoms: C_18  and  C_19
REMARK                            x       y       z     vdW  Elec       q    Type
REMARK                         _______ _______ _______ _____ _____    ______ ____
ROOT
ATOM      1  C   UNL     1      49.589   8.474  12.399  0.00  0.00    +0.000 C 
ATOM      2  C   UNL     1      50.287   7.849  11.163  0.00  0.00    +0.000 C 
ATOM      3  C   UNL     1      49.963   9.969  12.503  0.00  0.00    +0.000 C 
ENDROOT
BRANCH   1   8
ATOM      4  C   UNL     1      46.149   6.840  11.697  0.00  0.00    +0.000 A 
ATOM      5  C   UNL     1      45.281   7.866  12.099  0.00  0.00    +0.000 A 
ATOM      6  C   UNL     1      45.768   9.108  12.498  0.00  0.00    +0.000 A 
ATOM      7  C   UNL     1      47.142   9.338  12.555  0.00  0.00    +0.000 A 
ATOM      8  C   UNL     1      48.059   8.335  12.206  0.00  0.00    +0.000 A 
ATOM      9  C   UNL     1      47.529   7.120  11.727  0.00  0.00    +0.000 A 
BRANCH   4  13
ATOM     10  C   UNL     1      44.766   3.560   8.150  0.00  0.00    +0.000 C 
ATOM     11  C   UNL     1      44.988   3.916   9.588  0.00  0.00    +0.000 A 
ATOM     12  C   UNL     1      45.465   5.175   9.941  0.00  0.00    +0.000 A 
ATOM     13  C   UNL     1      45.647   5.509  11.296  0.00  0.00    +0.000 A 
ATOM     14  C   UNL     1      45.345   4.518  12.235  0.00  0.00    +0.000 A 
ATOM     15  C   UNL     1      44.889   3.286  11.801  0.00  0.00    +0.000 A 
ATOM     16  N   UNL     1      44.700   2.967  10.504  0.00  0.00    +0.000 NA
ENDBRANCH   4  13
ENDBRANCH   1   8
BRANCH   1  17
ATOM     17  C   UNL     1      50.081   7.713  13.666  0.00  0.00    +0.000 C 
BRANCH  17  18
ATOM     18  N   UNL     1      49.305   8.006  14.880  0.00  0.00    +0.000 N 
ATOM     19  H   UNL     1      48.600   8.724  14.736  0.00  0.00    +0.000 HD
BRANCH  18  20
ATOM     20  C   UNL     1      48.768   6.906  15.566  0.00  0.00    +0.000 A 
ATOM     21  C   UNL     1      48.002   5.918  14.940  0.00  0.00    +0.000 A 
ATOM     22  C   UNL     1      47.561   4.805  15.652  0.00  0.00    +0.000 A 
ATOM     23  C   UNL     1      47.926   4.691  16.982  0.00  0.00    +0.000 A 
ATOM     24  N   UNL     1      48.693   5.603  17.640  0.00  0.00    +0.000 NA
ATOM     25  C   UNL     1      49.100   6.668  16.906  0.00  0.00    +0.000 A 
BRANCH  23  26
ATOM     26  C   UNL     1      47.489   3.490  17.756  0.00  0.00    +0.000 C 
ATOM     27  N   UNL     1      48.267   3.171  18.836  0.00  0.00    +0.000 N 
ATOM     28  O   UNL     1      46.507   2.825  17.451  0.00  0.00    +0.000 OA
ATOM     29  H   UNL     1      49.091   3.729  19.037  0.00  0.00    +0.000 HD
ATOM     30  H   UNL     1      48.050   2.351  19.379  0.00  0.00    +0.000 HD
ENDBRANCH  23  26
ENDBRANCH  18  20
ENDBRANCH  17  18
ENDBRANCH   1  17
TORSDOF 6
ENDMDL
MODEL 6
REMARK VINA RESULT:    -6.630      3.019      5.257
REMARK INTER + INTRA:         -10.230
REMARK INTER:                  -8.910
REMARK INTRA:                  -1.321
REMARK UNBOUND:                -1.275
REMARK  Name = 
REMARK  9 active torsions:
REMARK  status: ('A' for Active; 'I' for Inactive)
REMARK    1  A    between atoms: C_1  and  C_2
REMARK    2  A    between atoms: C_4  and  C_5
REMARK    3  A    between atoms: C_9  and  C_10
REMARK    4  A    between atoms: C_10  and  C_11
REMARK    5  A    between atoms: C_10  and  C_12
REMARK    6  A    between atoms: C_10  and  C_13
REMARK    7  A    between atoms: C_13  and  N_14
REMARK    8  A    between atoms: N_14  and  C_15
REMARK    9  A    between atoms: C_18  and  C_19
REMARK                            x       y       z     vdW  Elec       q    Type
REMARK                         _______ _______ _______ _____ _____    ______ ____
ROOT
ATOM      1  C   UNL     1      48.506   8.565  13.169  0.00  0.00    +0.000 C 
ATOM      2  C   UNL     1      49.210   9.935  12.989  0.00  0.00    +0.000 C 
ATOM      3  C   UNL     1      49.305   7.471  12.428  0.00  0.00    +0.000 C 
ENDROOT
BRANCH   1   8
ATOM      4  C   UNL     1      48.852   6.568  16.470  0.00  0.00    +0.000 A 
ATOM      5  C   UNL     1      48.717   7.594  17.416  0.00  0.00    +0.000 A 
ATOM      6  C   UNL     1      48.419   8.898  17.028  0.00  0.00    +0.000 A 
ATOM      7  C   UNL     1      48.300   9.219  15.677  0.00  0.00    +0.000 A 
ATOM      8  C   UNL     1      48.468   8.242  14.684  0.00  0.00    +0.000 A 
ATOM      9  C   UNL     1      48.685   6.918  15.116  0.00  0.00    +0.000 A 
BRANCH   4  13
ATOM     10  C   UNL     1      52.176   3.164  18.088  0.00  0.00    +0.000 C 
ATOM     11  C   UNL     1      50.791   3.539  17.657  0.00  0.00    +0.000 A 
ATOM     12  C   UNL     1      50.492   4.848  17.293  0.00  0.00    +0.000 A 
ATOM     13  C   UNL     1      49.194   5.186  16.865  0.00  0.00    +0.000 A 
ATOM     14  C   UNL     1      48.249   4.155  16.848  0.00  0.00    +0.000 A 
ATOM     15  C   UNL     1      48.624   2.881  17.239  0.00  0.00    +0.000 A 
ATOM     16  N   UNL     1      49.870   2.552  17.636  0.00  0.00    +0.000 NA
ENDBRANCH   4  13
ENDBRANCH   1   8
BRANCH   1  17
ATOM     17  C   UNL     1      47.073   8.677  12.568  0.00  0.00    +0.000 C 
BRANCH  17  18
ATOM     18  N   UNL     1      46.052   7.921  13.308  0.00  0.00    +0.000 N 
ATOM     19  H   UNL     1      45.243   8.485  13.554  0.00  0.00    +0.000 HD
BRANCH  18  20
ATOM     20  C   UNL     1      45.658   6.691  12.762  0.00  0.00    +0.000 A 
ATOM     21  C   UNL     1      46.010   5.459  13.323  0.00  0.00    +0.000 A 
ATOM     22  C   UNL     1      45.524   4.269  12.788  0.00  0.00    +0.000 A 
ATOM     23  C   UNL     1      44.662   4.341  11.707  0.00  0.00    +0.000 A 
ATOM     24  N   UNL     1      44.259   5.509  11.133  0.00  0.00    +0.000 NA
ATOM     25  C   UNL     1      44.757   6.640  11.690  0.00  0.00    +0.000 A 
BRANCH  23  26
ATOM     26  C   UNL     1      44.105   3.079  11.135  0.00  0.00    +0.000 C 
ATOM     27  N   UNL     1      44.883   2.466  10.191  0.00  0.00    +0.000 N 
ATOM     28  O   UNL     1      43.023   2.617  11.476  0.00  0.00    +0.000 OA
ATOM     29  H   UNL     1      45.760   2.897   9.914  0.00  0.00    +0.000 HD
ATOM     30  H   UNL     1      44.549   1.631   9.738  0.00  0.00    +0.000 HD
ENDBRANCH  23  26
ENDBRANCH  18  20
ENDBRANCH  17  18
ENDBRANCH   1  17
TORSDOF 6
ENDMDL
MODEL 7
REMARK VINA RESULT:    -6.513      1.964      3.255
REMARK INTER + INTRA:         -10.072
REMARK INTER:                  -9.876
REMARK INTRA:                  -0.196
REMARK UNBOUND:                -1.275
REMARK  Name = 
REMARK  9 active torsions:
REMARK  status: ('A' for Active; 'I' for Inactive)
REMARK    1  A    between atoms: C_1  and  C_2
REMARK    2  A    between atoms: C_4  and  C_5
REMARK    3  A    between atoms: C_9  and  C_10
REMARK    4  A    between atoms: C_10  and  C_11
REMARK    5  A    between atoms: C_10  and  C_12
REMARK    6  A    between atoms: C_10  and  C_13
REMARK    7  A    between atoms: C_13  and  N_14
REMARK    8  A    between atoms: N_14  and  C_15
REMARK    9  A    between atoms: C_18  and  C_19
REMARK                            x       y       z     vdW  Elec       q    Type
REMARK                         _______ _______ _______ _____ _____    ______ ____
ROOT
ATOM      1  C   UNL     1      45.353   6.138  11.672  0.00  0.00    +0.000 C 
ATOM      2  C   UNL     1      44.623   7.439  12.093  0.00  0.00    +0.000 C 
ATOM      3  C   UNL     1      46.256   6.423  10.452  0.00  0.00    +0.000 C 
ENDROOT
BRANCH   1   8
ATOM      4  C   UNL     1      48.059   6.208  14.442  0.00  0.00    +0.000 A 
ATOM      5  C   UNL     1      47.697   5.082  15.195  0.00  0.00    +0.000 A 
ATOM      6  C   UNL     1      46.666   4.240  14.784  0.00  0.00    +0.000 A 
ATOM      7  C   UNL     1      45.936   4.535  13.634  0.00  0.00    +0.000 A 
ATOM      8  C   UNL     1      46.225   5.672  12.864  0.00  0.00    +0.000 A 
ATOM      9  C   UNL     1      47.328   6.453  13.263  0.00  0.00    +0.000 A 
BRANCH   4  13
ATOM     10  C   UNL     1      52.056   9.081  13.430  0.00  0.00    +0.000 C 
ATOM     11  C   UNL     1      51.057   8.522  14.397  0.00  0.00    +0.000 A 
ATOM     12  C   UNL     1      50.052   7.664  13.960  0.00  0.00    +0.000 A 
ATOM     13  C   UNL     1      49.133   7.124  14.879  0.00  0.00    +0.000 A 
ATOM     14  C   UNL     1      49.280   7.509  16.216  0.00  0.00    +0.000 A 
ATOM     15  C   UNL     1      50.298   8.378  16.566  0.00  0.00    +0.000 A 
ATOM     16  N   UNL     1      51.189   8.886  15.690  0.00  0.00    +0.000 NA
ENDBRANCH   4  13
ENDBRANCH   1   8
BRANCH   1  17
ATOM     17  C   UNL     1      44.274   5.078  11.299  0.00  0.00    +0.000 C 
BRANCH  17  18
ATOM     18  N   UNL     1      44.074   4.910   9.853  0.00  0.00    +0.000 N 
ATOM     19  H   UNL     1      44.054   5.794   9.350  0.00  0.00    +0.000 HD
BRANCH  18  20
ATOM     20  C   UNL     1      44.903   3.984   9.204  0.00  0.00    +0.000 A 
ATOM     21  C   UNL     1      44.832   2.606   9.432  0.00  0.00    +0.000 A 
ATOM     22  C   UNL     1      45.623   1.723   8.701  0.00  0.00    +0.000 A 
ATOM     23  C   UNL     1      46.456   2.243   7.726  0.00  0.00    +0.000 A 
ATOM     24  N   UNL     1      46.550   3.571   7.436  0.00  0.00    +0.000 NA
ATOM     25  C   UNL     1      45.759   4.390   8.172  0.00  0.00    +0.000 A 
BRANCH  23  26
ATOM     26  C   UNL     1      47.291   1.312   6.908  0.00  0.00    +0.000 C 
ATOM     27  N   UNL     1      48.344   1.888   6.251  0.00  0.00    +0.000 N 
ATOM     28  O   UNL     1      47.055   0.113   6.821  0.00  0.00    +0.000 OA
ATOM     29  H   UNL     1      48.487   2.891   6.325  0.00  0.00    +0.000 HD
ATOM     30  H   UNL     1      48.924   1.324   5.653  0.00  0.00    +0.000 HD
ENDBRANCH  23  26
ENDBRANCH  18  20
ENDBRANCH  17  18
ENDBRANCH   1  17
TORSDOF 6
ENDMDL
MODEL 8
REMARK VINA RESULT:    -6.347      3.591      5.971
REMARK INTER + INTRA:          -9.848
REMARK INTER:                  -8.984
REMARK INTRA:                  -0.864
REMARK UNBOUND:                -1.275
REMARK  Name = 
REMARK  9 active torsions:
REMARK  status: ('A' for Active; 'I' for Inactive)
REMARK    1  A    between atoms: C_1  and  C_2
REMARK    2  A    between atoms: C_4  and  C_5
REMARK    3  A    between atoms: C_9  and  C_10
REMARK    4  A    between atoms: C_10  and  C_11
REMARK    5  A    between atoms: C_10  and  C_12
REMARK    6  A    between atoms: C_10  and  C_13
REMARK    7  A    between atoms: C_13  and  N_14
REMARK    8  A    between atoms: N_14  and  C_15
REMARK    9  A    between atoms: C_18  and  C_19
REMARK                            x       y       z     vdW  Elec       q    Type
REMARK                         _______ _______ _______ _____ _____    ______ ____
ROOT
ATOM      1  C   UNL     1      48.083   4.483  16.839  0.00  0.00    +0.000 C 
ATOM      2  C   UNL     1      48.056   2.934  16.770  0.00  0.00    +0.000 C 
ATOM      3  C   UNL     1      47.209   4.965  18.017  0.00  0.00    +0.000 C 
ENDROOT
BRANCH   1   8
ATOM      4  C   UNL     1      51.834   4.286  17.786  0.00  0.00    +0.000 A 
ATOM      5  C   UNL     1      52.303   5.501  17.267  0.00  0.00    +0.000 A 
ATOM      6  C   UNL     1      51.430   6.431  16.707  0.00  0.00    +0.000 A 
ATOM      7  C   UNL     1      50.070   6.144  16.604  0.00  0.00    +0.000 A 
ATOM      8  C   UNL     1      49.550   4.926  17.067  0.00  0.00    +0.000 A 
ATOM      9  C   UNL     1      50.448   4.046  17.704  0.00  0.00    +0.000 A 
BRANCH   4  13
ATOM     10  C   UNL     1      53.944  -0.274  17.708  0.00  0.00    +0.000 C 
ATOM     11  C   UNL     1      53.783   1.083  18.322  0.00  0.00    +0.000 A 
ATOM     12  C   UNL     1      52.916   2.016  17.762  0.00  0.00    +0.000 A 
ATOM     13  C   UNL     1      52.751   3.280  18.360  0.00  0.00    +0.000 A 
ATOM     14  C   UNL     1      53.507   3.535  19.508  0.00  0.00    +0.000 A 
ATOM     15  C   UNL     1      54.358   2.558  19.995  0.00  0.00    +0.000 A 
ATOM     16  N   UNL     1      54.507   1.342  19.432  0.00  0.00    +0.000 NA
ENDBRANCH   4  13
ENDBRANCH   1   8
BRANCH   1  17
ATOM     17  C   UNL     1      47.518   5.035  15.496  0.00  0.00    +0.000 C 
BRANCH  17  18
ATOM     18  N   UNL     1      46.404   4.249  14.947  0.00  0.00    +0.000 N 
ATOM     19  H   UNL     1      45.576   4.269  15.537  0.00  0.00    +0.000 HD
BRANCH  18  20
ATOM     20  C   UNL     1      46.069   4.482  13.605  0.00  0.00    +0.000 A 
ATOM     21  C   UNL     1      46.446   5.638  12.914  0.00  0.00    +0.000 A 
ATOM     22  C   UNL     1      46.156   5.782  11.559  0.00  0.00    +0.000 A 
ATOM     23  C   UNL     1      45.514   4.741  10.912  0.00  0.00    +0.000 A 
ATOM     24  N   UNL     1      45.146   3.580  11.521  0.00  0.00    +0.000 NA
ATOM     25  C   UNL     1      45.451   3.485  12.838  0.00  0.00    +0.000 A 
BRANCH  23  26
ATOM     26  C   UNL     1      45.221   4.862   9.452  0.00  0.00    +0.000 C 
ATOM     27  N   UNL     1      43.973   4.453   9.067  0.00  0.00    +0.000 N 
ATOM     28  O   UNL     1      46.036   5.291   8.645  0.00  0.00    +0.000 OA
ATOM     29  H   UNL     1      43.337   4.075   9.762  0.00  0.00    +0.000 HD
ATOM     30  H   UNL     1      43.723   4.472   8.092  0.00  0.00    +0.000 HD
ENDBRANCH  23  26
ENDBRANCH  18  20
ENDBRANCH  17  18
ENDBRANCH   1  17
TORSDOF 6
ENDMDL
MODEL 9
REMARK VINA RESULT:    -6.183      3.361      6.054
REMARK INTER + INTRA:          -9.627
REMARK INTER:                  -8.645
REMARK INTRA:                  -0.982
REMARK UNBOUND:                -1.275
REMARK  Name = 
REMARK  9 active torsions:
REMARK  status: ('A' for Active; 'I' for Inactive)
REMARK    1  A    between atoms: C_1  and  C_2
REMARK    2  A    between atoms: C_4  and  C_5
REMARK    3  A    between atoms: C_9  and  C_10
REMARK    4  A    between atoms: C_10  and  C_11
REMARK    5  A    between atoms: C_10  and  C_12
REMARK    6  A    between atoms: C_10  and  C_13
REMARK    7  A    between atoms: C_13  and  N_14
REMARK    8  A    between atoms: N_14  and  C_15
REMARK    9  A    between atoms: C_18  and  C_19
REMARK                            x       y       z     vdW  Elec       q    Type
REMARK                         _______ _______ _______ _____ _____    ______ ____
ROOT
ATOM      1  C   UNL     1      49.207   7.008  15.534  0.00  0.00    +0.000 C 
ATOM      2  C   UNL     1      48.390   8.166  16.163  0.00  0.00    +0.000 C 
ATOM      3  C   UNL     1      50.691   7.419  15.428  0.00  0.00    +0.000 C 
ENDROOT
BRANCH   1   8
ATOM      4  C   UNL     1      50.232   4.043  17.805  0.00  0.00    +0.000 A 
ATOM      5  C   UNL     1      48.995   3.699  18.368  0.00  0.00    +0.000 A 
ATOM      6  C   UNL     1      47.820   4.329  17.965  0.00  0.00    +0.000 A 
ATOM      7  C   UNL     1      47.861   5.356  17.024  0.00  0.00    +0.000 A 
ATOM      8  C   UNL     1      49.076   5.773  16.459  0.00  0.00    +0.000 A 
ATOM      9  C   UNL     1      50.233   5.057  16.827  0.00  0.00    +0.000 A 
BRANCH   4  13
ATOM     10  C   UNL     1      53.525   0.252  17.601  0.00  0.00    +0.000 C 
ATOM     11  C   UNL     1      53.091   1.581  18.141  0.00  0.00    +0.000 A 
ATOM     12  C   UNL     1      51.904   2.166  17.711  0.00  0.00    +0.000 A 
ATOM     13  C   UNL     1      51.490   3.402  18.242  0.00  0.00    +0.000 A 
ATOM     14  C   UNL     1      52.335   3.995  19.187  0.00  0.00    +0.000 A 
ATOM     15  C   UNL     1      53.506   3.354  19.550  0.00  0.00    +0.000 A 
ATOM     16  N   UNL     1      53.897   2.163  19.053  0.00  0.00    +0.000 NA
ENDBRANCH   4  13
ENDBRANCH   1   8
BRANCH   1  17
ATOM     17  C   UNL     1      48.630   6.727  14.114  0.00  0.00    +0.000 C 
BRANCH  17  18
ATOM     18  N   UNL     1      47.207   7.063  13.968  0.00  0.00    +0.000 N 
ATOM     19  H   UNL     1      47.056   8.016  13.646  0.00  0.00    +0.000 HD
BRANCH  18  20
ATOM     20  C   UNL     1      46.416   6.159  13.244  0.00  0.00    +0.000 A 
ATOM     21  C   UNL     1      46.038   6.370  11.914  0.00  0.00    +0.000 A 
ATOM     22  C   UNL     1      45.320   5.402  11.218  0.00  0.00    +0.000 A 
ATOM     23  C   UNL     1      45.018   4.217  11.866  0.00  0.00    +0.000 A 
ATOM     24  N   UNL     1      45.380   3.939  13.149  0.00  0.00    +0.000 NA
ATOM     25  C   UNL     1      46.080   4.911  13.785  0.00  0.00    +0.000 A 
BRANCH  23  26
ATOM     26  C   UNL     1      44.274   3.152  11.128  0.00  0.00    +0.000 C 
ATOM     27  N   UNL     1      45.000   2.469  10.191  0.00  0.00    +0.000 N 
ATOM     28  O   UNL     1      43.093   2.903  11.336  0.00  0.00    +0.000 OA
ATOM     29  H   UNL     1      45.968   2.727  10.028  0.00  0.00    +0.000 HD
ATOM     30  H   UNL     1      44.549   1.763   9.631  0.00  0.00    +0.000 HD
ENDBRANCH  23  26
ENDBRANCH  18  20
ENDBRANCH  17  18
ENDBRANCH   1  17
TORSDOF 6
ENDMDL
