MODEL 1
REMARK VINA RESULT:    -8.772      0.000      0.000
REMARK INTER + INTRA:         -12.690
REMARK INTER:                 -11.849
REMARK INTRA:                  -0.841
REMARK UNBOUND:                -0.841
REMARK  Name = 
REMARK  6 active torsions:
REMARK  status: ('A' for Active; 'I' for Inactive)
REMARK    1  A    between atoms: C_2  and  C_19
REMARK    2  A    between atoms: N_3  and  C_4
REMARK    3  A    between atoms: C_4  and  C_5
REMARK    4  A    between atoms: C_8  and  C_9
REMARK    5  A    between atoms: C_9  and  O_10
REMARK    6  A    between atoms: O_10  and  C_11
REMARK                            x       y       z     vdW  Elec       q    Type
REMARK                         _______ _______ _______ _____ _____    ______ ____
ROOT
ATOM      1  O   UNL     1      48.943   6.600  13.125  0.00  0.00    +0.000 OA
ATOM      2  C   UNL     1      48.186   6.585  14.091  0.00  0.00    +0.000 C 
ATOM      3  N   UNL     1      46.851   6.878  13.985  0.00  0.00    +0.000 N 
ATOM      4  H   UNL     1      46.312   7.036  14.829  0.00  0.00    +0.000 HD
ENDROOT
BRANCH   2   5
ATOM      5  C   UNL     1      48.658   6.194  15.426  0.00  0.00    +0.000 A 
ATOM      6  C   UNL     1      49.587   6.987  16.084  0.00  0.00    +0.000 A 
ATOM      7  S   UNL     1      50.042   6.381  17.613  0.00  0.00    +0.000 S 
ATOM      8  C   UNL     1      48.978   5.061  17.466  0.00  0.00    +0.000 A 
ATOM      9  N   UNL     1      48.854   4.151  18.471  0.00  0.00    +0.000 NA
ATOM     10  C   UNL     1      47.977   3.229  18.248  0.00  0.00    +0.000 A 
ATOM     11  N   UNL     1      47.224   3.129  17.108  0.00  0.00    +0.000 N 
ATOM     12  C   UNL     1      47.370   3.978  16.038  0.00  0.00    +0.000 A 
ATOM     13  O   UNL     1      46.776   3.780  14.984  0.00  0.00    +0.000 OA
ATOM     14  C   UNL     1      48.307   5.066  16.257  0.00  0.00    +0.000 A 
ATOM     15  H   UNL     1      46.577   2.364  16.982  0.00  0.00    +0.000 HD
ENDBRANCH   2   5
BRANCH   3  16
ATOM     16  C   UNL     1      46.255   7.349  12.761  0.00  0.00    +0.000 C 
BRANCH  16  17
ATOM     17  C   UNL     1      45.791   6.201  11.905  0.00  0.00    +0.000 A 
ATOM     18  C   UNL     1      45.996   6.228  10.521  0.00  0.00    +0.000 A 
ATOM     19  C   UNL     1      45.562   5.172   9.718  0.00  0.00    +0.000 A 
ATOM     20  C   UNL     1      44.895   4.078  10.282  0.00  0.00    +0.000 A 
ATOM     21  C   UNL     1      44.686   4.050  11.667  0.00  0.00    +0.000 A 
ATOM     22  C   UNL     1      45.119   5.108  12.470  0.00  0.00    +0.000 A 
BRANCH  20  23
ATOM     23  C   UNL     1      44.398   2.954   9.408  0.00  0.00    +0.000 C 
BRANCH  23  24
ATOM     24  O   UNL     1      45.454   2.026   9.166  0.00  0.00    +0.000 OA
BRANCH  24  25
ATOM     25  C   UNL     1      46.120   2.169   7.981  0.00  0.00    +0.000 A 
ATOM     26  C   UNL     1      45.955   3.202   7.060  0.00  0.00    +0.000 A 
ATOM     27  C   UNL     1      46.713   3.214   5.891  0.00  0.00    +0.000 A 
ATOM     28  C   UNL     1      47.617   2.188   5.677  0.00  0.00    +0.000 A 
ATOM     29  N   UNL     1      47.805   1.168   6.540  0.00  0.00    +0.000 NA
ATOM     30  C   UNL     1      47.052   1.184   7.669  0.00  0.00    +0.000 A 
ENDBRANCH  24  25
ENDBRANCH  23  24
ENDBRANCH  20  23
ENDBRANCH  16  17
ENDBRANCH   3  16
TORSDOF 6
ENDMDL
MODEL 2
REMARK VINA RESULT:    -8.313      1.145      1.279
REMARK INTER + INTRA:         -12.070
REMARK INTER:                 -11.107
REMARK INTRA:                  -0.963
REMARK UNBOUND:                -0.841
REMARK  Name = 
REMARK  6 active torsions:
REMARK  status: ('A' for Active; 'I' for Inactive)
REMARK    1  A    between atoms: C_2  and  C_19
REMARK    2  A    between atoms: N_3  and  C_4
REMARK    3  A    between atoms: C_4  and  C_5
REMARK    4  A    between atoms: C_8  and  C_9
REMARK    5  A    between atoms: C_9  and  O_10
REMARK    6  A    between atoms: O_10  and  C_11
REMARK                            x       y       z     vdW  Elec       q    Type
REMARK                         _______ _______ _______ _____ _____    ______ ____
ROOT
ATOM      1  O   UNL     1      49.911   7.020  14.346  0.00  0.00    +0.000 OA
ATOM      2  C   UNL     1      48.940   6.834  15.074  0.00  0.00    +0.000 C 
ATOM      3  N   UNL     1      47.651   6.909  14.614  0.00  0.00    +0.000 N 
ATOM      4  H   UNL     1      46.889   6.935  15.283  0.00  0.00    +0.000 HD
ENDROOT
BRANCH   2   5
ATOM      5  C   UNL     1      49.102   6.459  16.484  0.00  0.00    +0.000 A 
ATOM      6  C   UNL     1      49.651   7.370  17.377  0.00  0.00    +0.000 A 
ATOM      7  S   UNL     1      49.786   6.771  18.969  0.00  0.00    +0.000 S 
ATOM      8  C   UNL     1      49.074   5.288  18.528  0.00  0.00    +0.000 A 
ATOM      9  N   UNL     1      48.862   4.314  19.455  0.00  0.00    +0.000 NA
ATOM     10  C   UNL     1      48.271   3.262  18.996  0.00  0.00    +0.000 A 
ATOM     11  N   UNL     1      47.886   3.091  17.692  0.00  0.00    +0.000 N 
ATOM     12  C   UNL     1      48.148   4.013  16.708  0.00  0.00    +0.000 A 
ATOM     13  O   UNL     1      47.908   3.770  15.530  0.00  0.00    +0.000 OA
ATOM     14  C   UNL     1      48.765   5.240  17.182  0.00  0.00    +0.000 A 
ATOM     15  H   UNL     1      47.456   2.229  17.389  0.00  0.00    +0.000 HD
ENDBRANCH   2   5
BRANCH   3  16
ATOM     16  C   UNL     1      47.328   7.337  13.276  0.00  0.00    +0.000 C 
BRANCH  16  17
ATOM     17  C   UNL     1      46.525   6.290  12.550  0.00  0.00    +0.000 A 
ATOM     18  C   UNL     1      46.047   6.543  11.259  0.00  0.00    +0.000 A 
ATOM     19  C   UNL     1      45.294   5.581  10.581  0.00  0.00    +0.000 A 
ATOM     20  C   UNL     1      44.987   4.359  11.190  0.00  0.00    +0.000 A 
ATOM     21  C   UNL     1      45.463   4.107  12.484  0.00  0.00    +0.000 A 
ATOM     22  C   UNL     1      46.215   5.069  13.163  0.00  0.00    +0.000 A 
BRANCH  20  23
ATOM     23  C   UNL     1      44.146   3.337  10.469  0.00  0.00    +0.000 C 
BRANCH  23  24
ATOM     24  O   UNL     1      44.206   3.567   9.062  0.00  0.00    +0.000 OA
BRANCH  24  25
ATOM     25  C   UNL     1      45.215   2.934   8.391  0.00  0.00    +0.000 A 
ATOM     26  C   UNL     1      46.043   3.498   7.422  0.00  0.00    +0.000 A 
ATOM     27  C   UNL     1      47.036   2.724   6.825  0.00  0.00    +0.000 A 
ATOM     28  C   UNL     1      47.172   1.404   7.219  0.00  0.00    +0.000 A 
ATOM     29  N   UNL     1      46.390   0.819   8.149  0.00  0.00    +0.000 NA
ATOM     30  C   UNL     1      45.433   1.598   8.711  0.00  0.00    +0.000 A 
ENDBRANCH  24  25
ENDBRANCH  23  24
ENDBRANCH  20  23
ENDBRANCH  16  17
ENDBRANCH   3  16
TORSDOF 6
ENDMDL
MODEL 3
REMARK VINA RESULT:    -7.911      2.336      3.017
REMARK INTER + INTRA:         -11.528
REMARK INTER:                 -10.525
REMARK INTRA:                  -1.003
REMARK UNBOUND:                -0.841
REMARK  Name = 
REMARK  6 active torsions:
REMARK  status: ('A' for Active; 'I' for Inactive)
REMARK    1  A    between atoms: C_2  and  C_19
REMARK    2  A    between atoms: N_3  and  C_4
REMARK    3  A    between atoms: C_4  and  C_5
REMARK    4  A    between atoms: C_8  and  C_9
REMARK    5  A    between atoms: C_9  and  O_10
REMARK    6  A    between atoms: O_10  and  C_11
REMARK                            x       y       z     vdW  Elec       q    Type
REMARK                         _______ _______ _______ _____ _____    ______ ____
ROOT
ATOM      1  O   UNL     1      50.067   6.661  15.031  0.00  0.00    +0.000 OA
ATOM      2  C   UNL     1      48.961   6.719  15.563  0.00  0.00    +0.000 C 
ATOM      3  N   UNL     1      47.809   6.909  14.847  0.00  0.00    +0.000 N 
ATOM      4  H   UNL     1      46.953   7.136  15.340  0.00  0.00    +0.000 HD
ENDROOT
BRANCH   2   5
ATOM      5  C   UNL     1      48.799   6.530  17.011  0.00  0.00    +0.000 A 
ATOM      6  C   UNL     1      49.118   5.306  17.583  0.00  0.00    +0.000 A 
ATOM      7  S   UNL     1      48.855   5.250  19.268  0.00  0.00    +0.000 S 
ATOM      8  C   UNL     1      48.348   6.875  19.297  0.00  0.00    +0.000 A 
ATOM      9  N   UNL     1      48.002   7.476  20.468  0.00  0.00    +0.000 NA
ATOM     10  C   UNL     1      47.685   8.723  20.353  0.00  0.00    +0.000 A 
ATOM     11  N   UNL     1      47.671   9.418  19.172  0.00  0.00    +0.000 N 
ATOM     12  C   UNL     1      47.938   8.833  17.958  0.00  0.00    +0.000 A 
ATOM     13  O   UNL     1      47.786   9.451  16.909  0.00  0.00    +0.000 OA
ATOM     14  C   UNL     1      48.352   7.443  18.037  0.00  0.00    +0.000 A 
ATOM     15  H   UNL     1      47.382  10.385  19.145  0.00  0.00    +0.000 HD
ENDBRANCH   2   5
BRANCH   3  16
ATOM     16  C   UNL     1      47.811   7.182  13.432  0.00  0.00    +0.000 C 
BRANCH  16  17
ATOM     17  C   UNL     1      46.858   6.274  12.702  0.00  0.00    +0.000 A 
ATOM     18  C   UNL     1      46.511   5.034  13.250  0.00  0.00    +0.000 A 
ATOM     19  C   UNL     1      45.634   4.180  12.576  0.00  0.00    +0.000 A 
ATOM     20  C   UNL     1      45.106   4.543  11.331  0.00  0.00    +0.000 A 
ATOM     21  C   UNL     1      45.456   5.782  10.780  0.00  0.00    +0.000 A 
ATOM     22  C   UNL     1      46.333   6.635  11.454  0.00  0.00    +0.000 A 
BRANCH  20  23
ATOM     23  C   UNL     1      44.186   3.605  10.591  0.00  0.00    +0.000 C 
BRANCH  23  24
ATOM     24  O   UNL     1      44.270   3.853   9.188  0.00  0.00    +0.000 OA
BRANCH  24  25
ATOM     25  C   UNL     1      45.241   3.168   8.513  0.00  0.00    +0.000 A 
ATOM     26  C   UNL     1      46.124   3.698   7.574  0.00  0.00    +0.000 A 
ATOM     27  C   UNL     1      47.068   2.871   6.968  0.00  0.00    +0.000 A 
ATOM     28  C   UNL     1      47.102   1.534   7.324  0.00  0.00    +0.000 A 
ATOM     29  N   UNL     1      46.264   0.980   8.225  0.00  0.00    +0.000 NA
ATOM     30  C   UNL     1      45.356   1.811   8.796  0.00  0.00    +0.000 A 
ENDBRANCH  24  25
ENDBRANCH  23  24
ENDBRANCH  20  23
ENDBRANCH  16  17
ENDBRANCH   3  16
TORSDOF 6
ENDMDL
MODEL 4
REMARK VINA RESULT:    -7.655      2.242      3.739
REMARK INTER + INTRA:         -11.182
REMARK INTER:                 -10.074
REMARK INTRA:                  -1.107
REMARK UNBOUND:                -0.841
REMARK  Name = 
REMARK  6 active torsions:
REMARK  status: ('A' for Active; 'I' for Inactive)
REMARK    1  A    between atoms: C_2  and  C_19
REMARK    2  A    between atoms: N_3  and  C_4
REMARK    3  A    between atoms: C_4  and  C_5
REMARK    4  A    between atoms: C_8  and  C_9
REMARK    5  A    between atoms: C_9  and  O_10
REMARK    6  A    between atoms: O_10  and  C_11
REMARK                            x       y       z     vdW  Elec       q    Type
REMARK                         _______ _______ _______ _____ _____    ______ ____
ROOT
ATOM      1  O   UNL     1      49.030   5.367  16.346  0.00  0.00    +0.000 OA
ATOM      2  C   UNL     1      48.626   6.240  15.583  0.00  0.00    +0.000 C 
ATOM      3  N   UNL     1      47.578   6.039  14.724  0.00  0.00    +0.000 N 
ATOM      4  H   UNL     1      47.404   6.717  13.990  0.00  0.00    +0.000 HD
ENDROOT
BRANCH   2   5
ATOM      5  C   UNL     1      49.212   7.587  15.585  0.00  0.00    +0.000 A 
ATOM      6  C   UNL     1      49.312   8.290  16.778  0.00  0.00    +0.000 A 
ATOM      7  S   UNL     1      49.998   9.842  16.601  0.00  0.00    +0.000 S 
ATOM      8  C   UNL     1      50.226   9.610  14.930  0.00  0.00    +0.000 A 
ATOM      9  N   UNL     1      50.814  10.571  14.167  0.00  0.00    +0.000 NA
ATOM     10  C   UNL     1      50.969  10.245  12.927  0.00  0.00    +0.000 A 
ATOM     11  N   UNL     1      50.578   9.051  12.380  0.00  0.00    +0.000 N 
ATOM     12  C   UNL     1      49.913   8.084  13.094  0.00  0.00    +0.000 A 
ATOM     13  O   UNL     1      49.462   7.086  12.543  0.00  0.00    +0.000 OA
ATOM     14  C   UNL     1      49.759   8.379  14.508  0.00  0.00    +0.000 A 
ATOM     15  H   UNL     1      50.699   8.870  11.394  0.00  0.00    +0.000 HD
ENDBRANCH   2   5
BRANCH   3  16
ATOM     16  C   UNL     1      46.949   4.754  14.554  0.00  0.00    +0.000 C 
BRANCH  16  17
ATOM     17  C   UNL     1      46.277   4.651  13.210  0.00  0.00    +0.000 A 
ATOM     18  C   UNL     1      46.293   5.741  12.332  0.00  0.00    +0.000 A 
ATOM     19  C   UNL     1      45.667   5.658  11.086  0.00  0.00    +0.000 A 
ATOM     20  C   UNL     1      44.993   4.491  10.706  0.00  0.00    +0.000 A 
ATOM     21  C   UNL     1      44.973   3.401  11.586  0.00  0.00    +0.000 A 
ATOM     22  C   UNL     1      45.600   3.484  12.832  0.00  0.00    +0.000 A 
BRANCH  20  23
ATOM     23  C   UNL     1      44.289   4.416   9.375  0.00  0.00    +0.000 C 
BRANCH  23  24
ATOM     24  O   UNL     1      44.295   3.070   8.901  0.00  0.00    +0.000 OA
BRANCH  24  25
ATOM     25  C   UNL     1      45.413   2.677   8.220  0.00  0.00    +0.000 A 
ATOM     26  C   UNL     1      46.182   3.468   7.368  0.00  0.00    +0.000 A 
ATOM     27  C   UNL     1      47.303   2.925   6.743  0.00  0.00    +0.000 A 
ATOM     28  C   UNL     1      47.623   1.602   6.993  0.00  0.00    +0.000 A 
ATOM     29  N   UNL     1      46.905   0.801   7.807  0.00  0.00    +0.000 NA
ATOM     30  C   UNL     1      45.819   1.359   8.399  0.00  0.00    +0.000 A 
ENDBRANCH  24  25
ENDBRANCH  23  24
ENDBRANCH  20  23
ENDBRANCH  16  17
ENDBRANCH   3  16
TORSDOF 6
ENDMDL
MODEL 5
REMARK VINA RESULT:    -7.346      3.084      3.644
REMARK INTER + INTRA:         -10.764
REMARK INTER:                  -9.947
REMARK INTRA:                  -0.817
REMARK UNBOUND:                -0.841
REMARK  Name = 
REMARK  6 active torsions:
REMARK  status: ('A' for Active; 'I' for Inactive)
REMARK    1  A    between atoms: C_2  and  C_19
REMARK    2  A    between atoms: N_3  and  C_4
REMARK    3  A    between atoms: C_4  and  C_5
REMARK    4  A    between atoms: C_8  and  C_9
REMARK    5  A    between atoms: C_9  and  O_10
REMARK    6  A    between atoms: O_10  and  C_11
REMARK                            x       y       z     vdW  Elec       q    Type
REMARK                         _______ _______ _______ _____ _____    ______ ____
ROOT
ATOM      1  O   UNL     1      45.808   9.281  12.881  0.00  0.00    +0.000 OA
ATOM      2  C   UNL     1      46.496   8.356  13.303  0.00  0.00    +0.000 C 
ATOM      3  N   UNL     1      46.058   7.058  13.313  0.00  0.00    +0.000 N 
ATOM      4  H   UNL     1      46.579   6.364  13.837  0.00  0.00    +0.000 HD
ENDROOT
BRANCH   2   5
ATOM      5  C   UNL     1      47.869   8.578  13.776  0.00  0.00    +0.000 A 
ATOM      6  C   UNL     1      48.082   9.071  15.056  0.00  0.00    +0.000 A 
ATOM      7  S   UNL     1      49.729   9.288  15.440  0.00  0.00    +0.000 S 
ATOM      8  C   UNL     1      50.217   8.688  13.924  0.00  0.00    +0.000 A 
ATOM      9  N   UNL     1      51.537   8.575  13.611  0.00  0.00    +0.000 NA
ATOM     10  C   UNL     1      51.766   8.061  12.449  0.00  0.00    +0.000 A 
ATOM     11  N   UNL     1      50.795   7.662  11.567  0.00  0.00    +0.000 N 
ATOM     12  C   UNL     1      49.453   7.829  11.809  0.00  0.00    +0.000 A 
ATOM     13  O   UNL     1      48.618   7.584  10.945  0.00  0.00    +0.000 OA
ATOM     14  C   UNL     1      49.139   8.355  13.125  0.00  0.00    +0.000 A 
ATOM     15  H   UNL     1      51.041   7.297  10.659  0.00  0.00    +0.000 HD
ENDBRANCH   2   5
BRANCH   3  16
ATOM     16  C   UNL     1      44.712   6.690  12.950  0.00  0.00    +0.000 C 
BRANCH  16  17
ATOM     17  C   UNL     1      44.706   5.540  11.979  0.00  0.00    +0.000 A 
ATOM     18  C   UNL     1      45.312   5.677  10.724  0.00  0.00    +0.000 A 
ATOM     19  C   UNL     1      45.305   4.618   9.813  0.00  0.00    +0.000 A 
ATOM     20  C   UNL     1      44.672   3.411  10.132  0.00  0.00    +0.000 A 
ATOM     21  C   UNL     1      44.062   3.274  11.386  0.00  0.00    +0.000 A 
ATOM     22  C   UNL     1      44.069   4.333  12.297  0.00  0.00    +0.000 A 
BRANCH  20  23
ATOM     23  C   UNL     1      44.637   2.282   9.134  0.00  0.00    +0.000 C 
BRANCH  23  24
ATOM     24  O   UNL     1      45.959   1.798   8.903  0.00  0.00    +0.000 OA
BRANCH  24  25
ATOM     25  C   UNL     1      46.501   2.089   7.682  0.00  0.00    +0.000 A 
ATOM     26  C   UNL     1      46.076   3.088   6.807  0.00  0.00    +0.000 A 
ATOM     27  C   UNL     1      46.735   3.268   5.592  0.00  0.00    +0.000 A 
ATOM     28  C   UNL     1      47.803   2.442   5.289  0.00  0.00    +0.000 A 
ATOM     29  N   UNL     1      48.243   1.462   6.105  0.00  0.00    +0.000 NA
ATOM     30  C   UNL     1      47.582   1.311   7.280  0.00  0.00    +0.000 A 
ENDBRANCH  24  25
ENDBRANCH  23  24
ENDBRANCH  20  23
ENDBRANCH  16  17
ENDBRANCH   3  16
TORSDOF 6
ENDMDL
MODEL 6
REMARK VINA RESULT:    -7.149      2.747      3.575
REMARK INTER + INTRA:         -10.498
REMARK INTER:                  -9.950
REMARK INTRA:                  -0.547
REMARK UNBOUND:                -0.841
REMARK  Name = 
REMARK  6 active torsions:
REMARK  status: ('A' for Active; 'I' for Inactive)
REMARK    1  A    between atoms: C_2  and  C_19
REMARK    2  A    between atoms: N_3  and  C_4
REMARK    3  A    between atoms: C_4  and  C_5
REMARK    4  A    between atoms: C_8  and  C_9
REMARK    5  A    between atoms: C_9  and  O_10
REMARK    6  A    between atoms: O_10  and  C_11
REMARK                            x       y       z     vdW  Elec       q    Type
REMARK                         _______ _______ _______ _____ _____    ______ ____
ROOT
ATOM      1  O   UNL     1      49.570   5.580  16.250  0.00  0.00    +0.000 OA
ATOM      2  C   UNL     1      48.735   6.377  15.830  0.00  0.00    +0.000 C 
ATOM      3  N   UNL     1      47.595   5.976  15.184  0.00  0.00    +0.000 N 
ATOM      4  H   UNL     1      47.036   6.666  14.695  0.00  0.00    +0.000 HD
ENDROOT
BRANCH   2   5
ATOM      5  C   UNL     1      48.881   7.822  16.047  0.00  0.00    +0.000 A 
ATOM      6  C   UNL     1      49.494   8.603  15.076  0.00  0.00    +0.000 A 
ATOM      7  S   UNL     1      49.599  10.254  15.492  0.00  0.00    +0.000 S 
ATOM      8  C   UNL     1      48.788   9.989  16.965  0.00  0.00    +0.000 A 
ATOM      9  N   UNL     1      48.517  11.024  17.807  0.00  0.00    +0.000 NA
ATOM     10  C   UNL     1      47.855  10.690  18.865  0.00  0.00    +0.000 A 
ATOM     11  N   UNL     1      47.451   9.415  19.161  0.00  0.00    +0.000 N 
ATOM     12  C   UNL     1      47.768   8.330  18.381  0.00  0.00    +0.000 A 
ATOM     13  O   UNL     1      47.505   7.189  18.743  0.00  0.00    +0.000 OA
ATOM     14  C   UNL     1      48.468   8.657  17.151  0.00  0.00    +0.000 A 
ATOM     15  H   UNL     1      46.963   9.215  20.022  0.00  0.00    +0.000 HD
ENDBRANCH   2   5
BRANCH   3  16
ATOM     16  C   UNL     1      47.345   4.601  14.833  0.00  0.00    +0.000 C 
BRANCH  16  17
ATOM     17  C   UNL     1      46.524   4.502  13.575  0.00  0.00    +0.000 A 
ATOM     18  C   UNL     1      45.949   3.280  13.206  0.00  0.00    +0.000 A 
ATOM     19  C   UNL     1      45.192   3.176  12.037  0.00  0.00    +0.000 A 
ATOM     20  C   UNL     1      45.015   4.287  11.204  0.00  0.00    +0.000 A 
ATOM     21  C   UNL     1      45.593   5.510  11.570  0.00  0.00    +0.000 A 
ATOM     22  C   UNL     1      46.351   5.613  12.739  0.00  0.00    +0.000 A 
BRANCH  20  23
ATOM     23  C   UNL     1      44.225   4.164   9.925  0.00  0.00    +0.000 C 
BRANCH  23  24
ATOM     24  O   UNL     1      45.043   4.530   8.815  0.00  0.00    +0.000 OA
BRANCH  24  25
ATOM     25  C   UNL     1      45.770   3.522   8.246  0.00  0.00    +0.000 A 
ATOM     26  C   UNL     1      46.743   3.663   7.257  0.00  0.00    +0.000 A 
ATOM     27  C   UNL     1      47.407   2.536   6.775  0.00  0.00    +0.000 A 
ATOM     28  C   UNL     1      47.076   1.299   7.299  0.00  0.00    +0.000 A 
ATOM     29  N   UNL     1      46.140   1.118   8.253  0.00  0.00    +0.000 NA
ATOM     30  C   UNL     1      45.511   2.234   8.701  0.00  0.00    +0.000 A 
ENDBRANCH  24  25
ENDBRANCH  23  24
ENDBRANCH  20  23
ENDBRANCH  16  17
ENDBRANCH   3  16
TORSDOF 6
ENDMDL
MODEL 7
REMARK VINA RESULT:    -7.142      3.493      8.176
REMARK INTER + INTRA:         -10.488
REMARK INTER:                  -9.516
REMARK INTRA:                  -0.972
REMARK UNBOUND:                -0.841
REMARK  Name = 
REMARK  6 active torsions:
REMARK  status: ('A' for Active; 'I' for Inactive)
REMARK    1  A    between atoms: C_2  and  C_19
REMARK    2  A    between atoms: N_3  and  C_4
REMARK    3  A    between atoms: C_4  and  C_5
REMARK    4  A    between atoms: C_8  and  C_9
REMARK    5  A    between atoms: C_9  and  O_10
REMARK    6  A    between atoms: O_10  and  C_11
REMARK                            x       y       z     vdW  Elec       q    Type
REMARK                         _______ _______ _______ _____ _____    ______ ____
ROOT
ATOM      1  O   UNL     1      45.665   7.898  11.729  0.00  0.00    +0.000 OA
ATOM      2  C   UNL     1      46.297   6.871  11.498  0.00  0.00    +0.000 C 
ATOM      3  N   UNL     1      47.602   6.708  11.882  0.00  0.00    +0.000 N 
ATOM      4  H   UNL     1      48.133   5.929  11.508  0.00  0.00    +0.000 HD
ENDROOT
BRANCH   2   5
ATOM      5  C   UNL     1      45.669   5.719  10.837  0.00  0.00    +0.000 A 
ATOM      6  C   UNL     1      45.872   5.512   9.480  0.00  0.00    +0.000 A 
ATOM      7  S   UNL     1      45.058   4.143   8.868  0.00  0.00    +0.000 S 
ATOM      8  C   UNL     1      44.441   3.756  10.406  0.00  0.00    +0.000 A 
ATOM      9  N   UNL     1      43.670   2.649  10.589  0.00  0.00    +0.000 NA
ATOM     10  C   UNL     1      43.310   2.447  11.813  0.00  0.00    +0.000 A 
ATOM     11  N   UNL     1      43.641   3.258  12.866  0.00  0.00    +0.000 N 
ATOM     12  C   UNL     1      44.352   4.425  12.717  0.00  0.00    +0.000 A 
ATOM     13  O   UNL     1      44.516   5.193  13.659  0.00  0.00    +0.000 OA
ATOM     14  C   UNL     1      44.826   4.672  11.367  0.00  0.00    +0.000 A 
ATOM     15  H   UNL     1      43.301   3.062  13.796  0.00  0.00    +0.000 HD
ENDBRANCH   2   5
BRANCH   3  16
ATOM     16  C   UNL     1      48.376   7.770  12.473  0.00  0.00    +0.000 C 
BRANCH  16  17
ATOM     17  C   UNL     1      48.962   7.346  13.793  0.00  0.00    +0.000 A 
ATOM     18  C   UNL     1      48.227   6.527  14.657  0.00  0.00    +0.000 A 
ATOM     19  C   UNL     1      48.759   6.135  15.888  0.00  0.00    +0.000 A 
ATOM     20  C   UNL     1      50.027   6.574  16.286  0.00  0.00    +0.000 A 
ATOM     21  C   UNL     1      50.762   7.397  15.424  0.00  0.00    +0.000 A 
ATOM     22  C   UNL     1      50.230   7.790  14.193  0.00  0.00    +0.000 A 
BRANCH  20  23
ATOM     23  C   UNL     1      50.585   6.177  17.629  0.00  0.00    +0.000 C 
BRANCH  23  24
ATOM     24  O   UNL     1      49.950   4.982  18.082  0.00  0.00    +0.000 OA
BRANCH  24  25
ATOM     25  C   UNL     1      50.646   3.821  17.891  0.00  0.00    +0.000 A 
ATOM     26  C   UNL     1      51.974   3.587  18.243  0.00  0.00    +0.000 A 
ATOM     27  C   UNL     1      52.549   2.344  17.986  0.00  0.00    +0.000 A 
ATOM     28  C   UNL     1      51.775   1.369  17.383  0.00  0.00    +0.000 A 
ATOM     29  N   UNL     1      50.488   1.555  17.022  0.00  0.00    +0.000 NA
ATOM     30  C   UNL     1      49.957   2.776  17.285  0.00  0.00    +0.000 A 
ENDBRANCH  24  25
ENDBRANCH  23  24
ENDBRANCH  20  23
ENDBRANCH  16  17
ENDBRANCH   3  16
TORSDOF 6
ENDMDL
MODEL 8
REMARK VINA RESULT:    -7.045      4.311      9.276
REMARK INTER + INTRA:         -10.358
REMARK INTER:                  -9.570
REMARK INTRA:                  -0.788
REMARK UNBOUND:                -0.841
REMARK  Name = 
REMARK  6 active torsions:
REMARK  status: ('A' for Active; 'I' for Inactive)
REMARK    1  A    between atoms: C_2  and  C_19
REMARK    2  A    between atoms: N_3  and  C_4
REMARK    3  A    between atoms: C_4  and  C_5
REMARK    4  A    between atoms: C_8  and  C_9
REMARK    5  A    between atoms: C_9  and  O_10
REMARK    6  A    between atoms: O_10  and  C_11
REMARK                            x       y       z     vdW  Elec       q    Type
REMARK                         _______ _______ _______ _____ _____    ______ ____
ROOT
ATOM      1  O   UNL     1      47.215   3.038  14.030  0.00  0.00    +0.000 OA
ATOM      2  C   UNL     1      46.830   4.119  14.467  0.00  0.00    +0.000 C 
ATOM      3  N   UNL     1      46.839   4.417  15.804  0.00  0.00    +0.000 N 
ATOM      4  H   UNL     1      46.342   5.238  16.131  0.00  0.00    +0.000 HD
ENDROOT
BRANCH   2   5
ATOM      5  C   UNL     1      46.382   5.191  13.569  0.00  0.00    +0.000 A 
ATOM      6  C   UNL     1      47.244   6.235  13.263  0.00  0.00    +0.000 A 
ATOM      7  S   UNL     1      46.563   7.402  12.223  0.00  0.00    +0.000 S 
ATOM      8  C   UNL     1      45.106   6.529  12.109  0.00  0.00    +0.000 A 
ATOM      9  N   UNL     1      44.085   6.975  11.327  0.00  0.00    +0.000 NA
ATOM     10  C   UNL     1      43.059   6.192  11.294  0.00  0.00    +0.000 A 
ATOM     11  N   UNL     1      42.956   5.012  11.983  0.00  0.00    +0.000 N 
ATOM     12  C   UNL     1      43.928   4.561  12.842  0.00  0.00    +0.000 A 
ATOM     13  O   UNL     1      43.747   3.571  13.542  0.00  0.00    +0.000 OA
ATOM     14  C   UNL     1      45.128   5.379  12.876  0.00  0.00    +0.000 A 
ATOM     15  H   UNL     1      42.112   4.460  11.940  0.00  0.00    +0.000 HD
ENDBRANCH   2   5
BRANCH   3  16
ATOM     16  C   UNL     1      47.181   3.447  16.813  0.00  0.00    +0.000 C 
BRANCH  16  17
ATOM     17  C   UNL     1      48.650   3.494  17.138  0.00  0.00    +0.000 A 
ATOM     18  C   UNL     1      49.426   2.332  17.055  0.00  0.00    +0.000 A 
ATOM     19  C   UNL     1      50.788   2.364  17.362  0.00  0.00    +0.000 A 
ATOM     20  C   UNL     1      51.394   3.555  17.780  0.00  0.00    +0.000 A 
ATOM     21  C   UNL     1      50.618   4.718  17.867  0.00  0.00    +0.000 A 
ATOM     22  C   UNL     1      49.255   4.686  17.561  0.00  0.00    +0.000 A 
BRANCH  20  23
ATOM     23  C   UNL     1      52.857   3.580  18.143  0.00  0.00    +0.000 C 
BRANCH  23  24
ATOM     24  O   UNL     1      53.570   2.638  17.343  0.00  0.00    +0.000 OA
BRANCH  24  25
ATOM     25  C   UNL     1      54.046   1.534  17.994  0.00  0.00    +0.000 A 
ATOM     26  C   UNL     1      54.076   0.232  17.498  0.00  0.00    +0.000 A 
ATOM     27  C   UNL     1      54.598  -0.795  18.282  0.00  0.00    +0.000 A 
ATOM     28  C   UNL     1      55.078  -0.486  19.543  0.00  0.00    +0.000 A 
ATOM     29  N   UNL     1      55.065   0.759  20.062  0.00  0.00    +0.000 NA
ATOM     30  C   UNL     1      54.549   1.737  19.275  0.00  0.00    +0.000 A 
ENDBRANCH  24  25
ENDBRANCH  23  24
ENDBRANCH  20  23
ENDBRANCH  16  17
ENDBRANCH   3  16
TORSDOF 6
ENDMDL
