MODEL 1
REMARK VINA RESULT:    -6.155      0.000      0.000
REMARK INTER + INTRA:          -8.427
REMARK INTER:                  -7.955
REMARK INTRA:                  -0.472
REMARK UNBOUND:                -0.472
REMARK  Name = 
REMARK  6 active torsions:
REMARK  status: ('A' for Active; 'I' for Inactive)
REMARK    1  A    between atoms: C_1  and  C_2
REMARK    2  A    between atoms: C_2  and  O_3
REMARK    3  A    between atoms: O_3  and  C_4
REMARK    4  A    between atoms: C_8  and  C_9
REMARK    5  A    between atoms: C_10  and  C_11
REMARK    6  A    between atoms: C_14  and  C_15
REMARK                            x       y       z     vdW  Elec       q    Type
REMARK                         _______ _______ _______ _____ _____    ______ ____
ROOT
ATOM      1  C   UNL     1      46.498   5.301  13.728  0.00  0.00    +0.000 C 
ATOM      2  C   UNL     1      46.533   4.420  14.741  0.00  0.00    +0.000 C 
ENDROOT
BRANCH   1   7
ATOM      3  C   UNL     1      44.982   5.131  10.275  0.00  0.00    +0.000 A 
ATOM      4  C   UNL     1      43.621   5.085  10.573  0.00  0.00    +0.000 A 
ATOM      5  C   UNL     1      43.188   5.172  11.896  0.00  0.00    +0.000 A 
ATOM      6  C   UNL     1      44.116   5.274  12.931  0.00  0.00    +0.000 A 
ATOM      7  C   UNL     1      45.488   5.260  12.657  0.00  0.00    +0.000 A 
ATOM      8  C   UNL     1      45.908   5.220  11.322  0.00  0.00    +0.000 A 
BRANCH   3   9
ATOM      9  O   UNL     1      45.521   5.081   9.015  0.00  0.00    +0.000 OA
BRANCH   9  11
ATOM     10  C   UNL     1      46.825   3.930   7.288  0.00  0.00    +0.000 C 
ATOM     11  C   UNL     1      45.722   3.811   8.337  0.00  0.00    +0.000 C 
ATOM     12  C   UNL     1      45.669   2.508   9.172  0.00  0.00    +0.000 C 
ATOM     13  O   UNL     1      44.325   2.213   8.725  0.00  0.00    +0.000 OA
ATOM     14  C   UNL     1      44.424   3.238   7.711  0.00  0.00    +0.000 C 
ENDBRANCH   9  11
ENDBRANCH   3   9
ENDBRANCH   1   7
BRANCH   2  15
ATOM     15  C   UNL     1      47.569   4.377  15.782  0.00  0.00    +0.000 A 
ATOM     16  C   UNL     1      47.892   3.203  16.474  0.00  0.00    +0.000 A 
ATOM     17  C   UNL     1      48.864   3.215  17.478  0.00  0.00    +0.000 A 
ATOM     18  C   UNL     1      49.551   4.394  17.787  0.00  0.00    +0.000 A 
ATOM     19  C   UNL     1      49.258   5.565  17.081  0.00  0.00    +0.000 A 
ATOM     20  C   UNL     1      48.277   5.551  16.082  0.00  0.00    +0.000 A 
BRANCH  18  21
ATOM     21  C   UNL     1      50.546   4.355  18.890  0.00  0.00    +0.000 C 
ATOM     22  N   UNL     1      50.074   4.390  20.171  0.00  0.00    +0.000 N 
ATOM     23  O   UNL     1      51.750   4.324  18.666  0.00  0.00    +0.000 OA
ATOM     24  H   UNL     1      49.127   4.651  20.400  0.00  0.00    +0.000 HD
ATOM     25  H   UNL     1      50.774   4.468  20.899  0.00  0.00    +0.000 HD
ENDBRANCH  18  21
ENDBRANCH   2  15
TORSDOF 5
ENDMDL
MODEL 2
REMARK VINA RESULT:    -5.873      3.748      9.228
REMARK INTER + INTRA:          -8.063
REMARK INTER:                  -7.567
REMARK INTRA:                  -0.495
REMARK UNBOUND:                -0.472
REMARK  Name = 
REMARK  6 active torsions:
REMARK  status: ('A' for Active; 'I' for Inactive)
REMARK    1  A    between atoms: C_1  and  C_2
REMARK    2  A    between atoms: C_2  and  O_3
REMARK    3  A    between atoms: O_3  and  C_4
REMARK    4  A    between atoms: C_8  and  C_9
REMARK    5  A    between atoms: C_10  and  C_11
REMARK    6  A    between atoms: C_14  and  C_15
REMARK                            x       y       z     vdW  Elec       q    Type
REMARK                         _______ _______ _______ _____ _____    ______ ____
ROOT
ATOM      1  C   UNL     1      47.250   3.825  15.300  0.00  0.00    +0.000 C 
ATOM      2  C   UNL     1      46.745   4.861  14.609  0.00  0.00    +0.000 C 
ENDROOT
BRANCH   1   7
ATOM      3  C   UNL     1      47.804   5.170  18.784  0.00  0.00    +0.000 A 
ATOM      4  C   UNL     1      48.623   4.185  19.333  0.00  0.00    +0.000 A 
ATOM      5  C   UNL     1      49.050   3.111  18.551  0.00  0.00    +0.000 A 
ATOM      6  C   UNL     1      48.634   2.999  17.227  0.00  0.00    +0.000 A 
ATOM      7  C   UNL     1      47.762   3.945  16.675  0.00  0.00    +0.000 A 
ATOM      8  C   UNL     1      47.380   5.043  17.454  0.00  0.00    +0.000 A 
BRANCH   3   9
ATOM      9  O   UNL     1      47.346   6.281  19.444  0.00  0.00    +0.000 OA
BRANCH   9  11
ATOM     10  C   UNL     1      49.591   7.264  19.438  0.00  0.00    +0.000 C 
ATOM     11  C   UNL     1      48.089   7.530  19.409  0.00  0.00    +0.000 C 
ATOM     12  C   UNL     1      47.584   8.668  18.488  0.00  0.00    +0.000 C 
ATOM     13  O   UNL     1      46.991   9.378  19.600  0.00  0.00    +0.000 OA
ATOM     14  C   UNL     1      47.682   8.517  20.534  0.00  0.00    +0.000 C 
ENDBRANCH   9  11
ENDBRANCH   3   9
ENDBRANCH   1   7
BRANCH   2  15
ATOM     15  C   UNL     1      46.300   4.801  13.210  0.00  0.00    +0.000 A 
ATOM     16  C   UNL     1      45.699   3.663  12.659  0.00  0.00    +0.000 A 
ATOM     17  C   UNL     1      45.318   3.640  11.315  0.00  0.00    +0.000 A 
ATOM     18  C   UNL     1      45.505   4.766  10.505  0.00  0.00    +0.000 A 
ATOM     19  C   UNL     1      46.076   5.919  11.053  0.00  0.00    +0.000 A 
ATOM     20  C   UNL     1      46.465   5.935  12.399  0.00  0.00    +0.000 A 
BRANCH  18  21
ATOM     21  C   UNL     1      45.116   4.671   9.075  0.00  0.00    +0.000 C 
ATOM     22  N   UNL     1      43.819   4.355   8.790  0.00  0.00    +0.000 N 
ATOM     23  O   UNL     1      45.931   4.840   8.176  0.00  0.00    +0.000 OA
ATOM     24  H   UNL     1      43.182   3.981   9.477  0.00  0.00    +0.000 HD
ATOM     25  H   UNL     1      43.606   4.195   7.813  0.00  0.00    +0.000 HD
ENDBRANCH  18  21
ENDBRANCH   2  15
TORSDOF 5
ENDMDL
MODEL 3
REMARK VINA RESULT:    -5.737      3.114      9.332
REMARK INTER + INTRA:          -7.885
REMARK INTER:                  -7.308
REMARK INTRA:                  -0.577
REMARK UNBOUND:                -0.472
REMARK  Name = 
REMARK  6 active torsions:
REMARK  status: ('A' for Active; 'I' for Inactive)
REMARK    1  A    between atoms: C_1  and  C_2
REMARK    2  A    between atoms: C_2  and  O_3
REMARK    3  A    between atoms: O_3  and  C_4
REMARK    4  A    between atoms: C_8  and  C_9
REMARK    5  A    between atoms: C_10  and  C_11
REMARK    6  A    between atoms: C_14  and  C_15
REMARK                            x       y       z     vdW  Elec       q    Type
REMARK                         _______ _______ _______ _____ _____    ______ ____
ROOT
ATOM      1  C   UNL     1      47.146   4.235  15.630  0.00  0.00    +0.000 C 
ATOM      2  C   UNL     1      47.178   5.199  14.695  0.00  0.00    +0.000 C 
ENDROOT
BRANCH   1   7
ATOM      3  C   UNL     1      49.737   3.873  18.351  0.00  0.00    +0.000 A 
ATOM      4  C   UNL     1      49.170   4.628  19.375  0.00  0.00    +0.000 A 
ATOM      5  C   UNL     1      47.912   5.207  19.207  0.00  0.00    +0.000 A 
ATOM      6  C   UNL     1      47.229   5.061  18.001  0.00  0.00    +0.000 A 
ATOM      7  C   UNL     1      47.809   4.357  16.939  0.00  0.00    +0.000 A 
ATOM      8  C   UNL     1      49.050   3.740  17.137  0.00  0.00    +0.000 A 
BRANCH   3   9
ATOM      9  O   UNL     1      50.950   3.236  18.412  0.00  0.00    +0.000 OA
BRANCH   9  11
ATOM     10  C   UNL     1      52.367   5.030  17.528  0.00  0.00    +0.000 C 
ATOM     11  C   UNL     1      52.178   3.985  18.625  0.00  0.00    +0.000 C 
ATOM     12  C   UNL     1      52.559   4.391  20.070  0.00  0.00    +0.000 C 
ATOM     13  O   UNL     1      53.527   3.320  20.172  0.00  0.00    +0.000 OA
ATOM     14  C   UNL     1      53.433   3.083  18.749  0.00  0.00    +0.000 C 
ENDBRANCH   9  11
ENDBRANCH   3   9
ENDBRANCH   1   7
BRANCH   2  15
ATOM     15  C   UNL     1      46.600   5.085  13.349  0.00  0.00    +0.000 A 
ATOM     16  C   UNL     1      45.883   3.958  12.931  0.00  0.00    +0.000 A 
ATOM     17  C   UNL     1      45.376   3.880  11.631  0.00  0.00    +0.000 A 
ATOM     18  C   UNL     1      45.552   4.941  10.736  0.00  0.00    +0.000 A 
ATOM     19  C   UNL     1      46.240   6.085  11.153  0.00  0.00    +0.000 A 
ATOM     20  C   UNL     1      46.754   6.155  12.454  0.00  0.00    +0.000 A 
BRANCH  18  21
ATOM     21  C   UNL     1      45.025   4.786   9.356  0.00  0.00    +0.000 C 
ATOM     22  N   UNL     1      43.694   4.514   9.212  0.00  0.00    +0.000 N 
ATOM     23  O   UNL     1      45.757   4.868   8.377  0.00  0.00    +0.000 OA
ATOM     24  H   UNL     1      43.111   4.208   9.977  0.00  0.00    +0.000 HD
ATOM     25  H   UNL     1      43.383   4.311   8.270  0.00  0.00    +0.000 HD
ENDBRANCH  18  21
ENDBRANCH   2  15
TORSDOF 5
ENDMDL
MODEL 4
REMARK VINA RESULT:    -5.600      6.128      8.074
REMARK INTER + INTRA:          -7.709
REMARK INTER:                  -7.064
REMARK INTRA:                  -0.645
REMARK UNBOUND:                -0.472
REMARK  Name = 
REMARK  6 active torsions:
REMARK  status: ('A' for Active; 'I' for Inactive)
REMARK    1  A    between atoms: C_1  and  C_2
REMARK    2  A    between atoms: C_2  and  O_3
REMARK    3  A    between atoms: O_3  and  C_4
REMARK    4  A    between atoms: C_8  and  C_9
REMARK    5  A    between atoms: C_10  and  C_11
REMARK    6  A    between atoms: C_14  and  C_15
REMARK                            x       y       z     vdW  Elec       q    Type
REMARK                         _______ _______ _______ _____ _____    ______ ____
ROOT
ATOM      1  C   UNL     1      49.267   7.390  11.818  0.00  0.00    +0.000 C 
ATOM      2  C   UNL     1      47.986   7.532  11.440  0.00  0.00    +0.000 C 
ENDROOT
BRANCH   1   7
ATOM      3  C   UNL     1      52.598   8.569  10.491  0.00  0.00    +0.000 A 
ATOM      4  C   UNL     1      52.402   9.948  10.437  0.00  0.00    +0.000 A 
ATOM      5  C   UNL     1      51.206  10.505  10.891  0.00  0.00    +0.000 A 
ATOM      6  C   UNL     1      50.189   9.684  11.372  0.00  0.00    +0.000 A 
ATOM      7  C   UNL     1      50.344   8.293  11.378  0.00  0.00    +0.000 A 
ATOM      8  C   UNL     1      51.566   7.750  10.964  0.00  0.00    +0.000 A 
BRANCH   3   9
ATOM      9  O   UNL     1      53.738   7.914  10.100  0.00  0.00    +0.000 OA
BRANCH   9  11
ATOM     10  C   UNL     1      53.863   5.729   8.995  0.00  0.00    +0.000 C 
ATOM     11  C   UNL     1      53.810   7.243   8.811  0.00  0.00    +0.000 C 
ATOM     12  C   UNL     1      52.956   7.790   7.642  0.00  0.00    +0.000 C 
ATOM     13  O   UNL     1      54.097   8.450   7.046  0.00  0.00    +0.000 OA
ATOM     14  C   UNL     1      54.988   7.734   7.931  0.00  0.00    +0.000 C 
ENDBRANCH   9  11
ENDBRANCH   3   9
ENDBRANCH   1   7
BRANCH   2  15
ATOM     15  C   UNL     1      46.899   6.608  11.790  0.00  0.00    +0.000 A 
ATOM     16  C   UNL     1      45.900   6.241  10.880  0.00  0.00    +0.000 A 
ATOM     17  C   UNL     1      44.867   5.382  11.266  0.00  0.00    +0.000 A 
ATOM     18  C   UNL     1      44.832   4.852  12.561  0.00  0.00    +0.000 A 
ATOM     19  C   UNL     1      45.841   5.187  13.469  0.00  0.00    +0.000 A 
ATOM     20  C   UNL     1      46.869   6.056  13.080  0.00  0.00    +0.000 A 
BRANCH  18  21
ATOM     21  C   UNL     1      43.689   3.975  12.926  0.00  0.00    +0.000 C 
ATOM     22  N   UNL     1      43.794   2.645  12.637  0.00  0.00    +0.000 N 
ATOM     23  O   UNL     1      42.674   4.427  13.442  0.00  0.00    +0.000 OA
ATOM     24  H   UNL     1      44.493   2.273  12.012  0.00  0.00    +0.000 HD
ATOM     25  H   UNL     1      42.963   2.089  12.801  0.00  0.00    +0.000 HD
ENDBRANCH  18  21
ENDBRANCH   2  15
TORSDOF 5
ENDMDL
MODEL 5
REMARK VINA RESULT:    -5.521      3.629      9.164
REMARK INTER + INTRA:          -7.607
REMARK INTER:                  -6.900
REMARK INTRA:                  -0.707
REMARK UNBOUND:                -0.472
REMARK  Name = 
REMARK  6 active torsions:
REMARK  status: ('A' for Active; 'I' for Inactive)
REMARK    1  A    between atoms: C_1  and  C_2
REMARK    2  A    between atoms: C_2  and  O_3
REMARK    3  A    between atoms: O_3  and  C_4
REMARK    4  A    between atoms: C_8  and  C_9
REMARK    5  A    between atoms: C_10  and  C_11
REMARK    6  A    between atoms: C_14  and  C_15
REMARK                            x       y       z     vdW  Elec       q    Type
REMARK                         _______ _______ _______ _____ _____    ______ ____
ROOT
ATOM      1  C   UNL     1      48.307   6.845  14.070  0.00  0.00    +0.000 C 
ATOM      2  C   UNL     1      47.498   5.781  14.200  0.00  0.00    +0.000 C 
ENDROOT
BRANCH   1   7
ATOM      3  C   UNL     1      49.987   7.155  17.437  0.00  0.00    +0.000 A 
ATOM      4  C   UNL     1      50.619   8.391  17.317  0.00  0.00    +0.000 A 
ATOM      5  C   UNL     1      50.450   9.158  16.164  0.00  0.00    +0.000 A 
ATOM      6  C   UNL     1      49.674   8.678  15.111  0.00  0.00    +0.000 A 
ATOM      7  C   UNL     1      49.081   7.412  15.187  0.00  0.00    +0.000 A 
ATOM      8  C   UNL     1      49.218   6.674  16.369  0.00  0.00    +0.000 A 
BRANCH   3   9
ATOM      9  O   UNL     1      50.057   6.330  18.530  0.00  0.00    +0.000 OA
BRANCH   9  11
ATOM     10  C   UNL     1      50.052   6.913  20.910  0.00  0.00    +0.000 C 
ATOM     11  C   UNL     1      49.210   6.552  19.690  0.00  0.00    +0.000 C 
ATOM     12  C   UNL     1      47.872   7.309  19.498  0.00  0.00    +0.000 C 
ATOM     13  O   UNL     1      47.111   6.080  19.529  0.00  0.00    +0.000 OA
ATOM     14  C   UNL     1      48.271   5.358  20.001  0.00  0.00    +0.000 C 
ENDBRANCH   9  11
ENDBRANCH   3   9
ENDBRANCH   1   7
BRANCH   2  15
ATOM     15  C   UNL     1      46.649   5.235  13.132  0.00  0.00    +0.000 A 
ATOM     16  C   UNL     1      46.094   3.951  13.194  0.00  0.00    +0.000 A 
ATOM     17  C   UNL     1      45.316   3.461  12.142  0.00  0.00    +0.000 A 
ATOM     18  C   UNL     1      45.056   4.258  11.021  0.00  0.00    +0.000 A 
ATOM     19  C   UNL     1      45.579   5.553  10.962  0.00  0.00    +0.000 A 
ATOM     20  C   UNL     1      46.366   6.037  12.016  0.00  0.00    +0.000 A 
BRANCH  18  21
ATOM     21  C   UNL     1      44.255   3.671   9.916  0.00  0.00    +0.000 C 
ATOM     22  N   UNL     1      44.082   4.423   8.790  0.00  0.00    +0.000 N 
ATOM     23  O   UNL     1      43.739   2.564  10.016  0.00  0.00    +0.000 OA
ATOM     24  H   UNL     1      44.282   5.411   8.754  0.00  0.00    +0.000 HD
ATOM     25  H   UNL     1      43.449   4.044   8.097  0.00  0.00    +0.000 HD
ENDBRANCH  18  21
ENDBRANCH   2  15
TORSDOF 5
ENDMDL
MODEL 6
REMARK VINA RESULT:    -5.189      3.317      9.028
REMARK INTER + INTRA:          -7.178
REMARK INTER:                  -6.820
REMARK INTRA:                  -0.358
REMARK UNBOUND:                -0.472
REMARK  Name = 
REMARK  6 active torsions:
REMARK  status: ('A' for Active; 'I' for Inactive)
REMARK    1  A    between atoms: C_1  and  C_2
REMARK    2  A    between atoms: C_2  and  O_3
REMARK    3  A    between atoms: O_3  and  C_4
REMARK    4  A    between atoms: C_8  and  C_9
REMARK    5  A    between atoms: C_10  and  C_11
REMARK    6  A    between atoms: C_14  and  C_15
REMARK                            x       y       z     vdW  Elec       q    Type
REMARK                         _______ _______ _______ _____ _____    ______ ____
ROOT
ATOM      1  C   UNL     1      47.241   4.317  15.755  0.00  0.00    +0.000 C 
ATOM      2  C   UNL     1      47.177   5.079  14.651  0.00  0.00    +0.000 C 
ENDROOT
BRANCH   1   7
ATOM      3  C   UNL     1      49.452   6.299  18.086  0.00  0.00    +0.000 A 
ATOM      4  C   UNL     1      49.493   5.466  19.203  0.00  0.00    +0.000 A 
ATOM      5  C   UNL     1      48.852   4.227  19.179  0.00  0.00    +0.000 A 
ATOM      6  C   UNL     1      48.140   3.828  18.049  0.00  0.00    +0.000 A 
ATOM      7  C   UNL     1      48.037   4.677  16.941  0.00  0.00    +0.000 A 
ATOM      8  C   UNL     1      48.724   5.896  16.959  0.00  0.00    +0.000 A 
BRANCH   3   9
ATOM      9  O   UNL     1      50.064   7.522  17.985  0.00  0.00    +0.000 OA
BRANCH   9  11
ATOM     10  C   UNL     1      51.689   9.017  16.920  0.00  0.00    +0.000 C 
ATOM     11  C   UNL     1      51.436   7.635  17.515  0.00  0.00    +0.000 C 
ATOM     12  C   UNL     1      52.566   7.008  18.369  0.00  0.00    +0.000 C 
ATOM     13  O   UNL     1      52.659   5.857  17.498  0.00  0.00    +0.000 OA
ATOM     14  C   UNL     1      51.834   6.521  16.513  0.00  0.00    +0.000 C 
ENDBRANCH   9  11
ENDBRANCH   3   9
ENDBRANCH   1   7
BRANCH   2  15
ATOM     15  C   UNL     1      46.462   4.718  13.420  0.00  0.00    +0.000 A 
ATOM     16  C   UNL     1      46.196   5.644  12.404  0.00  0.00    +0.000 A 
ATOM     17  C   UNL     1      45.486   5.264  11.262  0.00  0.00    +0.000 A 
ATOM     18  C   UNL     1      45.055   3.943  11.103  0.00  0.00    +0.000 A 
ATOM     19  C   UNL     1      45.341   3.001  12.097  0.00  0.00    +0.000 A 
ATOM     20  C   UNL     1      46.045   3.389  13.244  0.00  0.00    +0.000 A 
BRANCH  18  21
ATOM     21  C   UNL     1      44.271   3.604   9.887  0.00  0.00    +0.000 C 
ATOM     22  N   UNL     1      43.927   4.627   9.050  0.00  0.00    +0.000 N 
ATOM     23  O   UNL     1      43.916   2.456   9.652  0.00  0.00    +0.000 OA
ATOM     24  H   UNL     1      43.989   5.598   9.316  0.00  0.00    +0.000 HD
ATOM     25  H   UNL     1      43.307   4.385   8.286  0.00  0.00    +0.000 HD
ENDBRANCH  18  21
ENDBRANCH   2  15
TORSDOF 5
ENDMDL
MODEL 7
REMARK VINA RESULT:    -4.972     10.230     12.197
REMARK INTER + INTRA:          -6.898
REMARK INTER:                  -6.204
REMARK INTRA:                  -0.694
REMARK UNBOUND:                -0.472
REMARK  Name = 
REMARK  6 active torsions:
REMARK  status: ('A' for Active; 'I' for Inactive)
REMARK    1  A    between atoms: C_1  and  C_2
REMARK    2  A    between atoms: C_2  and  O_3
REMARK    3  A    between atoms: O_3  and  C_4
REMARK    4  A    between atoms: C_8  and  C_9
REMARK    5  A    between atoms: C_10  and  C_11
REMARK    6  A    between atoms: C_14  and  C_15
REMARK                            x       y       z     vdW  Elec       q    Type
REMARK                         _______ _______ _______ _____ _____    ______ ____
ROOT
ATOM      1  C   UNL     1      39.617  -2.001  17.811  0.00  0.00    +0.000 C 
ATOM      2  C   UNL     1      40.480  -1.854  16.793  0.00  0.00    +0.000 C 
ENDROOT
BRANCH   1   7
ATOM      3  C   UNL     1      38.026   1.054  19.356  0.00  0.00    +0.000 A 
ATOM      4  C   UNL     1      38.633   1.077  20.610  0.00  0.00    +0.000 A 
ATOM      5  C   UNL     1      39.610   0.135  20.935  0.00  0.00    +0.000 A 
ATOM      6  C   UNL     1      39.961  -0.855  20.020  0.00  0.00    +0.000 A 
ATOM      7  C   UNL     1      39.318  -0.931  18.778  0.00  0.00    +0.000 A 
ATOM      8  C   UNL     1      38.375   0.048  18.446  0.00  0.00    +0.000 A 
BRANCH   3   9
ATOM      9  O   UNL     1      37.078   1.942  18.917  0.00  0.00    +0.000 OA
BRANCH   9  11
ATOM     10  C   UNL     1      36.917   4.324  19.472  0.00  0.00    +0.000 C 
ATOM     11  C   UNL     1      37.448   3.282  18.491  0.00  0.00    +0.000 C 
ATOM     12  C   UNL     1      38.864   3.510  17.906  0.00  0.00    +0.000 C 
ATOM     13  O   UNL     1      38.360   3.523  16.550  0.00  0.00    +0.000 OA
ATOM     14  C   UNL     1      37.003   3.610  17.043  0.00  0.00    +0.000 C 
ENDBRANCH   9  11
ENDBRANCH   3   9
ENDBRANCH   1   7
BRANCH   2  15
ATOM     15  C   UNL     1      40.866  -2.918  15.857  0.00  0.00    +0.000 A 
ATOM     16  C   UNL     1      40.587  -2.853  14.486  0.00  0.00    +0.000 A 
ATOM     17  C   UNL     1      40.947  -3.902  13.637  0.00  0.00    +0.000 A 
ATOM     18  C   UNL     1      41.617  -5.023  14.138  0.00  0.00    +0.000 A 
ATOM     19  C   UNL     1      41.928  -5.086  15.500  0.00  0.00    +0.000 A 
ATOM     20  C   UNL     1      41.558  -4.035  16.350  0.00  0.00    +0.000 A 
BRANCH  18  21
ATOM     21  C   UNL     1      41.940  -6.125  13.196  0.00  0.00    +0.000 C 
ATOM     22  N   UNL     1      41.142  -6.274  12.097  0.00  0.00    +0.000 N 
ATOM     23  O   UNL     1      42.868  -6.896  13.404  0.00  0.00    +0.000 OA
ATOM     24  H   UNL     1      40.244  -5.824  12.007  0.00  0.00    +0.000 HD
ATOM     25  H   UNL     1      41.320  -7.093  11.528  0.00  0.00    +0.000 HD
ENDBRANCH  18  21
ENDBRANCH   2  15
TORSDOF 5
ENDMDL
MODEL 8
REMARK VINA RESULT:    -4.820      4.589      6.222
REMARK INTER + INTRA:          -6.701
REMARK INTER:                  -6.048
REMARK INTRA:                  -0.653
REMARK UNBOUND:                -0.472
REMARK  Name = 
REMARK  6 active torsions:
REMARK  status: ('A' for Active; 'I' for Inactive)
REMARK    1  A    between atoms: C_1  and  C_2
REMARK    2  A    between atoms: C_2  and  O_3
REMARK    3  A    between atoms: O_3  and  C_4
REMARK    4  A    between atoms: C_8  and  C_9
REMARK    5  A    between atoms: C_10  and  C_11
REMARK    6  A    between atoms: C_14  and  C_15
REMARK                            x       y       z     vdW  Elec       q    Type
REMARK                         _______ _______ _______ _____ _____    ______ ____
ROOT
ATOM      1  C   UNL     1      50.730   6.076  16.814  0.00  0.00    +0.000 C 
ATOM      2  C   UNL     1      50.336   4.951  17.432  0.00  0.00    +0.000 C 
ENDROOT
BRANCH   1   7
ATOM      3  C   UNL     1      48.828   8.825  15.060  0.00  0.00    +0.000 A 
ATOM      4  C   UNL     1      48.102   9.376  16.115  0.00  0.00    +0.000 A 
ATOM      5  C   UNL     1      48.277   8.895  17.413  0.00  0.00    +0.000 A 
ATOM      6  C   UNL     1      49.153   7.840  17.658  0.00  0.00    +0.000 A 
ATOM      7  C   UNL     1      49.845   7.234  16.603  0.00  0.00    +0.000 A 
ATOM      8  C   UNL     1      49.698   7.757  15.313  0.00  0.00    +0.000 A 
BRANCH   3   9
ATOM      9  O   UNL     1      48.761   9.233  13.752  0.00  0.00    +0.000 OA
BRANCH   9  11
ATOM     10  C   UNL     1      48.776   7.898  11.696  0.00  0.00    +0.000 C 
ATOM     11  C   UNL     1      47.923   8.531  12.793  0.00  0.00    +0.000 C 
ATOM     12  C   UNL     1      46.717   7.714  13.318  0.00  0.00    +0.000 C 
ATOM     13  O   UNL     1      45.783   8.755  12.948  0.00  0.00    +0.000 OA
ATOM     14  C   UNL     1      46.812   9.423  12.182  0.00  0.00    +0.000 C 
ENDBRANCH   9  11
ENDBRANCH   3   9
ENDBRANCH   1   7
BRANCH   2  15
ATOM     15  C   UNL     1      51.161   3.745  17.590  0.00  0.00    +0.000 A 
ATOM     16  C   UNL     1      52.487   3.794  18.037  0.00  0.00    +0.000 A 
ATOM     17  C   UNL     1      53.245   2.625  18.145  0.00  0.00    +0.000 A 
ATOM     18  C   UNL     1      52.680   1.383  17.834  0.00  0.00    +0.000 A 
ATOM     19  C   UNL     1      51.348   1.319  17.416  0.00  0.00    +0.000 A 
ATOM     20  C   UNL     1      50.595   2.494  17.301  0.00  0.00    +0.000 A 
BRANCH  18  21
ATOM     21  C   UNL     1      53.545   0.179  17.930  0.00  0.00    +0.000 C 
ATOM     22  N   UNL     1      53.063  -0.894  18.626  0.00  0.00    +0.000 N 
ATOM     23  O   UNL     1      54.663   0.150  17.432  0.00  0.00    +0.000 OA
ATOM     24  H   UNL     1      52.266  -0.834  19.242  0.00  0.00    +0.000 HD
ATOM     25  H   UNL     1      53.711  -1.659  18.764  0.00  0.00    +0.000 HD
ENDBRANCH  18  21
ENDBRANCH   2  15
TORSDOF 5
ENDMDL
MODEL 9
REMARK VINA RESULT:    -4.776     10.354     11.550
REMARK INTER + INTRA:          -6.644
REMARK INTER:                  -6.252
REMARK INTRA:                  -0.392
REMARK UNBOUND:                -0.472
REMARK  Name = 
REMARK  6 active torsions:
REMARK  status: ('A' for Active; 'I' for Inactive)
REMARK    1  A    between atoms: C_1  and  C_2
REMARK    2  A    between atoms: C_2  and  O_3
REMARK    3  A    between atoms: O_3  and  C_4
REMARK    4  A    between atoms: C_8  and  C_9
REMARK    5  A    between atoms: C_10  and  C_11
REMARK    6  A    between atoms: C_14  and  C_15
REMARK                            x       y       z     vdW  Elec       q    Type
REMARK                         _______ _______ _______ _____ _____    ______ ____
ROOT
ATOM      1  C   UNL     1      38.570  -1.111  15.393  0.00  0.00    +0.000 C 
ATOM      2  C   UNL     1      39.724  -1.223  16.070  0.00  0.00    +0.000 C 
ENDROOT
BRANCH   1   7
ATOM      3  C   UNL     1      36.726   1.872  16.792  0.00  0.00    +0.000 A 
ATOM      4  C   UNL     1      36.156   2.409  15.639  0.00  0.00    +0.000 A 
ATOM      5  C   UNL     1      36.317   1.768  14.411  0.00  0.00    +0.000 A 
ATOM      6  C   UNL     1      37.077   0.603  14.323  0.00  0.00    +0.000 A 
ATOM      7  C   UNL     1      37.708   0.082  15.458  0.00  0.00    +0.000 A 
ATOM      8  C   UNL     1      37.498   0.707  16.693  0.00  0.00    +0.000 A 
BRANCH   3   9
ATOM      9  O   UNL     1      36.612   2.397  18.053  0.00  0.00    +0.000 OA
BRANCH   9  11
ATOM     10  C   UNL     1      38.389   3.945  17.378  0.00  0.00    +0.000 C 
ATOM     11  C   UNL     1      37.543   3.407  18.530  0.00  0.00    +0.000 C 
ATOM     12  C   UNL     1      37.056   4.424  19.591  0.00  0.00    +0.000 C 
ATOM     13  O   UNL     1      37.722   3.710  20.658  0.00  0.00    +0.000 OA
ATOM     14  C   UNL     1      38.442   2.912  19.691  0.00  0.00    +0.000 C 
ENDBRANCH   9  11
ENDBRANCH   3   9
ENDBRANCH   1   7
BRANCH   2  15
ATOM     15  C   UNL     1      40.571  -2.423  16.095  0.00  0.00    +0.000 A 
ATOM     16  C   UNL     1      40.797  -3.209  14.959  0.00  0.00    +0.000 A 
ATOM     17  C   UNL     1      41.586  -4.360  15.036  0.00  0.00    +0.000 A 
ATOM     18  C   UNL     1      42.186  -4.729  16.245  0.00  0.00    +0.000 A 
ATOM     19  C   UNL     1      41.993  -3.935  17.379  0.00  0.00    +0.000 A 
ATOM     20  C   UNL     1      41.194  -2.787  17.300  0.00  0.00    +0.000 A 
BRANCH  18  21
ATOM     21  C   UNL     1      42.982  -5.983  16.276  0.00  0.00    +0.000 C 
ATOM     22  N   UNL     1      43.785  -6.197  17.360  0.00  0.00    +0.000 N 
ATOM     23  O   UNL     1      42.948  -6.788  15.353  0.00  0.00    +0.000 OA
ATOM     24  H   UNL     1      44.024  -5.471  18.018  0.00  0.00    +0.000 HD
ATOM     25  H   UNL     1      44.393  -7.006  17.308  0.00  0.00    +0.000 HD
ENDBRANCH  18  21
ENDBRANCH   2  15
TORSDOF 5
ENDMDL
