MODEL 1
REMARK VINA RESULT:    -7.631      0.000      0.000
REMARK INTER + INTRA:         -12.150
REMARK INTER:                 -11.199
REMARK INTRA:                  -0.950
REMARK UNBOUND:                -0.950
REMARK  Name = 
REMARK  9 active torsions:
REMARK  status: ('A' for Active; 'I' for Inactive)
REMARK    1  A    between atoms: C_1  and  C_2
REMARK    2  A    between atoms: C_2  and  N_3
REMARK    3  A    between atoms: C_2  and  C_19
REMARK    4  A    between atoms: N_3  and  C_4
REMARK    5  A    between atoms: C_4  and  C_5
REMARK    6  A    between atoms: C_8  and  C_9
REMARK    7  A    between atoms: C_9  and  N_10
REMARK    8  A    between atoms: N_10  and  C_11
REMARK    9  A    between atoms: C_11  and  C_12
REMARK                            x       y       z     vdW  Elec       q    Type
REMARK                         _______ _______ _______ _____ _____    ______ ____
ROOT
ATOM      1  C   UNL     1      47.852   5.656  14.281  0.00  0.00    +0.000 C 
ENDROOT
BRANCH   1   2
ATOM      2  C   UNL     1      46.813   5.266  13.246  0.00  0.00    +0.000 A 
ATOM      3  C   UNL     1      46.470   6.156  12.219  0.00  0.00    +0.000 A 
ATOM      4  C   UNL     1      45.480   5.825  11.293  0.00  0.00    +0.000 A 
ATOM      5  C   UNL     1      44.838   4.577  11.335  0.00  0.00    +0.000 A 
ATOM      6  C   UNL     1      45.182   3.688  12.360  0.00  0.00    +0.000 A 
ATOM      7  C   UNL     1      46.157   4.029  13.306  0.00  0.00    +0.000 A 
BRANCH   5   8
ATOM      8  C   UNL     1      43.753   4.220  10.338  0.00  0.00    +0.000 C 
BRANCH   8   9
ATOM      9  N   UNL     1      44.242   4.334   8.966  0.00  0.00    +0.000 NA
ATOM     10  H   UNL     1      45.043   4.965   8.951  0.00  0.00    +0.000 HD
BRANCH   9  11
ATOM     11  C   UNL     1      44.592   3.054   8.363  0.00  0.00    +0.000 C 
BRANCH  11  12
ATOM     12  C   UNL     1      46.127   2.943   8.284  0.00  0.00    +0.000 C 
ATOM     13  C   UNL     1      46.727   3.775   7.153  0.00  0.00    +0.000 C 
ATOM     14  C   UNL     1      46.625   2.841   5.968  0.00  0.00    +0.000 C 
ATOM     15  N   UNL     1      46.993   1.530   6.514  0.00  0.00    +0.000 NA
ATOM     16  C   UNL     1      46.573   1.523   7.927  0.00  0.00    +0.000 C 
ATOM     17  H   UNL     1      48.011   1.449   6.484  0.00  0.00    +0.000 HD
ENDBRANCH  11  12
ENDBRANCH   9  11
ENDBRANCH   8   9
ENDBRANCH   5   8
ENDBRANCH   1   2
BRANCH   1  18
ATOM     18  N   UNL     1      47.361   5.360  15.624  0.00  0.00    +0.000 NA
ATOM     19  H   UNL     1      47.570   6.157  16.222  0.00  0.00    +0.000 HD
BRANCH  18  21
ATOM     20  C   UNL     1      46.916   3.402  17.101  0.00  0.00    +0.000 C 
ATOM     21  C   UNL     1      47.938   4.166  16.255  0.00  0.00    +0.000 C 
BRANCH  21  22
ATOM     22  C   UNL     1      49.087   4.651  17.130  0.00  0.00    +0.000 A 
ATOM     23  C   UNL     1      49.151   5.913  17.709  0.00  0.00    +0.000 A 
ATOM     24  S   UNL     1      50.562   6.174  18.628  0.00  0.00    +0.000 S 
ATOM     25  C   UNL     1      51.118   4.596  18.325  0.00  0.00    +0.000 A 
ATOM     26  N   UNL     1      52.287   4.151  18.862  0.00  0.00    +0.000 NA
ATOM     27  C   UNL     1      52.571   2.927  18.567  0.00  0.00    +0.000 A 
ATOM     28  N   UNL     1      51.801   2.110  17.775  0.00  0.00    +0.000 N 
ATOM     29  C   UNL     1      50.619   2.517  17.197  0.00  0.00    +0.000 A 
ATOM     30  O   UNL     1      49.957   1.770  16.485  0.00  0.00    +0.000 OA
ATOM     31  C   UNL     1      50.250   3.887  17.514  0.00  0.00    +0.000 A 
ATOM     32  H   UNL     1      52.087   1.161  17.584  0.00  0.00    +0.000 HD
ENDBRANCH  21  22
ENDBRANCH  18  21
ENDBRANCH   1  18
TORSDOF 8
ENDMDL
MODEL 2
REMARK VINA RESULT:    -7.236      1.625      2.149
REMARK INTER + INTRA:         -11.571
REMARK INTER:                 -10.278
REMARK INTRA:                  -1.293
REMARK UNBOUND:                -0.950
REMARK  Name = 
REMARK  9 active torsions:
REMARK  status: ('A' for Active; 'I' for Inactive)
REMARK    1  A    between atoms: C_1  and  C_2
REMARK    2  A    between atoms: C_2  and  N_3
REMARK    3  A    between atoms: C_2  and  C_19
REMARK    4  A    between atoms: N_3  and  C_4
REMARK    5  A    between atoms: C_4  and  C_5
REMARK    6  A    between atoms: C_8  and  C_9
REMARK    7  A    between atoms: C_9  and  N_10
REMARK    8  A    between atoms: N_10  and  C_11
REMARK    9  A    between atoms: C_11  and  C_12
REMARK                            x       y       z     vdW  Elec       q    Type
REMARK                         _______ _______ _______ _____ _____    ______ ____
ROOT
ATOM      1  C   UNL     1      48.094   6.483  13.492  0.00  0.00    +0.000 C 
ENDROOT
BRANCH   1   2
ATOM      2  C   UNL     1      46.991   5.760  12.744  0.00  0.00    +0.000 A 
ATOM      3  C   UNL     1      46.461   4.564  13.249  0.00  0.00    +0.000 A 
ATOM      4  C   UNL     1      45.480   3.867  12.541  0.00  0.00    +0.000 A 
ATOM      5  C   UNL     1      44.964   4.367  11.335  0.00  0.00    +0.000 A 
ATOM      6  C   UNL     1      45.493   5.562  10.832  0.00  0.00    +0.000 A 
ATOM      7  C   UNL     1      46.495   6.250  11.527  0.00  0.00    +0.000 A 
BRANCH   5   8
ATOM      8  C   UNL     1      43.908   3.605  10.558  0.00  0.00    +0.000 C 
BRANCH   8   9
ATOM      9  N   UNL     1      44.406   2.298  10.136  0.00  0.00    +0.000 NA
ATOM     10  H   UNL     1      43.736   1.583  10.418  0.00  0.00    +0.000 HD
BRANCH   9  11
ATOM     11  C   UNL     1      44.672   2.210   8.707  0.00  0.00    +0.000 C 
BRANCH  11  12
ATOM     12  C   UNL     1      46.189   2.355   8.472  0.00  0.00    +0.000 C 
ATOM     13  C   UNL     1      46.537   3.498   7.520  0.00  0.00    +0.000 C 
ATOM     14  C   UNL     1      46.417   2.844   6.162  0.00  0.00    +0.000 C 
ATOM     15  N   UNL     1      47.013   1.517   6.350  0.00  0.00    +0.000 NA
ATOM     16  C   UNL     1      46.769   1.135   7.753  0.00  0.00    +0.000 C 
ATOM     17  H   UNL     1      48.022   1.602   6.215  0.00  0.00    +0.000 HD
ENDBRANCH  11  12
ENDBRANCH   9  11
ENDBRANCH   8   9
ENDBRANCH   5   8
ENDBRANCH   1   2
BRANCH   1  18
ATOM     18  N   UNL     1      48.149   6.025  14.877  0.00  0.00    +0.000 NA
ATOM     19  H   UNL     1      47.210   5.746  15.157  0.00  0.00    +0.000 HD
BRANCH  18  21
ATOM     20  C   UNL     1      48.557   8.447  15.306  0.00  0.00    +0.000 C 
ATOM     21  C   UNL     1      48.627   7.016  15.848  0.00  0.00    +0.000 C 
BRANCH  21  22
ATOM     22  C   UNL     1      50.070   6.646  16.170  0.00  0.00    +0.000 A 
ATOM     23  C   UNL     1      51.177   7.368  15.740  0.00  0.00    +0.000 A 
ATOM     24  S   UNL     1      52.664   6.707  16.248  0.00  0.00    +0.000 S 
ATOM     25  C   UNL     1      51.883   5.459  17.099  0.00  0.00    +0.000 A 
ATOM     26  N   UNL     1      52.597   4.540  17.802  0.00  0.00    +0.000 NA
ATOM     27  C   UNL     1      51.872   3.667  18.418  0.00  0.00    +0.000 A 
ATOM     28  N   UNL     1      50.499   3.621  18.384  0.00  0.00    +0.000 N 
ATOM     29  C   UNL     1      49.732   4.519  17.676  0.00  0.00    +0.000 A 
ATOM     30  O   UNL     1      48.508   4.448  17.656  0.00  0.00    +0.000 OA
ATOM     31  C   UNL     1      50.506   5.532  16.978  0.00  0.00    +0.000 A 
ATOM     32  H   UNL     1      49.996   2.907  18.889  0.00  0.00    +0.000 HD
ENDBRANCH  21  22
ENDBRANCH  18  21
ENDBRANCH   1  18
TORSDOF 8
ENDMDL
MODEL 3
REMARK VINA RESULT:    -7.178      2.550      3.306
REMARK INTER + INTRA:         -11.485
REMARK INTER:                 -10.523
REMARK INTRA:                  -0.963
REMARK UNBOUND:                -0.950
REMARK  Name = 
REMARK  9 active torsions:
REMARK  status: ('A' for Active; 'I' for Inactive)
REMARK    1  A    between atoms: C_1  and  C_2
REMARK    2  A    between atoms: C_2  and  N_3
REMARK    3  A    between atoms: C_2  and  C_19
REMARK    4  A    between atoms: N_3  and  C_4
REMARK    5  A    between atoms: C_4  and  C_5
REMARK    6  A    between atoms: C_8  and  C_9
REMARK    7  A    between atoms: C_9  and  N_10
REMARK    8  A    between atoms: N_10  and  C_11
REMARK    9  A    between atoms: C_11  and  C_12
REMARK                            x       y       z     vdW  Elec       q    Type
REMARK                         _______ _______ _______ _____ _____    ______ ____
ROOT
ATOM      1  C   UNL     1      47.625   6.667  13.609  0.00  0.00    +0.000 C 
ENDROOT
BRANCH   1   2
ATOM      2  C   UNL     1      46.698   5.794  12.786  0.00  0.00    +0.000 A 
ATOM      3  C   UNL     1      46.245   6.229  11.532  0.00  0.00    +0.000 A 
ATOM      4  C   UNL     1      45.352   5.454  10.791  0.00  0.00    +0.000 A 
ATOM      5  C   UNL     1      44.923   4.200  11.256  0.00  0.00    +0.000 A 
ATOM      6  C   UNL     1      45.376   3.766  12.508  0.00  0.00    +0.000 A 
ATOM      7  C   UNL     1      46.253   4.554  13.265  0.00  0.00    +0.000 A 
BRANCH   5   8
ATOM      8  C   UNL     1      43.943   3.361  10.459  0.00  0.00    +0.000 C 
BRANCH   8   9
ATOM      9  N   UNL     1      44.586   2.160   9.932  0.00  0.00    +0.000 NA
ATOM     10  H   UNL     1      44.008   1.351  10.155  0.00  0.00    +0.000 HD
BRANCH   9  11
ATOM     11  C   UNL     1      44.847   2.220   8.500  0.00  0.00    +0.000 C 
BRANCH  11  12
ATOM     12  C   UNL     1      46.368   2.337   8.274  0.00  0.00    +0.000 C 
ATOM     13  C   UNL     1      46.740   3.441   7.287  0.00  0.00    +0.000 C 
ATOM     14  C   UNL     1      46.622   2.742   5.951  0.00  0.00    +0.000 C 
ATOM     15  N   UNL     1      47.199   1.415   6.191  0.00  0.00    +0.000 NA
ATOM     16  C   UNL     1      46.938   1.085   7.604  0.00  0.00    +0.000 C 
ATOM     17  H   UNL     1      48.210   1.482   6.062  0.00  0.00    +0.000 HD
ENDBRANCH  11  12
ENDBRANCH   9  11
ENDBRANCH   8   9
ENDBRANCH   5   8
ENDBRANCH   1   2
BRANCH   1  18
ATOM     18  N   UNL     1      48.130   5.923  14.758  0.00  0.00    +0.000 NA
ATOM     19  H   UNL     1      47.353   5.411  15.173  0.00  0.00    +0.000 HD
BRANCH  18  21
ATOM     20  C   UNL     1      50.216   7.045  15.536  0.00  0.00    +0.000 C 
ATOM     21  C   UNL     1      48.742   6.737  15.816  0.00  0.00    +0.000 C 
BRANCH  21  22
ATOM     22  C   UNL     1      48.608   5.941  17.108  0.00  0.00    +0.000 A 
ATOM     23  C   UNL     1      48.888   4.584  17.224  0.00  0.00    +0.000 A 
ATOM     24  S   UNL     1      48.636   3.966  18.792  0.00  0.00    +0.000 S 
ATOM     25  C   UNL     1      48.187   5.495  19.384  0.00  0.00    +0.000 A 
ATOM     26  N   UNL     1      47.870   5.672  20.695  0.00  0.00    +0.000 NA
ATOM     27  C   UNL     1      47.573   6.889  21.008  0.00  0.00    +0.000 A 
ATOM     28  N   UNL     1      47.553   7.943  20.127  0.00  0.00    +0.000 N 
ATOM     29  C   UNL     1      47.852   7.814  18.789  0.00  0.00    +0.000 A 
ATOM     30  O   UNL     1      47.815   8.771  18.024  0.00  0.00    +0.000 OA
ATOM     31  C   UNL     1      48.207   6.461  18.393  0.00  0.00    +0.000 A 
ATOM     32  H   UNL     1      47.309   8.870  20.442  0.00  0.00    +0.000 HD
ENDBRANCH  21  22
ENDBRANCH  18  21
ENDBRANCH   1  18
TORSDOF 8
ENDMDL
MODEL 4
REMARK VINA RESULT:    -7.156      2.185      3.146
REMARK INTER + INTRA:         -11.452
REMARK INTER:                 -10.412
REMARK INTRA:                  -1.040
REMARK UNBOUND:                -0.950
REMARK  Name = 
REMARK  9 active torsions:
REMARK  status: ('A' for Active; 'I' for Inactive)
REMARK    1  A    between atoms: C_1  and  C_2
REMARK    2  A    between atoms: C_2  and  N_3
REMARK    3  A    between atoms: C_2  and  C_19
REMARK    4  A    between atoms: N_3  and  C_4
REMARK    5  A    between atoms: C_4  and  C_5
REMARK    6  A    between atoms: C_8  and  C_9
REMARK    7  A    between atoms: C_9  and  N_10
REMARK    8  A    between atoms: N_10  and  C_11
REMARK    9  A    between atoms: C_11  and  C_12
REMARK                            x       y       z     vdW  Elec       q    Type
REMARK                         _______ _______ _______ _____ _____    ______ ____
ROOT
ATOM      1  C   UNL     1      49.117   6.667  15.349  0.00  0.00    +0.000 C 
ENDROOT
BRANCH   1   2
ATOM      2  C   UNL     1      48.015   6.884  14.329  0.00  0.00    +0.000 A 
ATOM      3  C   UNL     1      47.563   5.818  13.539  0.00  0.00    +0.000 A 
ATOM      4  C   UNL     1      46.585   6.021  12.564  0.00  0.00    +0.000 A 
ATOM      5  C   UNL     1      45.994   7.282  12.382  0.00  0.00    +0.000 A 
ATOM      6  C   UNL     1      46.444   8.346  13.173  0.00  0.00    +0.000 A 
ATOM      7  C   UNL     1      47.445   8.150  14.135  0.00  0.00    +0.000 A 
BRANCH   5   8
ATOM      8  C   UNL     1      44.940   7.508  11.317  0.00  0.00    +0.000 C 
BRANCH   8   9
ATOM      9  N   UNL     1      44.416   6.239  10.817  0.00  0.00    +0.000 NA
ATOM     10  H   UNL     1      45.162   5.544  10.835  0.00  0.00    +0.000 HD
BRANCH   9  11
ATOM     11  C   UNL     1      43.255   5.758  11.554  0.00  0.00    +0.000 C 
BRANCH  11  12
ATOM     12  C   UNL     1      43.063   4.257  11.257  0.00  0.00    +0.000 C 
ATOM     13  C   UNL     1      43.422   3.365  12.443  0.00  0.00    +0.000 C 
ATOM     14  C   UNL     1      44.914   3.179  12.275  0.00  0.00    +0.000 C 
ATOM     15  N   UNL     1      45.090   2.997  10.830  0.00  0.00    +0.000 NA
ATOM     16  C   UNL     1      44.022   3.768  10.169  0.00  0.00    +0.000 C 
ATOM     17  H   UNL     1      44.948   2.008  10.616  0.00  0.00    +0.000 HD
ENDBRANCH  11  12
ENDBRANCH   9  11
ENDBRANCH   8   9
ENDBRANCH   5   8
ENDBRANCH   1   2
BRANCH   1  18
ATOM     18  N   UNL     1      48.548   6.227  16.619  0.00  0.00    +0.000 NA
ATOM     19  H   UNL     1      49.056   6.688  17.372  0.00  0.00    +0.000 HD
BRANCH  18  21
ATOM     20  C   UNL     1      47.453   4.296  17.754  0.00  0.00    +0.000 C 
ATOM     21  C   UNL     1      48.602   4.781  16.865  0.00  0.00    +0.000 C 
BRANCH  21  22
ATOM     22  C   UNL     1      49.940   4.506  17.540  0.00  0.00    +0.000 A 
ATOM     23  C   UNL     1      50.622   5.425  18.329  0.00  0.00    +0.000 A 
ATOM     24  S   UNL     1      52.099   4.837  18.943  0.00  0.00    +0.000 S 
ATOM     25  C   UNL     1      51.861   3.319  18.217  0.00  0.00    +0.000 A 
ATOM     26  N   UNL     1      52.766   2.316  18.380  0.00  0.00    +0.000 NA
ATOM     27  C   UNL     1      52.444   1.213  17.792  0.00  0.00    +0.000 A 
ATOM     28  N   UNL     1      51.307   1.023  17.046  0.00  0.00    +0.000 N 
ATOM     29  C   UNL     1      50.368   2.010  16.838  0.00  0.00    +0.000 A 
ATOM     30  O   UNL     1      49.366   1.816  16.158  0.00  0.00    +0.000 OA
ATOM     31  C   UNL     1      50.681   3.268  17.495  0.00  0.00    +0.000 A 
ATOM     32  H   UNL     1      51.119   0.132  16.612  0.00  0.00    +0.000 HD
ENDBRANCH  21  22
ENDBRANCH  18  21
ENDBRANCH   1  18
TORSDOF 8
ENDMDL
MODEL 5
REMARK VINA RESULT:    -7.068      3.294      8.919
REMARK INTER + INTRA:         -11.324
REMARK INTER:                  -9.870
REMARK INTRA:                  -1.454
REMARK UNBOUND:                -0.950
REMARK  Name = 
REMARK  9 active torsions:
REMARK  status: ('A' for Active; 'I' for Inactive)
REMARK    1  A    between atoms: C_1  and  C_2
REMARK    2  A    between atoms: C_2  and  N_3
REMARK    3  A    between atoms: C_2  and  C_19
REMARK    4  A    between atoms: N_3  and  C_4
REMARK    5  A    between atoms: C_4  and  C_5
REMARK    6  A    between atoms: C_8  and  C_9
REMARK    7  A    between atoms: C_9  and  N_10
REMARK    8  A    between atoms: N_10  and  C_11
REMARK    9  A    between atoms: C_11  and  C_12
REMARK                            x       y       z     vdW  Elec       q    Type
REMARK                         _______ _______ _______ _____ _____    ______ ____
ROOT
ATOM      1  C   UNL     1      48.009   7.949  11.869  0.00  0.00    +0.000 C 
ENDROOT
BRANCH   1   2
ATOM      2  C   UNL     1      48.757   7.617  13.146  0.00  0.00    +0.000 A 
ATOM      3  C   UNL     1      48.134   6.873  14.157  0.00  0.00    +0.000 A 
ATOM      4  C   UNL     1      48.798   6.606  15.355  0.00  0.00    +0.000 A 
ATOM      5  C   UNL     1      50.121   7.030  15.560  0.00  0.00    +0.000 A 
ATOM      6  C   UNL     1      50.744   7.771  14.549  0.00  0.00    +0.000 A 
ATOM      7  C   UNL     1      50.070   8.063  13.355  0.00  0.00    +0.000 A 
BRANCH   5   8
ATOM      8  C   UNL     1      50.840   6.752  16.864  0.00  0.00    +0.000 C 
BRANCH   8   9
ATOM      9  N   UNL     1      49.974   6.043  17.803  0.00  0.00    +0.000 NA
ATOM     10  H   UNL     1      49.005   6.300  17.616  0.00  0.00    +0.000 HD
BRANCH   9  11
ATOM     11  C   UNL     1      50.133   4.595  17.763  0.00  0.00    +0.000 C 
BRANCH  11  12
ATOM     12  C   UNL     1      48.978   3.945  18.550  0.00  0.00    +0.000 C 
ATOM     13  C   UNL     1      48.139   2.993  17.699  0.00  0.00    +0.000 C 
ATOM     14  C   UNL     1      47.138   3.925  17.054  0.00  0.00    +0.000 C 
ATOM     15  N   UNL     1      46.769   4.853  18.128  0.00  0.00    +0.000 NA
ATOM     16  C   UNL     1      47.948   4.982  19.004  0.00  0.00    +0.000 C 
ATOM     17  H   UNL     1      46.015   4.426  18.670  0.00  0.00    +0.000 HD
ENDBRANCH  11  12
ENDBRANCH   9  11
ENDBRANCH   8   9
ENDBRANCH   5   8
ENDBRANCH   1   2
BRANCH   1  18
ATOM     18  N   UNL     1      47.150   6.834  11.483  0.00  0.00    +0.000 NA
ATOM     19  H   UNL     1      47.461   6.492  10.575  0.00  0.00    +0.000 HD
BRANCH  18  21
ATOM     20  C   UNL     1      45.282   8.221  12.376  0.00  0.00    +0.000 C 
ATOM     21  C   UNL     1      45.721   7.149  11.375  0.00  0.00    +0.000 C 
BRANCH  21  22
ATOM     22  C   UNL     1      44.970   5.849  11.633  0.00  0.00    +0.000 A 
ATOM     23  C   UNL     1      44.246   5.580  12.790  0.00  0.00    +0.000 A 
ATOM     24  S   UNL     1      43.520   4.039  12.800  0.00  0.00    +0.000 S 
ATOM     25  C   UNL     1      44.106   3.691  11.242  0.00  0.00    +0.000 A 
ATOM     26  N   UNL     1      43.811   2.511  10.632  0.00  0.00    +0.000 NA
ATOM     27  C   UNL     1      44.302   2.395   9.443  0.00  0.00    +0.000 A 
ATOM     28  N   UNL     1      45.071   3.343   8.815  0.00  0.00    +0.000 N 
ATOM     29  C   UNL     1      45.410   4.545   9.395  0.00  0.00    +0.000 A 
ATOM     30  O   UNL     1      46.107   5.369   8.814  0.00  0.00    +0.000 OA
ATOM     31  C   UNL     1      44.866   4.728  10.730  0.00  0.00    +0.000 A 
ATOM     32  H   UNL     1      45.425   3.183   7.883  0.00  0.00    +0.000 HD
ENDBRANCH  21  22
ENDBRANCH  18  21
ENDBRANCH   1  18
TORSDOF 8
ENDMDL
MODEL 6
REMARK VINA RESULT:    -7.006      1.500      2.134
REMARK INTER + INTRA:         -11.232
REMARK INTER:                 -10.135
REMARK INTRA:                  -1.097
REMARK UNBOUND:                -0.950
REMARK  Name = 
REMARK  9 active torsions:
REMARK  status: ('A' for Active; 'I' for Inactive)
REMARK    1  A    between atoms: C_1  and  C_2
REMARK    2  A    between atoms: C_2  and  N_3
REMARK    3  A    between atoms: C_2  and  C_19
REMARK    4  A    between atoms: N_3  and  C_4
REMARK    5  A    between atoms: C_4  and  C_5
REMARK    6  A    between atoms: C_8  and  C_9
REMARK    7  A    between atoms: C_9  and  N_10
REMARK    8  A    between atoms: N_10  and  C_11
REMARK    9  A    between atoms: C_11  and  C_12
REMARK                            x       y       z     vdW  Elec       q    Type
REMARK                         _______ _______ _______ _____ _____    ______ ____
ROOT
ATOM      1  C   UNL     1      48.817   6.241  15.683  0.00  0.00    +0.000 C 
ENDROOT
BRANCH   1   2
ATOM      2  C   UNL     1      47.778   6.025  14.599  0.00  0.00    +0.000 A 
ATOM      3  C   UNL     1      47.601   6.981  13.589  0.00  0.00    +0.000 A 
ATOM      4  C   UNL     1      46.614   6.812  12.617  0.00  0.00    +0.000 A 
ATOM      5  C   UNL     1      45.808   5.662  12.593  0.00  0.00    +0.000 A 
ATOM      6  C   UNL     1      45.987   4.707  13.601  0.00  0.00    +0.000 A 
ATOM      7  C   UNL     1      46.960   4.886  14.594  0.00  0.00    +0.000 A 
BRANCH   5   8
ATOM      8  C   UNL     1      44.728   5.482  11.546  0.00  0.00    +0.000 C 
BRANCH   8   9
ATOM      9  N   UNL     1      45.211   4.681  10.424  0.00  0.00    +0.000 NA
ATOM     10  H   UNL     1      46.212   4.838  10.313  0.00  0.00    +0.000 HD
BRANCH   9  11
ATOM     11  C   UNL     1      44.931   3.258  10.561  0.00  0.00    +0.000 C 
BRANCH  11  12
ATOM     12  C   UNL     1      44.458   2.709   9.201  0.00  0.00    +0.000 C 
ATOM     13  C   UNL     1      45.301   1.534   8.708  0.00  0.00    +0.000 C 
ATOM     14  C   UNL     1      46.446   2.225   8.000  0.00  0.00    +0.000 C 
ATOM     15  N   UNL     1      45.806   3.334   7.284  0.00  0.00    +0.000 NA
ATOM     16  C   UNL     1      44.635   3.739   8.083  0.00  0.00    +0.000 C 
ATOM     17  H   UNL     1      45.472   2.979   6.386  0.00  0.00    +0.000 HD
ENDBRANCH  11  12
ENDBRANCH   9  11
ENDBRANCH   8   9
ENDBRANCH   5   8
ENDBRANCH   1   2
BRANCH   1  18
ATOM     18  N   UNL     1      49.264   4.958  16.216  0.00  0.00    +0.000 NA
ATOM     19  H   UNL     1      48.709   4.222  15.783  0.00  0.00    +0.000 HD
BRANCH  18  21
ATOM     20  C   UNL     1      48.747   6.112  18.364  0.00  0.00    +0.000 C 
ATOM     21  C   UNL     1      49.148   4.806  17.671  0.00  0.00    +0.000 C 
BRANCH  21  22
ATOM     22  C   UNL     1      50.512   4.345  18.169  0.00  0.00    +0.000 A 
ATOM     23  C   UNL     1      51.335   5.094  19.002  0.00  0.00    +0.000 A 
ATOM     24  S   UNL     1      52.806   4.322  19.384  0.00  0.00    +0.000 S 
ATOM     25  C   UNL     1      52.378   2.940  18.490  0.00  0.00    +0.000 A 
ATOM     26  N   UNL     1      53.206   1.862  18.430  0.00  0.00    +0.000 NA
ATOM     27  C   UNL     1      52.741   0.878  17.736  0.00  0.00    +0.000 A 
ATOM     28  N   UNL     1      51.531   0.876  17.087  0.00  0.00    +0.000 N 
ATOM     29  C   UNL     1      50.664   1.947  17.105  0.00  0.00    +0.000 A 
ATOM     30  O   UNL     1      49.594   1.921  16.507  0.00  0.00    +0.000 OA
ATOM     31  C   UNL     1      51.139   3.075  17.888  0.00  0.00    +0.000 A 
ATOM     32  H   UNL     1      51.232   0.070  16.560  0.00  0.00    +0.000 HD
ENDBRANCH  21  22
ENDBRANCH  18  21
ENDBRANCH   1  18
TORSDOF 8
ENDMDL
MODEL 7
REMARK VINA RESULT:    -6.814      2.932      4.113
REMARK INTER + INTRA:         -10.952
REMARK INTER:                  -9.417
REMARK INTRA:                  -1.535
REMARK UNBOUND:                -0.950
REMARK  Name = 
REMARK  9 active torsions:
REMARK  status: ('A' for Active; 'I' for Inactive)
REMARK    1  A    between atoms: C_1  and  C_2
REMARK    2  A    between atoms: C_2  and  N_3
REMARK    3  A    between atoms: C_2  and  C_19
REMARK    4  A    between atoms: N_3  and  C_4
REMARK    5  A    between atoms: C_4  and  C_5
REMARK    6  A    between atoms: C_8  and  C_9
REMARK    7  A    between atoms: C_9  and  N_10
REMARK    8  A    between atoms: N_10  and  C_11
REMARK    9  A    between atoms: C_11  and  C_12
REMARK                            x       y       z     vdW  Elec       q    Type
REMARK                         _______ _______ _______ _____ _____    ______ ____
ROOT
ATOM      1  C   UNL     1      50.222   7.912  13.933  0.00  0.00    +0.000 C 
ENDROOT
BRANCH   1   2
ATOM      2  C   UNL     1      48.845   7.895  13.299  0.00  0.00    +0.000 A 
ATOM      3  C   UNL     1      47.846   8.766  13.754  0.00  0.00    +0.000 A 
ATOM      4  C   UNL     1      46.561   8.722  13.209  0.00  0.00    +0.000 A 
ATOM      5  C   UNL     1      46.249   7.841  12.161  0.00  0.00    +0.000 A 
ATOM      6  C   UNL     1      47.248   6.972  11.705  0.00  0.00    +0.000 A 
ATOM      7  C   UNL     1      48.531   6.997  12.268  0.00  0.00    +0.000 A 
BRANCH   5   8
ATOM      8  C   UNL     1      44.853   7.782  11.576  0.00  0.00    +0.000 C 
BRANCH   8   9
ATOM      9  N   UNL     1      44.055   6.742  12.221  0.00  0.00    +0.000 NA
ATOM     10  H   UNL     1      43.308   7.183  12.757  0.00  0.00    +0.000 HD
BRANCH   9  11
ATOM     11  C   UNL     1      43.505   5.767  11.288  0.00  0.00    +0.000 C 
BRANCH  11  12
ATOM     12  C   UNL     1      44.536   4.641  11.078  0.00  0.00    +0.000 C 
ATOM     13  C   UNL     1      43.939   3.404  10.410  0.00  0.00    +0.000 C 
ATOM     14  C   UNL     1      43.378   2.634  11.585  0.00  0.00    +0.000 C 
ATOM     15  N   UNL     1      44.399   2.781  12.628  0.00  0.00    +0.000 NA
ATOM     16  C   UNL     1      45.048   4.086  12.410  0.00  0.00    +0.000 C 
ATOM     17  H   UNL     1      45.099   2.050  12.490  0.00  0.00    +0.000 HD
ENDBRANCH  11  12
ENDBRANCH   9  11
ENDBRANCH   8   9
ENDBRANCH   5   8
ENDBRANCH   1   2
BRANCH   1  18
ATOM     18  N   UNL     1      50.268   6.989  15.064  0.00  0.00    +0.000 NA
ATOM     19  H   UNL     1      49.774   6.138  14.800  0.00  0.00    +0.000 HD
BRANCH  18  21
ATOM     20  C   UNL     1      50.450   8.657  16.908  0.00  0.00    +0.000 C 
ATOM     21  C   UNL     1      49.665   7.487  16.306  0.00  0.00    +0.000 C 
BRANCH  21  22
ATOM     22  C   UNL     1      49.643   6.314  17.278  0.00  0.00    +0.000 A 
ATOM     23  C   UNL     1      50.417   6.237  18.430  0.00  0.00    +0.000 A 
ATOM     24  S   UNL     1      50.185   4.799  19.315  0.00  0.00    +0.000 S 
ATOM     25  C   UNL     1      49.009   4.247  18.217  0.00  0.00    +0.000 A 
ATOM     26  N   UNL     1      48.372   3.061  18.414  0.00  0.00    +0.000 NA
ATOM     27  C   UNL     1      47.488   2.782  17.515  0.00  0.00    +0.000 A 
ATOM     28  N   UNL     1      47.192   3.572  16.432  0.00  0.00    +0.000 N 
ATOM     29  C   UNL     1      47.819   4.773  16.181  0.00  0.00    +0.000 A 
ATOM     30  O   UNL     1      47.541   5.453  15.199  0.00  0.00    +0.000 OA
ATOM     31  C   UNL     1      48.813   5.137  17.176  0.00  0.00    +0.000 A 
ATOM     32  H   UNL     1      46.489   3.289  15.766  0.00  0.00    +0.000 HD
ENDBRANCH  21  22
ENDBRANCH  18  21
ENDBRANCH   1  18
TORSDOF 8
ENDMDL
MODEL 8
REMARK VINA RESULT:    -6.730      3.608      8.521
REMARK INTER + INTRA:         -10.828
REMARK INTER:                  -9.175
REMARK INTRA:                  -1.652
REMARK UNBOUND:                -0.950
REMARK  Name = 
REMARK  9 active torsions:
REMARK  status: ('A' for Active; 'I' for Inactive)
REMARK    1  A    between atoms: C_1  and  C_2
REMARK    2  A    between atoms: C_2  and  N_3
REMARK    3  A    between atoms: C_2  and  C_19
REMARK    4  A    between atoms: N_3  and  C_4
REMARK    5  A    between atoms: C_4  and  C_5
REMARK    6  A    between atoms: C_8  and  C_9
REMARK    7  A    between atoms: C_9  and  N_10
REMARK    8  A    between atoms: N_10  and  C_11
REMARK    9  A    between atoms: C_11  and  C_12
REMARK                            x       y       z     vdW  Elec       q    Type
REMARK                         _______ _______ _______ _____ _____    ______ ____
ROOT
ATOM      1  C   UNL     1      48.185   8.499  14.320  0.00  0.00    +0.000 C 
ENDROOT
BRANCH   1   2
ATOM      2  C   UNL     1      48.933   7.812  15.447  0.00  0.00    +0.000 A 
ATOM      3  C   UNL     1      50.189   7.234  15.212  0.00  0.00    +0.000 A 
ATOM      4  C   UNL     1      50.861   6.557  16.231  0.00  0.00    +0.000 A 
ATOM      5  C   UNL     1      50.323   6.479  17.526  0.00  0.00    +0.000 A 
ATOM      6  C   UNL     1      49.070   7.058  17.760  0.00  0.00    +0.000 A 
ATOM      7  C   UNL     1      48.382   7.716  16.732  0.00  0.00    +0.000 A 
BRANCH   5   8
ATOM      8  C   UNL     1      51.045   5.734  18.631  0.00  0.00    +0.000 C 
BRANCH   8   9
ATOM      9  N   UNL     1      50.441   4.425  18.865  0.00  0.00    +0.000 NA
ATOM     10  H   UNL     1      49.501   4.556  19.237  0.00  0.00    +0.000 HD
BRANCH   9  11
ATOM     11  C   UNL     1      50.403   3.581  17.678  0.00  0.00    +0.000 C 
BRANCH  11  12
ATOM     12  C   UNL     1      49.109   2.744  17.701  0.00  0.00    +0.000 C 
ATOM     13  C   UNL     1      48.302   2.860  16.410  0.00  0.00    +0.000 C 
ATOM     14  C   UNL     1      47.471   4.101  16.651  0.00  0.00    +0.000 C 
ATOM     15  N   UNL     1      47.055   3.985  18.053  0.00  0.00    +0.000 NA
ATOM     16  C   UNL     1      48.125   3.254  18.757  0.00  0.00    +0.000 C 
ATOM     17  H   UNL     1      46.207   3.417  18.085  0.00  0.00    +0.000 HD
ENDBRANCH  11  12
ENDBRANCH   9  11
ENDBRANCH   8   9
ENDBRANCH   5   8
ENDBRANCH   1   2
BRANCH   1  18
ATOM     18  N   UNL     1      46.970   7.758  13.997  0.00  0.00    +0.000 NA
ATOM     19  H   UNL     1      46.592   7.373  14.861  0.00  0.00    +0.000 HD
BRANCH  18  21
ATOM     20  C   UNL     1      48.150   6.973  11.946  0.00  0.00    +0.000 C 
ATOM     21  C   UNL     1      47.143   6.647  13.053  0.00  0.00    +0.000 C 
BRANCH  21  22
ATOM     22  C   UNL     1      45.771   6.372  12.451  0.00  0.00    +0.000 A 
ATOM     23  C   UNL     1      44.965   7.341  11.865  0.00  0.00    +0.000 A 
ATOM     24  S   UNL     1      43.479   6.738  11.288  0.00  0.00    +0.000 S 
ATOM     25  C   UNL     1      43.876   5.152  11.757  0.00  0.00    +0.000 A 
ATOM     26  N   UNL     1      43.026   4.118  11.516  0.00  0.00    +0.000 NA
ATOM     27  C   UNL     1      43.468   2.969  11.904  0.00  0.00    +0.000 A 
ATOM     28  N   UNL     1      44.677   2.761  12.522  0.00  0.00    +0.000 N 
ATOM     29  C   UNL     1      45.566   3.776  12.801  0.00  0.00    +0.000 A 
ATOM     30  O   UNL     1      46.634   3.561  13.364  0.00  0.00    +0.000 OA
ATOM     31  C   UNL     1      45.116   5.088  12.368  0.00  0.00    +0.000 A 
ATOM     32  H   UNL     1      44.958   1.833  12.801  0.00  0.00    +0.000 HD
ENDBRANCH  21  22
ENDBRANCH  18  21
ENDBRANCH   1  18
TORSDOF 8
ENDMDL
MODEL 9
REMARK VINA RESULT:    -6.677      3.153      4.592
REMARK INTER + INTRA:         -10.750
REMARK INTER:                  -9.002
REMARK INTRA:                  -1.748
REMARK UNBOUND:                -0.950
REMARK  Name = 
REMARK  9 active torsions:
REMARK  status: ('A' for Active; 'I' for Inactive)
REMARK    1  A    between atoms: C_1  and  C_2
REMARK    2  A    between atoms: C_2  and  N_3
REMARK    3  A    between atoms: C_2  and  C_19
REMARK    4  A    between atoms: N_3  and  C_4
REMARK    5  A    between atoms: C_4  and  C_5
REMARK    6  A    between atoms: C_8  and  C_9
REMARK    7  A    between atoms: C_9  and  N_10
REMARK    8  A    between atoms: N_10  and  C_11
REMARK    9  A    between atoms: C_11  and  C_12
REMARK                            x       y       z     vdW  Elec       q    Type
REMARK                         _______ _______ _______ _____ _____    ______ ____
ROOT
ATOM      1  C   UNL     1      49.199   7.987  17.364  0.00  0.00    +0.000 C 
ENDROOT
BRANCH   1   2
ATOM      2  C   UNL     1      48.687   7.864  15.941  0.00  0.00    +0.000 A 
ATOM      3  C   UNL     1      48.232   8.997  15.254  0.00  0.00    +0.000 A 
ATOM      4  C   UNL     1      47.713   8.885  13.963  0.00  0.00    +0.000 A 
ATOM      5  C   UNL     1      47.679   7.647  13.301  0.00  0.00    +0.000 A 
ATOM      6  C   UNL     1      48.136   6.515  13.988  0.00  0.00    +0.000 A 
ATOM      7  C   UNL     1      48.634   6.622  15.293  0.00  0.00    +0.000 A 
BRANCH   5   8
ATOM      8  C   UNL     1      47.106   7.519  11.904  0.00  0.00    +0.000 C 
BRANCH   8   9
ATOM      9  N   UNL     1      45.737   7.009  11.942  0.00  0.00    +0.000 NA
ATOM     10  H   UNL     1      45.093   7.774  11.745  0.00  0.00    +0.000 HD
BRANCH   9  11
ATOM     11  C   UNL     1      45.504   5.899  11.028  0.00  0.00    +0.000 C 
BRANCH  11  12
ATOM     12  C   UNL     1      44.712   4.802  11.766  0.00  0.00    +0.000 C 
ATOM     13  C   UNL     1      43.344   4.532  11.142  0.00  0.00    +0.000 C 
ATOM     14  C   UNL     1      42.469   5.572  11.805  0.00  0.00    +0.000 C 
ATOM     15  N   UNL     1      42.919   5.579  13.202  0.00  0.00    +0.000 NA
ATOM     16  C   UNL     1      44.350   5.227  13.191  0.00  0.00    +0.000 C 
ATOM     17  H   UNL     1      42.414   4.843  13.700  0.00  0.00    +0.000 HD
ENDBRANCH  11  12
ENDBRANCH   9  11
ENDBRANCH   8   9
ENDBRANCH   5   8
ENDBRANCH   1   2
BRANCH   1  18
ATOM     18  N   UNL     1      48.299   7.299  18.284  0.00  0.00    +0.000 NA
ATOM     19  H   UNL     1      47.695   7.995  18.720  0.00  0.00    +0.000 HD
BRANCH  18  21
ATOM     20  C   UNL     1      49.920   7.408  20.175  0.00  0.00    +0.000 C 
ATOM     21  C   UNL     1      48.954   6.544  19.359  0.00  0.00    +0.000 C 
BRANCH  21  22
ATOM     22  C   UNL     1      49.709   5.403  18.689  0.00  0.00    +0.000 A 
ATOM     23  C   UNL     1      51.087   5.232  18.753  0.00  0.00    +0.000 A 
ATOM     24  S   UNL     1      51.647   3.869  17.896  0.00  0.00    +0.000 S 
ATOM     25  C   UNL     1      50.067   3.431  17.447  0.00  0.00    +0.000 A 
ATOM     26  N   UNL     1      49.835   2.310  16.711  0.00  0.00    +0.000 NA
ATOM     27  C   UNL     1      48.587   2.090  16.466  0.00  0.00    +0.000 A 
ATOM     28  N   UNL     1      47.551   2.893  16.877  0.00  0.00    +0.000 N 
ATOM     29  C   UNL     1      47.735   4.044  17.610  0.00  0.00    +0.000 A 
ATOM     30  O   UNL     1      46.792   4.748  17.955  0.00  0.00    +0.000 OA
ATOM     31  C   UNL     1      49.126   4.326  17.924  0.00  0.00    +0.000 A 
ATOM     32  H   UNL     1      46.597   2.659  16.646  0.00  0.00    +0.000 HD
ENDBRANCH  21  22
ENDBRANCH  18  21
ENDBRANCH   1  18
TORSDOF 8
ENDMDL
