MODEL 1
REMARK VINA RESULT:    -8.353      0.000      0.000
REMARK INTER + INTRA:         -13.690
REMARK INTER:                 -12.259
REMARK INTRA:                  -1.430
REMARK UNBOUND:                -1.430
REMARK  Name = 
REMARK  9 active torsions:
REMARK  status: ('A' for Active; 'I' for Inactive)
REMARK    1  A    between atoms: C_1  and  O_2
REMARK    2  A    between atoms: O_2  and  C_3
REMARK    3  A    between atoms: C_10  and  C_11
REMARK    4  A    between atoms: N_13  and  C_14
REMARK    5  A    between atoms: C_14  and  C_15
REMARK    6  A    between atoms: C_18  and  C_19
REMARK    7  A    between atoms: C_19  and  N_20
REMARK    8  A    between atoms: N_20  and  C_21
REMARK    9  A    between atoms: C_21  and  C_22
REMARK                            x       y       z     vdW  Elec       q    Type
REMARK                         _______ _______ _______ _____ _____    ______ ____
ROOT
ATOM      1  C   UNL     1      46.715   7.711  12.893  0.00  0.00    +0.000 C 
ENDROOT
BRANCH   1   2
ATOM      2  C   UNL     1      45.945   6.559  12.297  0.00  0.00    +0.000 A 
ATOM      3  C   UNL     1      46.055   6.258  10.933  0.00  0.00    +0.000 A 
ATOM      4  C   UNL     1      45.314   5.212  10.373  0.00  0.00    +0.000 A 
ATOM      5  C   UNL     1      44.441   4.446  11.160  0.00  0.00    +0.000 A 
ATOM      6  C   UNL     1      44.321   4.758  12.521  0.00  0.00    +0.000 A 
ATOM      7  C   UNL     1      45.061   5.806  13.081  0.00  0.00    +0.000 A 
BRANCH   5   8
ATOM      8  C   UNL     1      43.644   3.315  10.545  0.00  0.00    +0.000 C 
BRANCH   8   9
ATOM      9  N   UNL     1      44.083   3.052   9.177  0.00  0.00    +0.000 NA
ATOM     10  H   UNL     1      44.569   3.876   8.823  0.00  0.00    +0.000 HD
BRANCH   9  11
ATOM     11  C   UNL     1      44.973   1.897   9.097  0.00  0.00    +0.000 C 
BRANCH  11  12
ATOM     12  C   UNL     1      45.959   2.066   7.971  0.00  0.00    +0.000 A 
ATOM     13  C   UNL     1      45.990   3.231   7.197  0.00  0.00    +0.000 A 
ATOM     14  C   UNL     1      46.938   3.369   6.187  0.00  0.00    +0.000 A 
ATOM     15  C   UNL     1      47.824   2.327   5.974  0.00  0.00    +0.000 A 
ATOM     16  N   UNL     1      47.816   1.178   6.685  0.00  0.00    +0.000 NA
ATOM     17  C   UNL     1      46.886   1.075   7.663  0.00  0.00    +0.000 A 
ENDBRANCH  11  12
ENDBRANCH   9  11
ENDBRANCH   8   9
ENDBRANCH   5   8
ENDBRANCH   1   2
BRANCH   1  20
ATOM     18  C   UNL     1      48.544   6.815  14.285  0.00  0.00    +0.000 C 
ATOM     19  O   UNL     1      49.259   6.640  13.301  0.00  0.00    +0.000 OA
ATOM     20  N   UNL     1      47.287   7.340  14.164  0.00  0.00    +0.000 N 
ATOM     21  H   UNL     1      46.711   7.468  14.984  0.00  0.00    +0.000 HD
BRANCH  18  29
ATOM     22  C   UNL     1      47.594   4.389  16.536  0.00  0.00    +0.000 A 
ATOM     23  N   UNL     1      47.468   3.514  17.554  0.00  0.00    +0.000 NA
ATOM     24  C   UNL     1      48.291   3.646  18.599  0.00  0.00    +0.000 A 
ATOM     25  N   UNL     1      49.233   4.570  18.765  0.00  0.00    +0.000 NA
ATOM     26  C   UNL     1      49.331   5.414  17.723  0.00  0.00    +0.000 A 
ATOM     27  S   UNL     1      50.476   6.667  17.766  0.00  0.00    +0.000 S 
ATOM     28  C   UNL     1      50.016   7.205  16.219  0.00  0.00    +0.000 A 
ATOM     29  C   UNL     1      49.001   6.453  15.640  0.00  0.00    +0.000 A 
ATOM     30  C   UNL     1      48.575   5.397  16.555  0.00  0.00    +0.000 A 
BRANCH  22  32
ATOM     31  C   UNL     1      47.277   3.363  14.456  0.00  0.00    +0.000 C 
ATOM     32  O   UNL     1      46.759   4.244  15.450  0.00  0.00    +0.000 OA
ENDBRANCH  22  32
ENDBRANCH  18  29
ENDBRANCH   1  20
TORSDOF 8
ENDMDL
MODEL 2
REMARK VINA RESULT:    -7.755      2.121      2.725
REMARK INTER + INTRA:         -12.812
REMARK INTER:                 -11.695
REMARK INTRA:                  -1.116
REMARK UNBOUND:                -1.430
REMARK  Name = 
REMARK  9 active torsions:
REMARK  status: ('A' for Active; 'I' for Inactive)
REMARK    1  A    between atoms: C_1  and  O_2
REMARK    2  A    between atoms: O_2  and  C_3
REMARK    3  A    between atoms: C_10  and  C_11
REMARK    4  A    between atoms: N_13  and  C_14
REMARK    5  A    between atoms: C_14  and  C_15
REMARK    6  A    between atoms: C_18  and  C_19
REMARK    7  A    between atoms: C_19  and  N_20
REMARK    8  A    between atoms: N_20  and  C_21
REMARK    9  A    between atoms: C_21  and  C_22
REMARK                            x       y       z     vdW  Elec       q    Type
REMARK                         _______ _______ _______ _____ _____    ______ ____
ROOT
ATOM      1  C   UNL     1      47.948   6.649  13.517  0.00  0.00    +0.000 C 
ENDROOT
BRANCH   1   2
ATOM      2  C   UNL     1      46.824   5.973  12.772  0.00  0.00    +0.000 A 
ATOM      3  C   UNL     1      46.478   6.383  11.479  0.00  0.00    +0.000 A 
ATOM      4  C   UNL     1      45.414   5.779  10.800  0.00  0.00    +0.000 A 
ATOM      5  C   UNL     1      44.666   4.756  11.401  0.00  0.00    +0.000 A 
ATOM      6  C   UNL     1      45.004   4.356  12.701  0.00  0.00    +0.000 A 
ATOM      7  C   UNL     1      46.068   4.961  13.380  0.00  0.00    +0.000 A 
BRANCH   5   8
ATOM      8  C   UNL     1      43.516   4.108  10.660  0.00  0.00    +0.000 C 
BRANCH   8   9
ATOM      9  N   UNL     1      43.941   3.645   9.341  0.00  0.00    +0.000 NA
ATOM     10  H   UNL     1      44.528   4.362   8.915  0.00  0.00    +0.000 HD
BRANCH   9  11
ATOM     11  C   UNL     1      44.687   2.391   9.412  0.00  0.00    +0.000 C 
BRANCH  11  12
ATOM     12  C   UNL     1      45.696   2.312   8.296  0.00  0.00    +0.000 A 
ATOM     13  C   UNL     1      45.993   3.424   7.501  0.00  0.00    +0.000 A 
ATOM     14  C   UNL     1      46.957   3.326   6.502  0.00  0.00    +0.000 A 
ATOM     15  C   UNL     1      47.591   2.109   6.321  0.00  0.00    +0.000 A 
ATOM     16  N   UNL     1      47.321   1.006   7.053  0.00  0.00    +0.000 NA
ATOM     17  C   UNL     1      46.382   1.133   8.020  0.00  0.00    +0.000 A 
ENDBRANCH  11  12
ENDBRANCH   9  11
ENDBRANCH   8   9
ENDBRANCH   5   8
ENDBRANCH   1   2
BRANCH   1  20
ATOM     18  C   UNL     1      48.973   6.385  15.746  0.00  0.00    +0.000 C 
ATOM     19  O   UNL     1      50.083   6.682  15.313  0.00  0.00    +0.000 OA
ATOM     20  N   UNL     1      47.878   6.352  14.927  0.00  0.00    +0.000 N 
ATOM     21  H   UNL     1      46.974   6.097  15.300  0.00  0.00    +0.000 HD
BRANCH  18  29
ATOM     22  C   UNL     1      47.967   8.179  18.507  0.00  0.00    +0.000 A 
ATOM     23  N   UNL     1      47.546   8.619  19.710  0.00  0.00    +0.000 NA
ATOM     24  C   UNL     1      47.497   7.741  20.715  0.00  0.00    +0.000 A 
ATOM     25  N   UNL     1      47.837   6.456  20.674  0.00  0.00    +0.000 NA
ATOM     26  C   UNL     1      48.240   6.058  19.455  0.00  0.00    +0.000 A 
ATOM     27  S   UNL     1      48.724   4.447  19.218  0.00  0.00    +0.000 S 
ATOM     28  C   UNL     1      49.029   4.731  17.569  0.00  0.00    +0.000 A 
ATOM     29  C   UNL     1      48.770   6.035  17.164  0.00  0.00    +0.000 A 
ATOM     30  C   UNL     1      48.322   6.834  18.303  0.00  0.00    +0.000 A 
BRANCH  22  32
ATOM     31  C   UNL     1      47.870  10.435  17.886  0.00  0.00    +0.000 C 
ATOM     32  O   UNL     1      48.001   9.079  17.464  0.00  0.00    +0.000 OA
ENDBRANCH  22  32
ENDBRANCH  18  29
ENDBRANCH   1  20
TORSDOF 8
ENDMDL
MODEL 3
REMARK VINA RESULT:    -7.636      1.551      2.070
REMARK INTER + INTRA:         -12.637
REMARK INTER:                 -11.338
REMARK INTRA:                  -1.299
REMARK UNBOUND:                -1.430
REMARK  Name = 
REMARK  9 active torsions:
REMARK  status: ('A' for Active; 'I' for Inactive)
REMARK    1  A    between atoms: C_1  and  O_2
REMARK    2  A    between atoms: O_2  and  C_3
REMARK    3  A    between atoms: C_10  and  C_11
REMARK    4  A    between atoms: N_13  and  C_14
REMARK    5  A    between atoms: C_14  and  C_15
REMARK    6  A    between atoms: C_18  and  C_19
REMARK    7  A    between atoms: C_19  and  N_20
REMARK    8  A    between atoms: N_20  and  C_21
REMARK    9  A    between atoms: C_21  and  C_22
REMARK                            x       y       z     vdW  Elec       q    Type
REMARK                         _______ _______ _______ _____ _____    ______ ____
ROOT
ATOM      1  C   UNL     1      48.323   6.540  13.432  0.00  0.00    +0.000 C 
ENDROOT
BRANCH   1   2
ATOM      2  C   UNL     1      47.008   6.093  12.843  0.00  0.00    +0.000 A 
ATOM      3  C   UNL     1      46.225   5.132  13.496  0.00  0.00    +0.000 A 
ATOM      4  C   UNL     1      45.022   4.692  12.933  0.00  0.00    +0.000 A 
ATOM      5  C   UNL     1      44.576   5.196  11.703  0.00  0.00    +0.000 A 
ATOM      6  C   UNL     1      45.368   6.146  11.044  0.00  0.00    +0.000 A 
ATOM      7  C   UNL     1      46.572   6.586  11.606  0.00  0.00    +0.000 A 
BRANCH   5   8
ATOM      8  C   UNL     1      43.274   4.714  11.101  0.00  0.00    +0.000 C 
BRANCH   8   9
ATOM      9  N   UNL     1      43.492   4.143   9.774  0.00  0.00    +0.000 NA
ATOM     10  H   UNL     1      44.019   4.812   9.212  0.00  0.00    +0.000 HD
BRANCH   9  11
ATOM     11  C   UNL     1      44.224   2.880   9.831  0.00  0.00    +0.000 C 
BRANCH  11  12
ATOM     12  C   UNL     1      45.297   2.843   8.776  0.00  0.00    +0.000 A 
ATOM     13  C   UNL     1      45.954   1.653   8.444  0.00  0.00    +0.000 A 
ATOM     14  C   UNL     1      46.916   1.648   7.438  0.00  0.00    +0.000 A 
ATOM     15  C   UNL     1      47.201   2.842   6.799  0.00  0.00    +0.000 A 
ATOM     16  N   UNL     1      46.606   4.017   7.101  0.00  0.00    +0.000 NA
ATOM     17  C   UNL     1      45.671   3.989   8.080  0.00  0.00    +0.000 A 
ENDBRANCH  11  12
ENDBRANCH   9  11
ENDBRANCH   8   9
ENDBRANCH   5   8
ENDBRANCH   1   2
BRANCH   1  20
ATOM     18  C   UNL     1      49.195   7.197  15.644  0.00  0.00    +0.000 C 
ATOM     19  O   UNL     1      50.158   7.767  15.138  0.00  0.00    +0.000 OA
ATOM     20  N   UNL     1      48.252   6.577  14.873  0.00  0.00    +0.000 N 
ATOM     21  H   UNL     1      47.472   6.106  15.308  0.00  0.00    +0.000 HD
BRANCH  18  29
ATOM     22  C   UNL     1      48.745   4.615  17.878  0.00  0.00    +0.000 A 
ATOM     23  N   UNL     1      48.624   3.809  18.952  0.00  0.00    +0.000 NA
ATOM     24  C   UNL     1      48.582   4.378  20.160  0.00  0.00    +0.000 A 
ATOM     25  N   UNL     1      48.629   5.678  20.436  0.00  0.00    +0.000 NA
ATOM     26  C   UNL     1      48.760   6.443  19.339  0.00  0.00    +0.000 A 
ATOM     27  S   UNL     1      48.827   8.132  19.499  0.00  0.00    +0.000 S 
ATOM     28  C   UNL     1      49.002   8.334  17.820  0.00  0.00    +0.000 A 
ATOM     29  C   UNL     1      49.018   7.140  17.107  0.00  0.00    +0.000 A 
ATOM     30  C   UNL     1      48.847   6.011  18.019  0.00  0.00    +0.000 A 
BRANCH  22  32
ATOM     31  C   UNL     1      48.688   2.610  16.671  0.00  0.00    +0.000 C 
ATOM     32  O   UNL     1      48.807   4.030  16.632  0.00  0.00    +0.000 OA
ENDBRANCH  22  32
ENDBRANCH  18  29
ENDBRANCH   1  20
TORSDOF 8
ENDMDL
MODEL 4
REMARK VINA RESULT:    -7.291      2.188      3.387
REMARK INTER + INTRA:         -12.131
REMARK INTER:                 -10.940
REMARK INTRA:                  -1.191
REMARK UNBOUND:                -1.430
REMARK  Name = 
REMARK  9 active torsions:
REMARK  status: ('A' for Active; 'I' for Inactive)
REMARK    1  A    between atoms: C_1  and  O_2
REMARK    2  A    between atoms: O_2  and  C_3
REMARK    3  A    between atoms: C_10  and  C_11
REMARK    4  A    between atoms: N_13  and  C_14
REMARK    5  A    between atoms: C_14  and  C_15
REMARK    6  A    between atoms: C_18  and  C_19
REMARK    7  A    between atoms: C_19  and  N_20
REMARK    8  A    between atoms: N_20  and  C_21
REMARK    9  A    between atoms: C_21  and  C_22
REMARK                            x       y       z     vdW  Elec       q    Type
REMARK                         _______ _______ _______ _____ _____    ______ ____
ROOT
ATOM      1  C   UNL     1      47.521   3.742  15.062  0.00  0.00    +0.000 C 
ENDROOT
BRANCH   1   2
ATOM      2  C   UNL     1      46.745   4.224  13.862  0.00  0.00    +0.000 A 
ATOM      3  C   UNL     1      45.984   3.329  13.100  0.00  0.00    +0.000 A 
ATOM      4  C   UNL     1      45.292   3.768  11.966  0.00  0.00    +0.000 A 
ATOM      5  C   UNL     1      45.349   5.111  11.563  0.00  0.00    +0.000 A 
ATOM      6  C   UNL     1      46.124   6.002  12.319  0.00  0.00    +0.000 A 
ATOM      7  C   UNL     1      46.817   5.562  13.452  0.00  0.00    +0.000 A 
BRANCH   5   8
ATOM      8  C   UNL     1      44.598   5.578  10.336  0.00  0.00    +0.000 C 
BRANCH   8   9
ATOM      9  N   UNL     1      45.299   5.188   9.115  0.00  0.00    +0.000 NA
ATOM     10  H   UNL     1      46.256   4.929   9.355  0.00  0.00    +0.000 HD
BRANCH   9  11
ATOM     11  C   UNL     1      44.650   4.064   8.443  0.00  0.00    +0.000 C 
BRANCH  11  12
ATOM     12  C   UNL     1      45.677   3.075   7.957  0.00  0.00    +0.000 A 
ATOM     13  C   UNL     1      46.672   3.444   7.046  0.00  0.00    +0.000 A 
ATOM     14  C   UNL     1      47.626   2.514   6.645  0.00  0.00    +0.000 A 
ATOM     15  C   UNL     1      47.550   1.233   7.164  0.00  0.00    +0.000 A 
ATOM     16  N   UNL     1      46.595   0.829   8.030  0.00  0.00    +0.000 NA
ATOM     17  C   UNL     1      45.683   1.757   8.404  0.00  0.00    +0.000 A 
ENDBRANCH  11  12
ENDBRANCH   9  11
ENDBRANCH   8   9
ENDBRANCH   5   8
ENDBRANCH   1   2
BRANCH   1  20
ATOM     18  C   UNL     1      48.527   4.841  17.028  0.00  0.00    +0.000 C 
ATOM     19  O   UNL     1      49.490   4.078  17.011  0.00  0.00    +0.000 OA
ATOM     20  N   UNL     1      47.526   4.741  16.103  0.00  0.00    +0.000 N 
ATOM     21  H   UNL     1      46.739   5.373  16.139  0.00  0.00    +0.000 HD
BRANCH  18  29
ATOM     22  C   UNL     1      48.464   8.282  16.902  0.00  0.00    +0.000 A 
ATOM     23  N   UNL     1      48.347   9.606  17.128  0.00  0.00    +0.000 NA
ATOM     24  C   UNL     1      48.151  10.011  18.386  0.00  0.00    +0.000 A 
ATOM     25  N   UNL     1      48.071   9.247  19.471  0.00  0.00    +0.000 NA
ATOM     26  C   UNL     1      48.182   7.935  19.199  0.00  0.00    +0.000 A 
ATOM     27  S   UNL     1      48.114   6.809  20.468  0.00  0.00    +0.000 S 
ATOM     28  C   UNL     1      48.291   5.508  19.387  0.00  0.00    +0.000 A 
ATOM     29  C   UNL     1      48.399   5.892  18.055  0.00  0.00    +0.000 A 
ATOM     30  C   UNL     1      48.360   7.349  17.950  0.00  0.00    +0.000 A 
BRANCH  22  32
ATOM     31  C   UNL     1      49.984   8.036  15.139  0.00  0.00    +0.000 C 
ATOM     32  O   UNL     1      48.648   7.860  15.604  0.00  0.00    +0.000 OA
ENDBRANCH  22  32
ENDBRANCH  18  29
ENDBRANCH   1  20
TORSDOF 8
ENDMDL
MODEL 5
REMARK VINA RESULT:    -7.245      1.536      1.858
REMARK INTER + INTRA:         -12.064
REMARK INTER:                 -10.888
REMARK INTRA:                  -1.176
REMARK UNBOUND:                -1.430
REMARK  Name = 
REMARK  9 active torsions:
REMARK  status: ('A' for Active; 'I' for Inactive)
REMARK    1  A    between atoms: C_1  and  O_2
REMARK    2  A    between atoms: O_2  and  C_3
REMARK    3  A    between atoms: C_10  and  C_11
REMARK    4  A    between atoms: N_13  and  C_14
REMARK    5  A    between atoms: C_14  and  C_15
REMARK    6  A    between atoms: C_18  and  C_19
REMARK    7  A    between atoms: C_19  and  N_20
REMARK    8  A    between atoms: N_20  and  C_21
REMARK    9  A    between atoms: C_21  and  C_22
REMARK                            x       y       z     vdW  Elec       q    Type
REMARK                         _______ _______ _______ _____ _____    ______ ____
ROOT
ATOM      1  C   UNL     1      47.897   7.706  12.683  0.00  0.00    +0.000 C 
ENDROOT
BRANCH   1   2
ATOM      2  C   UNL     1      46.908   6.617  12.351  0.00  0.00    +0.000 A 
ATOM      3  C   UNL     1      46.228   6.621  11.127  0.00  0.00    +0.000 A 
ATOM      4  C   UNL     1      45.285   5.630  10.832  0.00  0.00    +0.000 A 
ATOM      5  C   UNL     1      44.994   4.616  11.757  0.00  0.00    +0.000 A 
ATOM      6  C   UNL     1      45.664   4.623  12.989  0.00  0.00    +0.000 A 
ATOM      7  C   UNL     1      46.606   5.615  13.283  0.00  0.00    +0.000 A 
BRANCH   5   8
ATOM      8  C   UNL     1      43.972   3.549  11.431  0.00  0.00    +0.000 C 
BRANCH   8   9
ATOM      9  N   UNL     1      43.886   3.333   9.989  0.00  0.00    +0.000 NA
ATOM     10  H   UNL     1      44.337   4.114   9.513  0.00  0.00    +0.000 HD
BRANCH   9  11
ATOM     11  C   UNL     1      44.525   2.086   9.579  0.00  0.00    +0.000 C 
BRANCH  11  12
ATOM     12  C   UNL     1      45.528   2.340   8.485  0.00  0.00    +0.000 A 
ATOM     13  C   UNL     1      46.403   1.339   8.049  0.00  0.00    +0.000 A 
ATOM     14  C   UNL     1      47.292   1.598   7.010  0.00  0.00    +0.000 A 
ATOM     15  C   UNL     1      47.287   2.860   6.443  0.00  0.00    +0.000 A 
ATOM     16  N   UNL     1      46.473   3.861   6.846  0.00  0.00    +0.000 NA
ATOM     17  C   UNL     1      45.616   3.578   7.855  0.00  0.00    +0.000 A 
ENDBRANCH  11  12
ENDBRANCH   9  11
ENDBRANCH   8   9
ENDBRANCH   5   8
ENDBRANCH   1   2
BRANCH   1  20
ATOM     18  C   UNL     1      49.048   7.552  14.860  0.00  0.00    +0.000 C 
ATOM     19  O   UNL     1      48.241   8.315  15.384  0.00  0.00    +0.000 OA
ATOM     20  N   UNL     1      48.942   7.203  13.542  0.00  0.00    +0.000 N 
ATOM     21  H   UNL     1      49.620   6.581  13.127  0.00  0.00    +0.000 HD
BRANCH  18  29
ATOM     22  C   UNL     1      49.290   5.114  17.279  0.00  0.00    +0.000 A 
ATOM     23  N   UNL     1      49.670   4.178  18.171  0.00  0.00    +0.000 NA
ATOM     24  C   UNL     1      50.973   4.065  18.444  0.00  0.00    +0.000 A 
ATOM     25  N   UNL     1      51.964   4.794  17.939  0.00  0.00    +0.000 NA
ATOM     26  C   UNL     1      51.542   5.707  17.047  0.00  0.00    +0.000 A 
ATOM     27  S   UNL     1      52.670   6.738  16.306  0.00  0.00    +0.000 S 
ATOM     28  C   UNL     1      51.451   7.495  15.393  0.00  0.00    +0.000 A 
ATOM     29  C   UNL     1      50.178   6.987  15.622  0.00  0.00    +0.000 A 
ATOM     30  C   UNL     1      50.233   5.934  16.633  0.00  0.00    +0.000 A 
BRANCH  22  32
ATOM     31  C   UNL     1      47.406   4.036  16.400  0.00  0.00    +0.000 C 
ATOM     32  O   UNL     1      47.949   5.220  16.982  0.00  0.00    +0.000 OA
ENDBRANCH  22  32
ENDBRANCH  18  29
ENDBRANCH   1  20
TORSDOF 8
ENDMDL
MODEL 6
REMARK VINA RESULT:    -6.954      2.389      2.808
REMARK INTER + INTRA:         -11.636
REMARK INTER:                 -10.481
REMARK INTRA:                  -1.155
REMARK UNBOUND:                -1.430
REMARK  Name = 
REMARK  9 active torsions:
REMARK  status: ('A' for Active; 'I' for Inactive)
REMARK    1  A    between atoms: C_1  and  O_2
REMARK    2  A    between atoms: O_2  and  C_3
REMARK    3  A    between atoms: C_10  and  C_11
REMARK    4  A    between atoms: N_13  and  C_14
REMARK    5  A    between atoms: C_14  and  C_15
REMARK    6  A    between atoms: C_18  and  C_19
REMARK    7  A    between atoms: C_19  and  N_20
REMARK    8  A    between atoms: N_20  and  C_21
REMARK    9  A    between atoms: C_21  and  C_22
REMARK                            x       y       z     vdW  Elec       q    Type
REMARK                         _______ _______ _______ _____ _____    ______ ____
ROOT
ATOM      1  C   UNL     1      47.511   8.523  13.351  0.00  0.00    +0.000 C 
ENDROOT
BRANCH   1   2
ATOM      2  C   UNL     1      46.891   7.204  12.962  0.00  0.00    +0.000 A 
ATOM      3  C   UNL     1      46.014   7.122  11.874  0.00  0.00    +0.000 A 
ATOM      4  C   UNL     1      45.412   5.906  11.534  0.00  0.00    +0.000 A 
ATOM      5  C   UNL     1      45.667   4.744  12.278  0.00  0.00    +0.000 A 
ATOM      6  C   UNL     1      46.533   4.831  13.376  0.00  0.00    +0.000 A 
ATOM      7  C   UNL     1      47.134   6.048  13.717  0.00  0.00    +0.000 A 
BRANCH   5   8
ATOM      8  C   UNL     1      45.011   3.432  11.903  0.00  0.00    +0.000 C 
BRANCH   8   9
ATOM      9  N   UNL     1      44.192   3.583  10.703  0.00  0.00    +0.000 NA
ATOM     10  H   UNL     1      44.507   4.407  10.192  0.00  0.00    +0.000 HD
BRANCH   9  11
ATOM     11  C   UNL     1      44.272   2.415   9.830  0.00  0.00    +0.000 C 
BRANCH  11  12
ATOM     12  C   UNL     1      45.303   2.629   8.754  0.00  0.00    +0.000 A 
ATOM     13  C   UNL     1      46.073   1.571   8.260  0.00  0.00    +0.000 A 
ATOM     14  C   UNL     1      46.991   1.797   7.239  0.00  0.00    +0.000 A 
ATOM     15  C   UNL     1      47.119   3.085   6.747  0.00  0.00    +0.000 A 
ATOM     16  N   UNL     1      46.410   4.138   7.209  0.00  0.00    +0.000 NA
ATOM     17  C   UNL     1      45.522   3.886   8.198  0.00  0.00    +0.000 A 
ENDBRANCH  11  12
ENDBRANCH   9  11
ENDBRANCH   8   9
ENDBRANCH   5   8
ENDBRANCH   1   2
BRANCH   1  20
ATOM     18  C   UNL     1      48.457   8.963  15.587  0.00  0.00    +0.000 C 
ATOM     19  O   UNL     1      49.602   8.980  15.142  0.00  0.00    +0.000 OA
ATOM     20  N   UNL     1      47.381   8.750  14.770  0.00  0.00    +0.000 N 
ATOM     21  H   UNL     1      46.448   8.731  15.157  0.00  0.00    +0.000 HD
BRANCH  18  29
ATOM     22  C   UNL     1      48.293   6.819  18.276  0.00  0.00    +0.000 A 
ATOM     23  N   UNL     1      48.235   6.225  19.484  0.00  0.00    +0.000 NA
ATOM     24  C   UNL     1      48.012   6.997  20.552  0.00  0.00    +0.000 A 
ATOM     25  N   UNL     1      47.820   8.313  20.562  0.00  0.00    +0.000 NA
ATOM     26  C   UNL     1      47.896   8.865  19.339  0.00  0.00    +0.000 A 
ATOM     27  S   UNL     1      47.666  10.538  19.160  0.00  0.00    +0.000 S 
ATOM     28  C   UNL     1      47.922  10.442  17.481  0.00  0.00    +0.000 A 
ATOM     29  C   UNL     1      48.190   9.157  17.024  0.00  0.00    +0.000 A 
ATOM     30  C   UNL     1      48.148   8.211  18.137  0.00  0.00    +0.000 A 
BRANCH  22  32
ATOM     31  C   UNL     1      49.540   5.037  17.409  0.00  0.00    +0.000 C 
ATOM     32  O   UNL     1      48.541   6.027  17.176  0.00  0.00    +0.000 OA
ENDBRANCH  22  32
ENDBRANCH  18  29
ENDBRANCH   1  20
TORSDOF 8
ENDMDL
MODEL 7
REMARK VINA RESULT:    -6.911      1.977      2.616
REMARK INTER + INTRA:         -11.573
REMARK INTER:                 -10.469
REMARK INTRA:                  -1.104
REMARK UNBOUND:                -1.430
REMARK  Name = 
REMARK  9 active torsions:
REMARK  status: ('A' for Active; 'I' for Inactive)
REMARK    1  A    between atoms: C_1  and  O_2
REMARK    2  A    between atoms: O_2  and  C_3
REMARK    3  A    between atoms: C_10  and  C_11
REMARK    4  A    between atoms: N_13  and  C_14
REMARK    5  A    between atoms: C_14  and  C_15
REMARK    6  A    between atoms: C_18  and  C_19
REMARK    7  A    between atoms: C_19  and  N_20
REMARK    8  A    between atoms: N_20  and  C_21
REMARK    9  A    between atoms: C_21  and  C_22
REMARK                            x       y       z     vdW  Elec       q    Type
REMARK                         _______ _______ _______ _____ _____    ______ ____
ROOT
ATOM      1  C   UNL     1      48.352   8.008  14.931  0.00  0.00    +0.000 C 
ENDROOT
BRANCH   1   2
ATOM      2  C   UNL     1      47.440   7.413  13.886  0.00  0.00    +0.000 A 
ATOM      3  C   UNL     1      46.528   8.220  13.195  0.00  0.00    +0.000 A 
ATOM      4  C   UNL     1      45.658   7.663  12.251  0.00  0.00    +0.000 A 
ATOM      5  C   UNL     1      45.675   6.287  11.981  0.00  0.00    +0.000 A 
ATOM      6  C   UNL     1      46.578   5.479  12.685  0.00  0.00    +0.000 A 
ATOM      7  C   UNL     1      47.447   6.035  13.630  0.00  0.00    +0.000 A 
BRANCH   5   8
ATOM      8  C   UNL     1      44.730   5.693  10.958  0.00  0.00    +0.000 C 
BRANCH   8   9
ATOM      9  N   UNL     1      45.461   5.231   9.780  0.00  0.00    +0.000 NA
ATOM     10  H   UNL     1      46.307   4.749  10.086  0.00  0.00    +0.000 HD
BRANCH   9  11
ATOM     11  C   UNL     1      44.663   4.326   8.957  0.00  0.00    +0.000 C 
BRANCH  11  12
ATOM     12  C   UNL     1      45.547   3.321   8.267  0.00  0.00    +0.000 A 
ATOM     13  C   UNL     1      45.596   1.986   8.681  0.00  0.00    +0.000 A 
ATOM     14  C   UNL     1      46.397   1.076   7.997  0.00  0.00    +0.000 A 
ATOM     15  C   UNL     1      47.136   1.534   6.920  0.00  0.00    +0.000 A 
ATOM     16  N   UNL     1      47.134   2.817   6.499  0.00  0.00    +0.000 NA
ATOM     17  C   UNL     1      46.341   3.678   7.181  0.00  0.00    +0.000 A 
ENDBRANCH  11  12
ENDBRANCH   9  11
ENDBRANCH   8   9
ENDBRANCH   5   8
ENDBRANCH   1   2
BRANCH   1  20
ATOM     18  C   UNL     1      49.559   6.949  16.804  0.00  0.00    +0.000 C 
ATOM     19  O   UNL     1      49.113   7.767  17.605  0.00  0.00    +0.000 OA
ATOM     20  N   UNL     1      49.228   7.000  15.478  0.00  0.00    +0.000 N 
ATOM     21  H   UNL     1      49.612   6.324  14.834  0.00  0.00    +0.000 HD
BRANCH  18  29
ATOM     22  C   UNL     1      49.397   3.510  16.748  0.00  0.00    +0.000 A 
ATOM     23  N   UNL     1      49.618   2.181  16.786  0.00  0.00    +0.000 NA
ATOM     24  C   UNL     1      50.792   1.754  17.259  0.00  0.00    +0.000 A 
ATOM     25  N   UNL     1      51.788   2.503  17.724  0.00  0.00    +0.000 NA
ATOM     26  C   UNL     1      51.530   3.820  17.659  0.00  0.00    +0.000 A 
ATOM     27  S   UNL     1      52.688   4.929  18.219  0.00  0.00    +0.000 S 
ATOM     28  C   UNL     1      51.697   6.248  17.802  0.00  0.00    +0.000 A 
ATOM     29  C   UNL     1      50.484   5.883  17.231  0.00  0.00    +0.000 A 
ATOM     30  C   UNL     1      50.376   4.427  17.170  0.00  0.00    +0.000 A 
BRANCH  22  32
ATOM     31  C   UNL     1      47.160   4.011  17.224  0.00  0.00    +0.000 C 
ATOM     32  O   UNL     1      48.194   3.953  16.244  0.00  0.00    +0.000 OA
ENDBRANCH  22  32
ENDBRANCH  18  29
ENDBRANCH   1  20
TORSDOF 8
ENDMDL
MODEL 8
REMARK VINA RESULT:    -6.764      4.403      9.076
REMARK INTER + INTRA:         -11.358
REMARK INTER:                 -10.365
REMARK INTRA:                  -0.993
REMARK UNBOUND:                -1.430
REMARK  Name = 
REMARK  9 active torsions:
REMARK  status: ('A' for Active; 'I' for Inactive)
REMARK    1  A    between atoms: C_1  and  O_2
REMARK    2  A    between atoms: O_2  and  C_3
REMARK    3  A    between atoms: C_10  and  C_11
REMARK    4  A    between atoms: N_13  and  C_14
REMARK    5  A    between atoms: C_14  and  C_15
REMARK    6  A    between atoms: C_18  and  C_19
REMARK    7  A    between atoms: C_19  and  N_20
REMARK    8  A    between atoms: N_20  and  C_21
REMARK    9  A    between atoms: C_21  and  C_22
REMARK                            x       y       z     vdW  Elec       q    Type
REMARK                         _______ _______ _______ _____ _____    ______ ____
ROOT
ATOM      1  C   UNL     1      47.200   3.356  16.803  0.00  0.00    +0.000 C 
ENDROOT
BRANCH   1   2
ATOM      2  C   UNL     1      48.671   3.413  17.128  0.00  0.00    +0.000 A 
ATOM      3  C   UNL     1      49.474   2.272  16.999  0.00  0.00    +0.000 A 
ATOM      4  C   UNL     1      50.832   2.315  17.334  0.00  0.00    +0.000 A 
ATOM      5  C   UNL     1      51.418   3.497  17.812  0.00  0.00    +0.000 A 
ATOM      6  C   UNL     1      50.610   4.633  17.956  0.00  0.00    +0.000 A 
ATOM      7  C   UNL     1      49.251   4.590  17.622  0.00  0.00    +0.000 A 
BRANCH   5   8
ATOM      8  C   UNL     1      52.888   3.534  18.172  0.00  0.00    +0.000 C 
BRANCH   8   9
ATOM      9  N   UNL     1      53.207   2.513  19.167  0.00  0.00    +0.000 NA
ATOM     10  H   UNL     1      52.609   1.702  19.008  0.00  0.00    +0.000 HD
BRANCH   9  11
ATOM     11  C   UNL     1      54.607   2.100  19.103  0.00  0.00    +0.000 C 
BRANCH  11  12
ATOM     12  C   UNL     1      54.789   1.004  18.086  0.00  0.00    +0.000 A 
ATOM     13  C   UNL     1      55.261   1.276  16.797  0.00  0.00    +0.000 A 
ATOM     14  C   UNL     1      55.452   0.234  15.894  0.00  0.00    +0.000 A 
ATOM     15  C   UNL     1      55.153  -1.053  16.306  0.00  0.00    +0.000 A 
ATOM     16  N   UNL     1      54.677  -1.357  17.534  0.00  0.00    +0.000 NA
ATOM     17  C   UNL     1      54.506  -0.323  18.391  0.00  0.00    +0.000 A 
ENDBRANCH  11  12
ENDBRANCH   9  11
ENDBRANCH   8   9
ENDBRANCH   5   8
ENDBRANCH   1   2
BRANCH   1  20
ATOM     18  C   UNL     1      46.881   4.183  14.500  0.00  0.00    +0.000 C 
ATOM     19  O   UNL     1      47.212   3.099  14.024  0.00  0.00    +0.000 OA
ATOM     20  N   UNL     1      46.847   4.383  15.852  0.00  0.00    +0.000 N 
ATOM     21  H   UNL     1      46.580   5.283  16.224  0.00  0.00    +0.000 HD
BRANCH  18  29
ATOM     22  C   UNL     1      44.077   4.967  12.662  0.00  0.00    +0.000 A 
ATOM     23  N   UNL     1      43.103   5.537  11.924  0.00  0.00    +0.000 NA
ATOM     24  C   UNL     1      43.344   6.737  11.390  0.00  0.00    +0.000 A 
ATOM     25  N   UNL     1      44.463   7.449  11.488  0.00  0.00    +0.000 NA
ATOM     26  C   UNL     1      45.402   6.849  12.240  0.00  0.00    +0.000 A 
ATOM     27  S   UNL     1      46.904   7.609  12.467  0.00  0.00    +0.000 S 
ATOM     28  C   UNL     1      47.453   6.337  13.454  0.00  0.00    +0.000 A 
ATOM     29  C   UNL     1      46.520   5.322  13.636  0.00  0.00    +0.000 A 
ATOM     30  C   UNL     1      45.302   5.620  12.886  0.00  0.00    +0.000 A 
BRANCH  22  32
ATOM     31  C   UNL     1      43.597   2.710  12.266  0.00  0.00    +0.000 C 
ATOM     32  O   UNL     1      43.825   3.737  13.229  0.00  0.00    +0.000 OA
ENDBRANCH  22  32
ENDBRANCH  18  29
ENDBRANCH   1  20
TORSDOF 8
ENDMDL
MODEL 9
REMARK VINA RESULT:    -6.316      3.689      8.641
REMARK INTER + INTRA:         -10.700
REMARK INTER:                  -9.426
REMARK INTRA:                  -1.274
REMARK UNBOUND:                -1.430
REMARK  Name = 
REMARK  9 active torsions:
REMARK  status: ('A' for Active; 'I' for Inactive)
REMARK    1  A    between atoms: C_1  and  O_2
REMARK    2  A    between atoms: O_2  and  C_3
REMARK    3  A    between atoms: C_10  and  C_11
REMARK    4  A    between atoms: N_13  and  C_14
REMARK    5  A    between atoms: C_14  and  C_15
REMARK    6  A    between atoms: C_18  and  C_19
REMARK    7  A    between atoms: C_19  and  N_20
REMARK    8  A    between atoms: N_20  and  C_21
REMARK    9  A    between atoms: C_21  and  C_22
REMARK                            x       y       z     vdW  Elec       q    Type
REMARK                         _______ _______ _______ _____ _____    ______ ____
ROOT
ATOM      1  C   UNL     1      47.339   3.259  17.101  0.00  0.00    +0.000 C 
ENDROOT
BRANCH   1   2
ATOM      2  C   UNL     1      48.797   3.282  17.487  0.00  0.00    +0.000 A 
ATOM      3  C   UNL     1      49.312   4.330  18.261  0.00  0.00    +0.000 A 
ATOM      4  C   UNL     1      50.671   4.370  18.590  0.00  0.00    +0.000 A 
ATOM      5  C   UNL     1      51.549   3.369  18.148  0.00  0.00    +0.000 A 
ATOM      6  C   UNL     1      51.035   2.330  17.361  0.00  0.00    +0.000 A 
ATOM      7  C   UNL     1      49.675   2.290  17.030  0.00  0.00    +0.000 A 
BRANCH   5   8
ATOM      8  C   UNL     1      53.018   3.420  18.508  0.00  0.00    +0.000 C 
BRANCH   8   9
ATOM      9  N   UNL     1      53.819   3.864  17.370  0.00  0.00    +0.000 NA
ATOM     10  H   UNL     1      53.227   3.879  16.538  0.00  0.00    +0.000 HD
BRANCH   9  11
ATOM     11  C   UNL     1      54.387   5.193  17.580  0.00  0.00    +0.000 C 
BRANCH  11  12
ATOM     12  C   UNL     1      53.898   6.151  16.526  0.00  0.00    +0.000 A 
ATOM     13  C   UNL     1      54.711   6.533  15.454  0.00  0.00    +0.000 A 
ATOM     14  C   UNL     1      54.215   7.392  14.478  0.00  0.00    +0.000 A 
ATOM     15  C   UNL     1      52.916   7.852  14.610  0.00  0.00    +0.000 A 
ATOM     16  N   UNL     1      52.104   7.524  15.638  0.00  0.00    +0.000 NA
ATOM     17  C   UNL     1      52.613   6.683  16.569  0.00  0.00    +0.000 A 
ENDBRANCH  11  12
ENDBRANCH   9  11
ENDBRANCH   8   9
ENDBRANCH   5   8
ENDBRANCH   1   2
BRANCH   1  20
ATOM     18  C   UNL     1      47.120   4.128  14.803  0.00  0.00    +0.000 C 
ATOM     19  O   UNL     1      47.441   3.045  14.321  0.00  0.00    +0.000 OA
ATOM     20  N   UNL     1      47.043   4.308  16.156  0.00  0.00    +0.000 N 
ATOM     21  H   UNL     1      46.786   5.209  16.533  0.00  0.00    +0.000 HD
BRANCH  18  29
ATOM     22  C   UNL     1      44.514   4.893  12.686  0.00  0.00    +0.000 A 
ATOM     23  N   UNL     1      43.609   5.460  11.863  0.00  0.00    +0.000 NA
ATOM     24  C   UNL     1      43.863   6.689  11.404  0.00  0.00    +0.000 A 
ATOM     25  N   UNL     1      44.937   7.432  11.655  0.00  0.00    +0.000 NA
ATOM     26  C   UNL     1      45.807   6.833  12.487  0.00  0.00    +0.000 A 
ATOM     27  S   UNL     1      47.244   7.632  12.911  0.00  0.00    +0.000 S 
ATOM     28  C   UNL     1      47.725   6.341  13.908  0.00  0.00    +0.000 A 
ATOM     29  C   UNL     1      46.817   5.289  13.945  0.00  0.00    +0.000 A 
ATOM     30  C   UNL     1      45.681   5.577  13.072  0.00  0.00    +0.000 A 
BRANCH  22  32
ATOM     31  C   UNL     1      43.519   2.817  12.259  0.00  0.00    +0.000 C 
ATOM     32  O   UNL     1      44.246   3.634  13.175  0.00  0.00    +0.000 OA
ENDBRANCH  22  32
ENDBRANCH  18  29
ENDBRANCH   1  20
TORSDOF 8
ENDMDL
