MODEL 1
REMARK VINA RESULT:    -8.401      0.000      0.000
REMARK INTER + INTRA:         -12.594
REMARK INTER:                 -11.593
REMARK INTRA:                  -1.001
REMARK UNBOUND:                -1.001
REMARK  Name = 
REMARK  7 active torsions:
REMARK  status: ('A' for Active; 'I' for Inactive)
REMARK    1  A    between atoms: N_1  and  C_2
REMARK    2  A    between atoms: C_2  and  N_3
REMARK    3  A    between atoms: C_2  and  C_16
REMARK    4  A    between atoms: C_4  and  C_6
REMARK    5  A    between atoms: C_19  and  C_20
REMARK    6  A    between atoms: C_20  and  N_21
REMARK    7  A    between atoms: C_22  and  C_24
REMARK                            x       y       z     vdW  Elec       q    Type
REMARK                         _______ _______ _______ _____ _____    ______ ____
ROOT
ATOM      1  C   UNL     1      46.809   4.362  14.988  0.00  0.00    +0.000 C 
ENDROOT
BRANCH   1   2
ATOM      2  C   UNL     1      46.002   4.416  13.701  0.00  0.00    +0.000 A 
ATOM      3  C   UNL     1      45.482   5.632  13.236  0.00  0.00    +0.000 A 
ATOM      4  C   UNL     1      44.774   5.694  12.028  0.00  0.00    +0.000 A 
ATOM      5  C   UNL     1      44.554   4.538  11.265  0.00  0.00    +0.000 A 
ATOM      6  C   UNL     1      45.061   3.320  11.731  0.00  0.00    +0.000 A 
ATOM      7  C   UNL     1      45.771   3.259  12.934  0.00  0.00    +0.000 A 
BRANCH   5   8
ATOM      8  C   UNL     1      43.783   4.592   9.972  0.00  0.00    +0.000 C 
BRANCH   8   9
ATOM      9  N   UNL     1      44.350   3.745   8.952  0.00  0.00    +0.000 N 
ATOM     10  C   UNL     1      45.490   4.110   8.269  0.00  0.00    +0.000 C 
ATOM     11  O   UNL     1      46.090   5.161   8.480  0.00  0.00    +0.000 OA
ATOM     12  H   UNL     1      43.818   2.976   8.555  0.00  0.00    +0.000 HD
BRANCH  10  13
ATOM     13  C   UNL     1      45.989   3.076   7.249  0.00  0.00    +0.000 C 
ATOM     14  C   UNL     1      46.375   1.753   7.882  0.00  0.00    +0.000 C 
ATOM     15  C   UNL     1      47.242   1.115   6.813  0.00  0.00    +0.000 C 
ATOM     16  C   UNL     1      47.892   2.287   6.090  0.00  0.00    +0.000 C 
ATOM     17  N   UNL     1      47.242   3.508   6.578  0.00  0.00    +0.000 NA
ATOM     18  H   UNL     1      47.001   4.116   5.793  0.00  0.00    +0.000 HD
ENDBRANCH  10  13
ENDBRANCH   8   9
ENDBRANCH   5   8
ENDBRANCH   1   2
BRANCH   1  19
ATOM     19  N   UNL     1      47.606   5.546  15.131  0.00  0.00    +0.000 N 
ATOM     20  C   UNL     1      48.595   5.674  16.074  0.00  0.00    +0.000 C 
ATOM     21  O   UNL     1      48.933   4.746  16.804  0.00  0.00    +0.000 OA
ATOM     22  H   UNL     1      47.134   6.402  14.856  0.00  0.00    +0.000 HD
BRANCH  20  23
ATOM     23  C   UNL     1      49.326   6.946  16.077  0.00  0.00    +0.000 A 
ATOM     24  C   UNL     1      49.657   7.545  17.284  0.00  0.00    +0.000 A 
ATOM     25  S   UNL     1      50.542   8.992  17.108  0.00  0.00    +0.000 S 
ATOM     26  C   UNL     1      50.473   8.892  15.410  0.00  0.00    +0.000 A 
ATOM     27  N   UNL     1      51.017   9.857  14.626  0.00  0.00    +0.000 NA
ATOM     28  C   UNL     1      50.866   9.665  13.356  0.00  0.00    +0.000 A 
ATOM     29  N   UNL     1      50.230   8.583  12.803  0.00  0.00    +0.000 N 
ATOM     30  C   UNL     1      49.691   7.569  13.555  0.00  0.00    +0.000 A 
ATOM     31  O   UNL     1      49.163   6.587  13.037  0.00  0.00    +0.000 OA
ATOM     32  C   UNL     1      49.812   7.752  14.988  0.00  0.00    +0.000 A 
ATOM     33  H   UNL     1      50.158   8.484  11.801  0.00  0.00    +0.000 HD
ENDBRANCH  20  23
ENDBRANCH   1  19
BRANCH   1  34
ATOM     34  N   UNL     1      47.729   3.244  14.971  0.00  0.00    +0.000 NA
ATOM     35  H   UNL     1      47.181   2.423  15.248  0.00  0.00    +0.000 HD
ATOM     36  H   UNL     1      48.395   3.378  15.725  0.00  0.00    +0.000 HD
ENDBRANCH   1  34
TORSDOF 7
ENDMDL
MODEL 2
REMARK VINA RESULT:    -8.336      2.111      3.767
REMARK INTER + INTRA:         -12.505
REMARK INTER:                 -11.350
REMARK INTRA:                  -1.154
REMARK UNBOUND:                -1.001
REMARK  Name = 
REMARK  7 active torsions:
REMARK  status: ('A' for Active; 'I' for Inactive)
REMARK    1  A    between atoms: N_1  and  C_2
REMARK    2  A    between atoms: C_2  and  N_3
REMARK    3  A    between atoms: C_2  and  C_16
REMARK    4  A    between atoms: C_4  and  C_6
REMARK    5  A    between atoms: C_19  and  C_20
REMARK    6  A    between atoms: C_20  and  N_21
REMARK    7  A    between atoms: C_22  and  C_24
REMARK                            x       y       z     vdW  Elec       q    Type
REMARK                         _______ _______ _______ _____ _____    ______ ____
ROOT
ATOM      1  C   UNL     1      47.143   8.052  13.356  0.00  0.00    +0.000 C 
ENDROOT
BRANCH   1   2
ATOM      2  C   UNL     1      46.249   7.173  12.496  0.00  0.00    +0.000 A 
ATOM      3  C   UNL     1      46.725   6.628  11.295  0.00  0.00    +0.000 A 
ATOM      4  C   UNL     1      45.918   5.784  10.521  0.00  0.00    +0.000 A 
ATOM      5  C   UNL     1      44.610   5.476  10.920  0.00  0.00    +0.000 A 
ATOM      6  C   UNL     1      44.126   6.026  12.112  0.00  0.00    +0.000 A 
ATOM      7  C   UNL     1      44.932   6.866  12.887  0.00  0.00    +0.000 A 
BRANCH   5   8
ATOM      8  C   UNL     1      43.731   4.579  10.089  0.00  0.00    +0.000 C 
BRANCH   8   9
ATOM      9  N   UNL     1      44.375   4.139   8.876  0.00  0.00    +0.000 N 
ATOM     10  C   UNL     1      45.079   2.956   8.827  0.00  0.00    +0.000 C 
ATOM     11  O   UNL     1      45.204   2.210   9.794  0.00  0.00    +0.000 OA
ATOM     12  H   UNL     1      44.518   4.777   8.098  0.00  0.00    +0.000 HD
BRANCH  10  13
ATOM     13  C   UNL     1      45.664   2.611   7.450  0.00  0.00    +0.000 C 
ATOM     14  C   UNL     1      46.873   1.699   7.527  0.00  0.00    +0.000 C 
ATOM     15  C   UNL     1      47.521   1.893   6.170  0.00  0.00    +0.000 C 
ATOM     16  C   UNL     1      47.171   3.320   5.771  0.00  0.00    +0.000 C 
ATOM     17  N   UNL     1      46.189   3.809   6.745  0.00  0.00    +0.000 NA
ATOM     18  H   UNL     1      45.416   4.272   6.264  0.00  0.00    +0.000 HD
ENDBRANCH  10  13
ENDBRANCH   8   9
ENDBRANCH   5   8
ENDBRANCH   1   2
BRANCH   1  19
ATOM     19  N   UNL     1      47.549   7.348  14.539  0.00  0.00    +0.000 N 
ATOM     20  C   UNL     1      48.788   6.776  14.682  0.00  0.00    +0.000 C 
ATOM     21  O   UNL     1      49.675   6.907  13.841  0.00  0.00    +0.000 OA
ATOM     22  H   UNL     1      46.787   6.903  15.041  0.00  0.00    +0.000 HD
BRANCH  20  23
ATOM     23  C   UNL     1      49.049   6.106  15.960  0.00  0.00    +0.000 A 
ATOM     24  C   UNL     1      50.069   6.566  16.781  0.00  0.00    +0.000 A 
ATOM     25  S   UNL     1      50.208   5.703  18.246  0.00  0.00    +0.000 S 
ATOM     26  C   UNL     1      48.937   4.656  17.813  0.00  0.00    +0.000 A 
ATOM     27  N   UNL     1      48.558   3.637  18.625  0.00  0.00    +0.000 NA
ATOM     28  C   UNL     1      47.599   2.906  18.156  0.00  0.00    +0.000 A 
ATOM     29  N   UNL     1      46.977   3.116  16.953  0.00  0.00    +0.000 N 
ATOM     30  C   UNL     1      47.307   4.151  16.114  0.00  0.00    +0.000 A 
ATOM     31  O   UNL     1      46.707   4.346  15.058  0.00  0.00    +0.000 OA
ATOM     32  C   UNL     1      48.395   4.984  16.582  0.00  0.00    +0.000 A 
ATOM     33  H   UNL     1      46.223   2.517  16.651  0.00  0.00    +0.000 HD
ENDBRANCH  20  23
ENDBRANCH   1  19
BRANCH   1  34
ATOM     34  N   UNL     1      46.430   9.231  13.800  0.00  0.00    +0.000 NA
ATOM     35  H   UNL     1      45.515   9.198  13.340  0.00  0.00    +0.000 HD
ATOM     36  H   UNL     1      46.891  10.042  13.401  0.00  0.00    +0.000 HD
ENDBRANCH   1  34
TORSDOF 7
ENDMDL
MODEL 3
REMARK VINA RESULT:    -8.011      1.526      2.133
REMARK INTER + INTRA:         -12.055
REMARK INTER:                 -11.079
REMARK INTRA:                  -0.976
REMARK UNBOUND:                -1.001
REMARK  Name = 
REMARK  7 active torsions:
REMARK  status: ('A' for Active; 'I' for Inactive)
REMARK    1  A    between atoms: N_1  and  C_2
REMARK    2  A    between atoms: C_2  and  N_3
REMARK    3  A    between atoms: C_2  and  C_16
REMARK    4  A    between atoms: C_4  and  C_6
REMARK    5  A    between atoms: C_19  and  C_20
REMARK    6  A    between atoms: C_20  and  N_21
REMARK    7  A    between atoms: C_22  and  C_24
REMARK                            x       y       z     vdW  Elec       q    Type
REMARK                         _______ _______ _______ _____ _____    ______ ____
ROOT
ATOM      1  C   UNL     1      46.876   4.534  15.067  0.00  0.00    +0.000 C 
ENDROOT
BRANCH   1   2
ATOM      2  C   UNL     1      46.101   4.558  13.760  0.00  0.00    +0.000 A 
ATOM      3  C   UNL     1      45.918   3.383  13.016  0.00  0.00    +0.000 A 
ATOM      4  C   UNL     1      45.169   3.393  11.832  0.00  0.00    +0.000 A 
ATOM      5  C   UNL     1      44.597   4.580  11.354  0.00  0.00    +0.000 A 
ATOM      6  C   UNL     1      44.786   5.758  12.087  0.00  0.00    +0.000 A 
ATOM      7  C   UNL     1      45.531   5.748  13.269  0.00  0.00    +0.000 A 
BRANCH   5   8
ATOM      8  C   UNL     1      43.800   4.604  10.076  0.00  0.00    +0.000 C 
BRANCH   8   9
ATOM      9  N   UNL     1      44.355   3.744   9.060  0.00  0.00    +0.000 N 
ATOM     10  C   UNL     1      45.468   4.114   8.337  0.00  0.00    +0.000 C 
ATOM     11  O   UNL     1      46.053   5.181   8.506  0.00  0.00    +0.000 OA
ATOM     12  H   UNL     1      43.828   2.955   8.696  0.00  0.00    +0.000 HD
BRANCH  10  13
ATOM     13  C   UNL     1      45.958   3.066   7.328  0.00  0.00    +0.000 C 
ATOM     14  C   UNL     1      46.389   1.766   7.979  0.00  0.00    +0.000 C 
ATOM     15  C   UNL     1      47.237   1.120   6.901  0.00  0.00    +0.000 C 
ATOM     16  C   UNL     1      47.844   2.286   6.133  0.00  0.00    +0.000 C 
ATOM     17  N   UNL     1      47.183   3.506   6.610  0.00  0.00    +0.000 NA
ATOM     18  H   UNL     1      46.908   4.091   5.819  0.00  0.00    +0.000 HD
ENDBRANCH  10  13
ENDBRANCH   8   9
ENDBRANCH   5   8
ENDBRANCH   1   2
BRANCH   1  19
ATOM     19  N   UNL     1      47.892   5.548  15.066  0.00  0.00    +0.000 N 
ATOM     20  C   UNL     1      48.480   6.019  16.213  0.00  0.00    +0.000 C 
ATOM     21  O   UNL     1      48.245   5.538  17.319  0.00  0.00    +0.000 OA
ATOM     22  H   UNL     1      47.827   6.202  14.293  0.00  0.00    +0.000 HD
BRANCH  20  23
ATOM     23  C   UNL     1      49.511   7.047  16.037  0.00  0.00    +0.000 A 
ATOM     24  C   UNL     1      49.152   8.313  15.599  0.00  0.00    +0.000 A 
ATOM     25  S   UNL     1      50.464   9.397  15.489  0.00  0.00    +0.000 S 
ATOM     26  C   UNL     1      51.566   8.196  15.981  0.00  0.00    +0.000 A 
ATOM     27  N   UNL     1      52.896   8.454  16.064  0.00  0.00    +0.000 NA
ATOM     28  C   UNL     1      53.618   7.442  16.423  0.00  0.00    +0.000 A 
ATOM     29  N   UNL     1      53.122   6.199  16.720  0.00  0.00    +0.000 N 
ATOM     30  C   UNL     1      51.782   5.901  16.678  0.00  0.00    +0.000 A 
ATOM     31  O   UNL     1      51.355   4.791  16.990  0.00  0.00    +0.000 OA
ATOM     32  C   UNL     1      50.933   6.996  16.255  0.00  0.00    +0.000 A 
ATOM     33  H   UNL     1      53.738   5.454  17.009  0.00  0.00    +0.000 HD
ENDBRANCH  20  23
ENDBRANCH   1  19
BRANCH   1  34
ATOM     34  N   UNL     1      47.556   3.268  15.237  0.00  0.00    +0.000 NA
ATOM     35  H   UNL     1      47.875   3.247  16.211  0.00  0.00    +0.000 HD
ATOM     36  H   UNL     1      48.408   3.296  14.686  0.00  0.00    +0.000 HD
ENDBRANCH   1  34
TORSDOF 7
ENDMDL
MODEL 4
REMARK VINA RESULT:    -7.668      2.758      3.935
REMARK INTER + INTRA:         -11.582
REMARK INTER:                 -10.579
REMARK INTRA:                  -1.003
REMARK UNBOUND:                -1.001
REMARK  Name = 
REMARK  7 active torsions:
REMARK  status: ('A' for Active; 'I' for Inactive)
REMARK    1  A    between atoms: N_1  and  C_2
REMARK    2  A    between atoms: C_2  and  N_3
REMARK    3  A    between atoms: C_2  and  C_16
REMARK    4  A    between atoms: C_4  and  C_6
REMARK    5  A    between atoms: C_19  and  C_20
REMARK    6  A    between atoms: C_20  and  N_21
REMARK    7  A    between atoms: C_22  and  C_24
REMARK                            x       y       z     vdW  Elec       q    Type
REMARK                         _______ _______ _______ _____ _____    ______ ____
ROOT
ATOM      1  C   UNL     1      48.036   8.173  14.113  0.00  0.00    +0.000 C 
ENDROOT
BRANCH   1   2
ATOM      2  C   UNL     1      46.986   7.483  13.258  0.00  0.00    +0.000 A 
ATOM      3  C   UNL     1      45.880   8.195  12.771  0.00  0.00    +0.000 A 
ATOM      4  C   UNL     1      44.933   7.573  11.948  0.00  0.00    +0.000 A 
ATOM      5  C   UNL     1      45.059   6.220  11.603  0.00  0.00    +0.000 A 
ATOM      6  C   UNL     1      46.155   5.502  12.094  0.00  0.00    +0.000 A 
ATOM      7  C   UNL     1      47.102   6.123  12.913  0.00  0.00    +0.000 A 
BRANCH   5   8
ATOM      8  C   UNL     1      44.039   5.539  10.728  0.00  0.00    +0.000 C 
BRANCH   8   9
ATOM      9  N   UNL     1      44.634   4.877   9.594  0.00  0.00    +0.000 N 
ATOM     10  C   UNL     1      44.481   3.522   9.393  0.00  0.00    +0.000 C 
ATOM     11  O   UNL     1      43.839   2.800  10.151  0.00  0.00    +0.000 OA
ATOM     12  H   UNL     1      45.354   5.332   9.039  0.00  0.00    +0.000 HD
BRANCH  10  13
ATOM     13  C   UNL     1      45.137   2.982   8.114  0.00  0.00    +0.000 C 
ATOM     14  C   UNL     1      46.072   1.817   8.370  0.00  0.00    +0.000 C 
ATOM     15  C   UNL     1      46.916   1.786   7.111  0.00  0.00    +0.000 C 
ATOM     16  C   UNL     1      46.972   3.234   6.644  0.00  0.00    +0.000 C 
ATOM     17  N   UNL     1      46.020   3.988   7.467  0.00  0.00    +0.000 NA
ATOM     18  H   UNL     1      45.449   4.596   6.878  0.00  0.00    +0.000 HD
ENDBRANCH  10  13
ENDBRANCH   8   9
ENDBRANCH   5   8
ENDBRANCH   1   2
BRANCH   1  19
ATOM     19  N   UNL     1      48.012   7.655  15.451  0.00  0.00    +0.000 N 
ATOM     20  C   UNL     1      49.013   6.871  15.968  0.00  0.00    +0.000 C 
ATOM     21  O   UNL     1      50.049   6.634  15.352  0.00  0.00    +0.000 OA
ATOM     22  H   UNL     1      47.080   7.495  15.819  0.00  0.00    +0.000 HD
BRANCH  20  23
ATOM     23  C   UNL     1      48.841   6.435  17.358  0.00  0.00    +0.000 A 
ATOM     24  C   UNL     1      49.165   5.134  17.715  0.00  0.00    +0.000 A 
ATOM     25  S   UNL     1      48.947   4.806  19.375  0.00  0.00    +0.000 S 
ATOM     26  C   UNL     1      48.369   6.381  19.665  0.00  0.00    +0.000 A 
ATOM     27  N   UNL     1      47.960   6.763  20.902  0.00  0.00    +0.000 NA
ATOM     28  C   UNL     1      47.520   7.978  20.969  0.00  0.00    +0.000 A 
ATOM     29  N   UNL     1      47.466   8.847  19.910  0.00  0.00    +0.000 N 
ATOM     30  C   UNL     1      47.895   8.513  18.650  0.00  0.00    +0.000 A 
ATOM     31  O   UNL     1      47.878   9.322  17.724  0.00  0.00    +0.000 OA
ATOM     32  C   UNL     1      48.374   7.152  18.515  0.00  0.00    +0.000 A 
ATOM     33  H   UNL     1      47.124   9.788  20.033  0.00  0.00    +0.000 HD
ENDBRANCH  20  23
ENDBRANCH   1  19
BRANCH   1  34
ATOM     34  N   UNL     1      47.764   9.591  14.214  0.00  0.00    +0.000 NA
ATOM     35  H   UNL     1      48.627  10.065  13.930  0.00  0.00    +0.000 HD
ATOM     36  H   UNL     1      47.656   9.817  15.198  0.00  0.00    +0.000 HD
ENDBRANCH   1  34
TORSDOF 7
ENDMDL
MODEL 5
REMARK VINA RESULT:    -7.200      2.268      3.870
REMARK INTER + INTRA:         -10.936
REMARK INTER:                  -9.718
REMARK INTRA:                  -1.218
REMARK UNBOUND:                -1.001
REMARK  Name = 
REMARK  7 active torsions:
REMARK  status: ('A' for Active; 'I' for Inactive)
REMARK    1  A    between atoms: N_1  and  C_2
REMARK    2  A    between atoms: C_2  and  N_3
REMARK    3  A    between atoms: C_2  and  C_16
REMARK    4  A    between atoms: C_4  and  C_6
REMARK    5  A    between atoms: C_19  and  C_20
REMARK    6  A    between atoms: C_20  and  N_21
REMARK    7  A    between atoms: C_22  and  C_24
REMARK                            x       y       z     vdW  Elec       q    Type
REMARK                         _______ _______ _______ _____ _____    ______ ____
ROOT
ATOM      1  C   UNL     1      48.370   9.154  13.530  0.00  0.00    +0.000 C 
ENDROOT
BRANCH   1   2
ATOM      2  C   UNL     1      47.315   8.313  12.832  0.00  0.00    +0.000 A 
ATOM      3  C   UNL     1      47.637   7.052  12.311  0.00  0.00    +0.000 A 
ATOM      4  C   UNL     1      46.657   6.255  11.704  0.00  0.00    +0.000 A 
ATOM      5  C   UNL     1      45.335   6.706  11.589  0.00  0.00    +0.000 A 
ATOM      6  C   UNL     1      45.011   7.968  12.097  0.00  0.00    +0.000 A 
ATOM      7  C   UNL     1      45.987   8.762  12.706  0.00  0.00    +0.000 A 
BRANCH   5   8
ATOM      8  C   UNL     1      44.277   5.862  10.927  0.00  0.00    +0.000 C 
BRANCH   8   9
ATOM      9  N   UNL     1      44.782   5.127   9.794  0.00  0.00    +0.000 N 
ATOM     10  C   UNL     1      44.407   3.821   9.562  0.00  0.00    +0.000 C 
ATOM     11  O   UNL     1      43.631   3.207  10.290  0.00  0.00    +0.000 OA
ATOM     12  H   UNL     1      45.583   5.462   9.267  0.00  0.00    +0.000 HD
BRANCH  10  13
ATOM     13  C   UNL     1      44.997   3.198   8.288  0.00  0.00    +0.000 C 
ATOM     14  C   UNL     1      45.850   1.975   8.563  0.00  0.00    +0.000 C 
ATOM     15  C   UNL     1      46.665   1.846   7.290  0.00  0.00    +0.000 C 
ATOM     16  C   UNL     1      46.816   3.273   6.780  0.00  0.00    +0.000 C 
ATOM     17  N   UNL     1      45.937   4.118   7.596  0.00  0.00    +0.000 NA
ATOM     18  H   UNL     1      45.400   4.748   6.999  0.00  0.00    +0.000 HD
ENDBRANCH  10  13
ENDBRANCH   8   9
ENDBRANCH   5   8
ENDBRANCH   1   2
BRANCH   1  19
ATOM     19  N   UNL     1      48.566   8.699  14.877  0.00  0.00    +0.000 N 
ATOM     20  C   UNL     1      49.726   8.909  15.578  0.00  0.00    +0.000 C 
ATOM     21  O   UNL     1      50.650   9.588  15.134  0.00  0.00    +0.000 OA
ATOM     22  H   UNL     1      48.044   7.860  15.112  0.00  0.00    +0.000 HD
BRANCH  20  23
ATOM     23  C   UNL     1      49.758   8.391  16.949  0.00  0.00    +0.000 A 
ATOM     24  C   UNL     1      50.109   9.233  17.994  0.00  0.00    +0.000 A 
ATOM     25  S   UNL     1      50.053   8.483  19.525  0.00  0.00    +0.000 S 
ATOM     26  C   UNL     1      49.600   6.993  18.838  0.00  0.00    +0.000 A 
ATOM     27  N   UNL     1      49.420   5.889  19.608  0.00  0.00    +0.000 NA
ATOM     28  C   UNL     1      49.105   4.821  18.949  0.00  0.00    +0.000 A 
ATOM     29  N   UNL     1      48.941   4.765  17.589  0.00  0.00    +0.000 N 
ATOM     30  C   UNL     1      49.084   5.861  16.775  0.00  0.00    +0.000 A 
ATOM     31  O   UNL     1      48.891   5.798  15.562  0.00  0.00    +0.000 OA
ATOM     32  C   UNL     1      49.464   7.079  17.463  0.00  0.00    +0.000 A 
ATOM     33  H   UNL     1      48.680   3.902  17.137  0.00  0.00    +0.000 HD
ENDBRANCH  20  23
ENDBRANCH   1  19
BRANCH   1  34
ATOM     34  N   UNL     1      47.949  10.537  13.618  0.00  0.00    +0.000 NA
ATOM     35  H   UNL     1      46.968  10.515  13.910  0.00  0.00    +0.000 HD
ATOM     36  H   UNL     1      47.931  10.917  12.677  0.00  0.00    +0.000 HD
ENDBRANCH   1  34
TORSDOF 7
ENDMDL
MODEL 6
REMARK VINA RESULT:    -7.154      2.965      4.065
REMARK INTER + INTRA:         -10.873
REMARK INTER:                  -9.749
REMARK INTRA:                  -1.124
REMARK UNBOUND:                -1.001
REMARK  Name = 
REMARK  7 active torsions:
REMARK  status: ('A' for Active; 'I' for Inactive)
REMARK    1  A    between atoms: N_1  and  C_2
REMARK    2  A    between atoms: C_2  and  N_3
REMARK    3  A    between atoms: C_2  and  C_16
REMARK    4  A    between atoms: C_4  and  C_6
REMARK    5  A    between atoms: C_19  and  C_20
REMARK    6  A    between atoms: C_20  and  N_21
REMARK    7  A    between atoms: C_22  and  C_24
REMARK                            x       y       z     vdW  Elec       q    Type
REMARK                         _______ _______ _______ _____ _____    ______ ____
ROOT
ATOM      1  C   UNL     1      47.456   8.989  13.859  0.00  0.00    +0.000 C 
ENDROOT
BRANCH   1   2
ATOM      2  C   UNL     1      46.507   8.078  13.098  0.00  0.00    +0.000 A 
ATOM      3  C   UNL     1      45.481   8.616  12.307  0.00  0.00    +0.000 A 
ATOM      4  C   UNL     1      44.630   7.782  11.571  0.00  0.00    +0.000 A 
ATOM      5  C   UNL     1      44.773   6.388  11.619  0.00  0.00    +0.000 A 
ATOM      6  C   UNL     1      45.789   5.845  12.415  0.00  0.00    +0.000 A 
ATOM      7  C   UNL     1      46.640   6.678  13.147  0.00  0.00    +0.000 A 
BRANCH   5   8
ATOM      8  C   UNL     1      43.856   5.481  10.842  0.00  0.00    +0.000 C 
BRANCH   8   9
ATOM      9  N   UNL     1      44.503   4.884   9.700  0.00  0.00    +0.000 N 
ATOM     10  C   UNL     1      44.413   3.531   9.451  0.00  0.00    +0.000 C 
ATOM     11  O   UNL     1      43.788   2.758  10.171  0.00  0.00    +0.000 OA
ATOM     12  H   UNL     1      45.214   5.388   9.177  0.00  0.00    +0.000 HD
BRANCH  10  13
ATOM     13  C   UNL     1      45.119   3.064   8.170  0.00  0.00    +0.000 C 
ATOM     14  C   UNL     1      46.018   1.862   8.390  0.00  0.00    +0.000 C 
ATOM     15  C   UNL     1      46.921   1.896   7.172  0.00  0.00    +0.000 C 
ATOM     16  C   UNL     1      47.027   3.371   6.808  0.00  0.00    +0.000 C 
ATOM     17  N   UNL     1      46.051   4.090   7.635  0.00  0.00    +0.000 NA
ATOM     18  H   UNL     1      45.521   4.748   7.062  0.00  0.00    +0.000 HD
ENDBRANCH  10  13
ENDBRANCH   8   9
ENDBRANCH   5   8
ENDBRANCH   1   2
BRANCH   1  19
ATOM     19  N   UNL     1      48.679   9.162  13.128  0.00  0.00    +0.000 N 
ATOM     20  C   UNL     1      48.856  10.144  12.186  0.00  0.00    +0.000 C 
ATOM     21  O   UNL     1      48.010  11.008  11.968  0.00  0.00    +0.000 OA
ATOM     22  H   UNL     1      49.206   8.305  12.989  0.00  0.00    +0.000 HD
BRANCH  20  23
ATOM     23  C   UNL     1      50.172  10.192  11.541  0.00  0.00    +0.000 A 
ATOM     24  C   UNL     1      50.767  11.419  11.283  0.00  0.00    +0.000 A 
ATOM     25  S   UNL     1      52.311  11.294  10.569  0.00  0.00    +0.000 S 
ATOM     26  C   UNL     1      52.218   9.595  10.538  0.00  0.00    +0.000 A 
ATOM     27  N   UNL     1      53.218   8.846  10.007  0.00  0.00    +0.000 NA
ATOM     28  C   UNL     1      53.000   7.570  10.025  0.00  0.00    +0.000 A 
ATOM     29  N   UNL     1      51.876   6.980  10.542  0.00  0.00    +0.000 N 
ATOM     30  C   UNL     1      50.854   7.696  11.115  0.00  0.00    +0.000 A 
ATOM     31  O   UNL     1      49.874   7.143  11.611  0.00  0.00    +0.000 OA
ATOM     32  C   UNL     1      51.038   9.132  11.095  0.00  0.00    +0.000 A 
ATOM     33  H   UNL     1      51.774   5.976  10.539  0.00  0.00    +0.000 HD
ENDBRANCH  20  23
ENDBRANCH   1  19
BRANCH   1  34
ATOM     34  N   UNL     1      47.816   8.406  15.134  0.00  0.00    +0.000 NA
ATOM     35  H   UNL     1      48.695   8.852  15.411  0.00  0.00    +0.000 HD
ATOM     36  H   UNL     1      48.057   7.433  14.974  0.00  0.00    +0.000 HD
ENDBRANCH   1  34
TORSDOF 7
ENDMDL
MODEL 7
REMARK VINA RESULT:    -7.147      2.523      3.141
REMARK INTER + INTRA:         -10.863
REMARK INTER:                  -9.957
REMARK INTRA:                  -0.907
REMARK UNBOUND:                -1.001
REMARK  Name = 
REMARK  7 active torsions:
REMARK  status: ('A' for Active; 'I' for Inactive)
REMARK    1  A    between atoms: N_1  and  C_2
REMARK    2  A    between atoms: C_2  and  N_3
REMARK    3  A    between atoms: C_2  and  C_16
REMARK    4  A    between atoms: C_4  and  C_6
REMARK    5  A    between atoms: C_19  and  C_20
REMARK    6  A    between atoms: C_20  and  N_21
REMARK    7  A    between atoms: C_22  and  C_24
REMARK                            x       y       z     vdW  Elec       q    Type
REMARK                         _______ _______ _______ _____ _____    ______ ____
ROOT
ATOM      1  C   UNL     1      47.268   4.313  15.780  0.00  0.00    +0.000 C 
ENDROOT
BRANCH   1   2
ATOM      2  C   UNL     1      46.825   4.777  14.402  0.00  0.00    +0.000 A 
ATOM      3  C   UNL     1      45.797   4.109  13.721  0.00  0.00    +0.000 A 
ATOM      4  C   UNL     1      45.357   4.559  12.469  0.00  0.00    +0.000 A 
ATOM      5  C   UNL     1      45.943   5.677  11.860  0.00  0.00    +0.000 A 
ATOM      6  C   UNL     1      46.976   6.341  12.531  0.00  0.00    +0.000 A 
ATOM      7  C   UNL     1      47.414   5.894  13.782  0.00  0.00    +0.000 A 
BRANCH   5   8
ATOM      8  C   UNL     1      45.485   6.161  10.510  0.00  0.00    +0.000 C 
BRANCH   8   9
ATOM      9  N   UNL     1      45.888   5.283   9.440  0.00  0.00    +0.000 N 
ATOM     10  C   UNL     1      45.025   4.343   8.919  0.00  0.00    +0.000 C 
ATOM     11  O   UNL     1      43.875   4.193   9.323  0.00  0.00    +0.000 OA
ATOM     12  H   UNL     1      46.867   5.176   9.190  0.00  0.00    +0.000 HD
BRANCH  10  13
ATOM     13  C   UNL     1      45.594   3.520   7.754  0.00  0.00    +0.000 C 
ATOM     14  C   UNL     1      46.061   2.139   8.171  0.00  0.00    +0.000 C 
ATOM     15  C   UNL     1      46.971   1.737   7.027  0.00  0.00    +0.000 C 
ATOM     16  C   UNL     1      47.549   3.048   6.512  0.00  0.00    +0.000 C 
ATOM     17  N   UNL     1      46.820   4.132   7.180  0.00  0.00    +0.000 NA
ATOM     18  H   UNL     1      46.545   4.843   6.500  0.00  0.00    +0.000 HD
ENDBRANCH  10  13
ENDBRANCH   8   9
ENDBRANCH   5   8
ENDBRANCH   1   2
BRANCH   1  19
ATOM     19  N   UNL     1      48.268   5.197  16.309  0.00  0.00    +0.000 N 
ATOM     20  C   UNL     1      48.335   5.545  17.634  0.00  0.00    +0.000 C 
ATOM     21  O   UNL     1      47.598   5.048  18.483  0.00  0.00    +0.000 OA
ATOM     22  H   UNL     1      48.607   5.887  15.645  0.00  0.00    +0.000 HD
BRANCH  20  23
ATOM     23  C   UNL     1      49.427   6.447  18.013  0.00  0.00    +0.000 A 
ATOM     24  C   UNL     1      50.741   6.073  17.773  0.00  0.00    +0.000 A 
ATOM     25  S   UNL     1      51.883   7.254  18.234  0.00  0.00    +0.000 S 
ATOM     26  C   UNL     1      50.660   8.288  18.812  0.00  0.00    +0.000 A 
ATOM     27  N   UNL     1      50.961   9.481  19.385  0.00  0.00    +0.000 NA
ATOM     28  C   UNL     1      49.935  10.149  19.804  0.00  0.00    +0.000 A 
ATOM     29  N   UNL     1      48.634   9.733  19.686  0.00  0.00    +0.000 N 
ATOM     30  C   UNL     1      48.281   8.548  19.087  0.00  0.00    +0.000 A 
ATOM     31  O   UNL     1      47.106   8.214  18.954  0.00  0.00    +0.000 OA
ATOM     32  C   UNL     1      49.398   7.750  18.625  0.00  0.00    +0.000 A 
ATOM     33  H   UNL     1      47.876  10.309  20.020  0.00  0.00    +0.000 HD
ENDBRANCH  20  23
ENDBRANCH   1  19
BRANCH   1  34
ATOM     34  N   UNL     1      47.873   3.000  15.710  0.00  0.00    +0.000 NA
ATOM     35  H   UNL     1      47.280   2.449  15.082  0.00  0.00    +0.000 HD
ATOM     36  H   UNL     1      47.767   2.560  16.618  0.00  0.00    +0.000 HD
ENDBRANCH   1  34
TORSDOF 7
ENDMDL
MODEL 8
REMARK VINA RESULT:    -7.066      2.570      3.480
REMARK INTER + INTRA:         -10.752
REMARK INTER:                  -9.503
REMARK INTRA:                  -1.249
REMARK UNBOUND:                -1.001
REMARK  Name = 
REMARK  7 active torsions:
REMARK  status: ('A' for Active; 'I' for Inactive)
REMARK    1  A    between atoms: N_1  and  C_2
REMARK    2  A    between atoms: C_2  and  N_3
REMARK    3  A    between atoms: C_2  and  C_16
REMARK    4  A    between atoms: C_4  and  C_6
REMARK    5  A    between atoms: C_19  and  C_20
REMARK    6  A    between atoms: C_20  and  N_21
REMARK    7  A    between atoms: C_22  and  C_24
REMARK                            x       y       z     vdW  Elec       q    Type
REMARK                         _______ _______ _______ _____ _____    ______ ____
ROOT
ATOM      1  C   UNL     1      48.824   7.101  14.715  0.00  0.00    +0.000 C 
ENDROOT
BRANCH   1   2
ATOM      2  C   UNL     1      47.744   6.724  13.714  0.00  0.00    +0.000 A 
ATOM      3  C   UNL     1      47.144   5.458  13.755  0.00  0.00    +0.000 A 
ATOM      4  C   UNL     1      46.119   5.121  12.861  0.00  0.00    +0.000 A 
ATOM      5  C   UNL     1      45.679   6.037  11.895  0.00  0.00    +0.000 A 
ATOM      6  C   UNL     1      46.282   7.298  11.843  0.00  0.00    +0.000 A 
ATOM      7  C   UNL     1      47.303   7.636  12.737  0.00  0.00    +0.000 A 
BRANCH   5   8
ATOM      8  C   UNL     1      44.586   5.680  10.921  0.00  0.00    +0.000 C 
BRANCH   8   9
ATOM      9  N   UNL     1      45.084   4.994   9.755  0.00  0.00    +0.000 N 
ATOM     10  C   UNL     1      44.682   3.710   9.453  0.00  0.00    +0.000 C 
ATOM     11  O   UNL     1      43.888   3.077  10.143  0.00  0.00    +0.000 OA
ATOM     12  H   UNL     1      45.896   5.337   9.251  0.00  0.00    +0.000 HD
BRANCH  10  13
ATOM     13  C   UNL     1      45.269   3.141   8.153  0.00  0.00    +0.000 C 
ATOM     14  C   UNL     1      46.022   1.841   8.358  0.00  0.00    +0.000 C 
ATOM     15  C   UNL     1      46.867   1.745   7.103  0.00  0.00    +0.000 C 
ATOM     16  C   UNL     1      47.139   3.191   6.707  0.00  0.00    +0.000 C 
ATOM     17  N   UNL     1      46.296   4.036   7.560  0.00  0.00    +0.000 NA
ATOM     18  H   UNL     1      45.827   4.747   6.998  0.00  0.00    +0.000 HD
ENDBRANCH  10  13
ENDBRANCH   8   9
ENDBRANCH   5   8
ENDBRANCH   1   2
BRANCH   1  19
ATOM     19  N   UNL     1      50.061   7.373  14.040  0.00  0.00    +0.000 N 
ATOM     20  C   UNL     1      50.617   8.626  13.971  0.00  0.00    +0.000 C 
ATOM     21  O   UNL     1      50.142   9.590  14.566  0.00  0.00    +0.000 OA
ATOM     22  H   UNL     1      50.256   6.751  13.261  0.00  0.00    +0.000 HD
BRANCH  20  23
ATOM     23  C   UNL     1      51.892   8.730  13.255  0.00  0.00    +0.000 A 
ATOM     24  C   UNL     1      52.993   9.287  13.889  0.00  0.00    +0.000 A 
ATOM     25  S   UNL     1      54.404   9.292  12.932  0.00  0.00    +0.000 S 
ATOM     26  C   UNL     1      53.580   8.589  11.618  0.00  0.00    +0.000 A 
ATOM     27  N   UNL     1      54.210   8.350  10.440  0.00  0.00    +0.000 NA
ATOM     28  C   UNL     1      53.454   7.839   9.522  0.00  0.00    +0.000 A 
ATOM     29  N   UNL     1      52.128   7.534   9.686  0.00  0.00    +0.000 N 
ATOM     30  C   UNL     1      51.459   7.730  10.869  0.00  0.00    +0.000 A 
ATOM     31  O   UNL     1      50.280   7.409  11.007  0.00  0.00    +0.000 OA
ATOM     32  C   UNL     1      52.255   8.326  11.922  0.00  0.00    +0.000 A 
ATOM     33  H   UNL     1      51.597   7.122   8.934  0.00  0.00    +0.000 HD
ENDBRANCH  20  23
ENDBRANCH   1  19
BRANCH   1  34
ATOM     34  N   UNL     1      49.083   6.007  15.627  0.00  0.00    +0.000 NA
ATOM     35  H   UNL     1      50.083   6.051  15.844  0.00  0.00    +0.000 HD
ATOM     36  H   UNL     1      48.967   5.140  15.113  0.00  0.00    +0.000 HD
ENDBRANCH   1  34
TORSDOF 7
ENDMDL
MODEL 9
REMARK VINA RESULT:    -6.765      2.806      3.648
REMARK INTER + INTRA:         -10.337
REMARK INTER:                  -9.283
REMARK INTRA:                  -1.054
REMARK UNBOUND:                -1.001
REMARK  Name = 
REMARK  7 active torsions:
REMARK  status: ('A' for Active; 'I' for Inactive)
REMARK    1  A    between atoms: N_1  and  C_2
REMARK    2  A    between atoms: C_2  and  N_3
REMARK    3  A    between atoms: C_2  and  C_16
REMARK    4  A    between atoms: C_4  and  C_6
REMARK    5  A    between atoms: C_19  and  C_20
REMARK    6  A    between atoms: C_20  and  N_21
REMARK    7  A    between atoms: C_22  and  C_24
REMARK                            x       y       z     vdW  Elec       q    Type
REMARK                         _______ _______ _______ _____ _____    ______ ____
ROOT
ATOM      1  C   UNL     1      48.666   7.095  14.541  0.00  0.00    +0.000 C 
ENDROOT
BRANCH   1   2
ATOM      2  C   UNL     1      47.520   6.705  13.622  0.00  0.00    +0.000 A 
ATOM      3  C   UNL     1      46.954   7.644  12.749  0.00  0.00    +0.000 A 
ATOM      4  C   UNL     1      45.926   7.278  11.870  0.00  0.00    +0.000 A 
ATOM      5  C   UNL     1      45.428   5.968  11.854  0.00  0.00    +0.000 A 
ATOM      6  C   UNL     1      45.982   5.029  12.732  0.00  0.00    +0.000 A 
ATOM      7  C   UNL     1      47.010   5.393  13.606  0.00  0.00    +0.000 A 
BRANCH   5   8
ATOM      8  C   UNL     1      44.314   5.567  10.922  0.00  0.00    +0.000 C 
BRANCH   8   9
ATOM      9  N   UNL     1      44.795   4.902   9.736  0.00  0.00    +0.000 N 
ATOM     10  C   UNL     1      44.528   3.571   9.503  0.00  0.00    +0.000 C 
ATOM     11  O   UNL     1      43.874   2.873  10.274  0.00  0.00    +0.000 OA
ATOM     12  H   UNL     1      45.517   5.321   9.157  0.00  0.00    +0.000 HD
BRANCH  10  13
ATOM     13  C   UNL     1      45.071   3.028   8.173  0.00  0.00    +0.000 C 
ATOM     14  C   UNL     1      46.046   1.880   8.351  0.00  0.00    +0.000 C 
ATOM     15  C   UNL     1      46.769   1.849   7.019  0.00  0.00    +0.000 C 
ATOM     16  C   UNL     1      46.758   3.293   6.537  0.00  0.00    +0.000 C 
ATOM     17  N   UNL     1      45.874   4.040   7.438  0.00  0.00    +0.000 NA
ATOM     18  H   UNL     1      45.240   4.633   6.899  0.00  0.00    +0.000 HD
ENDBRANCH  10  13
ENDBRANCH   8   9
ENDBRANCH   5   8
ENDBRANCH   1   2
BRANCH   1  19
ATOM     19  N   UNL     1      49.866   7.309  13.784  0.00  0.00    +0.000 N 
ATOM     20  C   UNL     1      50.300   8.554  13.404  0.00  0.00    +0.000 C 
ATOM     21  O   UNL     1      49.739   9.586  13.767  0.00  0.00    +0.000 OA
ATOM     22  H   UNL     1      50.113   6.540  13.169  0.00  0.00    +0.000 HD
BRANCH  20  23
ATOM     23  C   UNL     1      51.554   8.600  12.645  0.00  0.00    +0.000 A 
ATOM     24  C   UNL     1      51.533   8.958  11.305  0.00  0.00    +0.000 A 
ATOM     25  S   UNL     1      53.080   9.002  10.586  0.00  0.00    +0.000 S 
ATOM     26  C   UNL     1      53.825   8.500  12.031  0.00  0.00    +0.000 A 
ATOM     27  N   UNL     1      55.166   8.298  12.097  0.00  0.00    +0.000 NA
ATOM     28  C   UNL     1      55.591   7.891  13.250  0.00  0.00    +0.000 A 
ATOM     29  N   UNL     1      54.793   7.682  14.344  0.00  0.00    +0.000 N 
ATOM     30  C   UNL     1      53.438   7.901  14.332  0.00  0.00    +0.000 A 
ATOM     31  O   UNL     1      52.747   7.748  15.337  0.00  0.00    +0.000 OA
ATOM     32  C   UNL     1      52.908   8.333  13.054  0.00  0.00    +0.000 A 
ATOM     33  H   UNL     1      55.189   7.378  15.221  0.00  0.00    +0.000 HD
ENDBRANCH  20  23
ENDBRANCH   1  19
BRANCH   1  34
ATOM     34  N   UNL     1      48.955   6.033  15.482  0.00  0.00    +0.000 NA
ATOM     35  H   UNL     1      49.942   6.139  15.733  0.00  0.00    +0.000 HD
ATOM     36  H   UNL     1      48.909   5.152  14.979  0.00  0.00    +0.000 HD
ENDBRANCH   1  34
TORSDOF 7
ENDMDL
