MODEL 1
REMARK VINA RESULT:    -8.701      0.000      0.000
REMARK INTER + INTRA:         -11.677
REMARK INTER:                 -11.244
REMARK INTRA:                  -0.433
REMARK UNBOUND:                -0.433
REMARK  Name = 
REMARK  5 active torsions:
REMARK  status: ('A' for Active; 'I' for Inactive)
REMARK    1  A    between atoms: C_2  and  C_4
REMARK    2  A    between atoms: C_7  and  N_8
REMARK    3  A    between atoms: N_8  and  C_9
REMARK    4  A    between atoms: C_9  and  C_10
REMARK    5  A    between atoms: C_14  and  C_15
REMARK                            x       y       z     vdW  Elec       q    Type
REMARK                         _______ _______ _______ _____ _____    ______ ____
ROOT
ATOM      1  N   UNL     1      44.076   4.906  10.050  0.00  0.00    +0.000 N 
ATOM      2  H   UNL     1      44.379   5.874   9.958  0.00  0.00    +0.000 HD
ENDROOT
BRANCH   1   6
ATOM      3  C   UNL     1      46.417   2.352   7.815  0.00  0.00    +0.000 A 
ATOM      4  C   UNL     1      46.475   3.723   7.611  0.00  0.00    +0.000 A 
ATOM      5  N   UNL     1      45.713   4.609   8.317  0.00  0.00    +0.000 NA
ATOM      6  C   UNL     1      44.873   4.085   9.235  0.00  0.00    +0.000 A 
ATOM      7  C   UNL     1      44.824   2.691   9.414  0.00  0.00    +0.000 A 
ATOM      8  N   UNL     1      45.572   1.791   8.719  0.00  0.00    +0.000 NA
BRANCH   3  10
ATOM      9  N   UNL     1      48.365   2.018   6.394  0.00  0.00    +0.000 N 
ATOM     10  C   UNL     1      47.312   1.441   7.049  0.00  0.00    +0.000 C 
ATOM     11  O   UNL     1      47.126   0.228   7.013  0.00  0.00    +0.000 OA
ATOM     12  H   UNL     1      49.036   1.412   5.937  0.00  0.00    +0.000 HD
ATOM     13  H   UNL     1      48.605   2.988   6.568  0.00  0.00    +0.000 HD
ENDBRANCH   3  10
ENDBRANCH   1   6
BRANCH   1  14
ATOM     14  C   UNL     1      43.990   4.509  11.453  0.00  0.00    +0.000 C 
BRANCH  14  15
ATOM     15  C   UNL     1      45.237   4.955  12.187  0.00  0.00    +0.000 A 
ATOM     16  C   UNL     1      46.047   5.973  11.675  0.00  0.00    +0.000 A 
ATOM     17  C   UNL     1      47.179   6.352  12.380  0.00  0.00    +0.000 A 
ATOM     18  N   UNL     1      47.559   5.790  13.545  0.00  0.00    +0.000 NA
ATOM     19  C   UNL     1      46.783   4.793  14.055  0.00  0.00    +0.000 A 
ATOM     20  C   UNL     1      45.616   4.374  13.406  0.00  0.00    +0.000 A 
BRANCH  19  21
ATOM     21  C   UNL     1      47.269   4.143  15.296  0.00  0.00    +0.000 A 
ATOM     22  C   UNL     1      47.139   4.748  16.548  0.00  0.00    +0.000 A 
ATOM     23  C   UNL     1      47.668   4.123  17.673  0.00  0.00    +0.000 A 
ATOM     24  C   UNL     1      48.310   2.901  17.531  0.00  0.00    +0.000 A 
ATOM     25  C   UNL     1      48.392   2.352  16.264  0.00  0.00    +0.000 A 
ATOM     26  N   UNL     1      47.892   2.939  15.154  0.00  0.00    +0.000 NA
ENDBRANCH  19  21
ENDBRANCH  14  15
ENDBRANCH   1  14
TORSDOF 5
ENDMDL
MODEL 2
REMARK VINA RESULT:    -8.526      1.903      3.974
REMARK INTER + INTRA:         -11.451
REMARK INTER:                 -10.841
REMARK INTRA:                  -0.609
REMARK UNBOUND:                -0.433
REMARK  Name = 
REMARK  5 active torsions:
REMARK  status: ('A' for Active; 'I' for Inactive)
REMARK    1  A    between atoms: C_2  and  C_4
REMARK    2  A    between atoms: C_7  and  N_8
REMARK    3  A    between atoms: N_8  and  C_9
REMARK    4  A    between atoms: C_9  and  C_10
REMARK    5  A    between atoms: C_14  and  C_15
REMARK                            x       y       z     vdW  Elec       q    Type
REMARK                         _______ _______ _______ _____ _____    ______ ____
ROOT
ATOM      1  N   UNL     1      43.743   4.847   9.777  0.00  0.00    +0.000 N 
ATOM      2  H   UNL     1      43.967   5.828   9.623  0.00  0.00    +0.000 HD
ENDROOT
BRANCH   1   6
ATOM      3  C   UNL     1      46.360   2.345   7.803  0.00  0.00    +0.000 A 
ATOM      4  C   UNL     1      46.378   3.712   7.570  0.00  0.00    +0.000 A 
ATOM      5  N   UNL     1      45.527   4.580   8.189  0.00  0.00    +0.000 NA
ATOM      6  C   UNL     1      44.637   4.042   9.050  0.00  0.00    +0.000 A 
ATOM      7  C   UNL     1      44.629   2.652   9.260  0.00  0.00    +0.000 A 
ATOM      8  N   UNL     1      45.467   1.769   8.651  0.00  0.00    +0.000 NA
BRANCH   3  10
ATOM      9  N   UNL     1      48.408   2.064   6.518  0.00  0.00    +0.000 N 
ATOM     10  C   UNL     1      47.350   1.455   7.135  0.00  0.00    +0.000 C 
ATOM     11  O   UNL     1      47.236   0.233   7.147  0.00  0.00    +0.000 OA
ATOM     12  H   UNL     1      49.139   1.480   6.131  0.00  0.00    +0.000 HD
ATOM     13  H   UNL     1      48.581   3.053   6.659  0.00  0.00    +0.000 HD
ENDBRANCH   3  10
ENDBRANCH   1   6
BRANCH   1  14
ATOM     14  C   UNL     1      43.639   4.544  11.202  0.00  0.00    +0.000 C 
BRANCH  14  15
ATOM     15  C   UNL     1      44.916   4.957  11.906  0.00  0.00    +0.000 A 
ATOM     16  C   UNL     1      45.498   4.136  12.876  0.00  0.00    +0.000 A 
ATOM     17  C   UNL     1      46.667   4.551  13.495  0.00  0.00    +0.000 A 
ATOM     18  N   UNL     1      47.286   5.717  13.222  0.00  0.00    +0.000 NA
ATOM     19  C   UNL     1      46.729   6.530  12.282  0.00  0.00    +0.000 A 
ATOM     20  C   UNL     1      45.560   6.165  11.604  0.00  0.00    +0.000 A 
BRANCH  19  21
ATOM     21  C   UNL     1      47.390   7.838  12.060  0.00  0.00    +0.000 A 
ATOM     22  C   UNL     1      48.752   7.939  11.770  0.00  0.00    +0.000 A 
ATOM     23  C   UNL     1      49.336   9.195  11.633  0.00  0.00    +0.000 A 
ATOM     24  C   UNL     1      48.549  10.328  11.777  0.00  0.00    +0.000 A 
ATOM     25  C   UNL     1      47.204  10.157  12.052  0.00  0.00    +0.000 A 
ATOM     26  N   UNL     1      46.613   8.950  12.195  0.00  0.00    +0.000 NA
ENDBRANCH  19  21
ENDBRANCH  14  15
ENDBRANCH   1  14
TORSDOF 5
ENDMDL
MODEL 3
REMARK VINA RESULT:    -8.090      3.328      6.961
REMARK INTER + INTRA:         -10.888
REMARK INTER:                 -10.133
REMARK INTRA:                  -0.755
REMARK UNBOUND:                -0.433
REMARK  Name = 
REMARK  5 active torsions:
REMARK  status: ('A' for Active; 'I' for Inactive)
REMARK    1  A    between atoms: C_2  and  C_4
REMARK    2  A    between atoms: C_7  and  N_8
REMARK    3  A    between atoms: N_8  and  C_9
REMARK    4  A    between atoms: C_9  and  C_10
REMARK    5  A    between atoms: C_14  and  C_15
REMARK                            x       y       z     vdW  Elec       q    Type
REMARK                         _______ _______ _______ _____ _____    ______ ____
ROOT
ATOM      1  N   UNL     1      44.390   6.641  12.722  0.00  0.00    +0.000 N 
ATOM      2  H   UNL     1      44.242   5.873  13.374  0.00  0.00    +0.000 HD
ENDROOT
BRANCH   1   6
ATOM      3  C   UNL     1      48.459   7.295  12.579  0.00  0.00    +0.000 A 
ATOM      4  C   UNL     1      47.571   8.267  12.142  0.00  0.00    +0.000 A 
ATOM      5  N   UNL     1      46.217   8.095  12.159  0.00  0.00    +0.000 NA
ATOM      6  C   UNL     1      45.766   6.908  12.617  0.00  0.00    +0.000 A 
ATOM      7  C   UNL     1      46.686   5.934  13.042  0.00  0.00    +0.000 A 
ATOM      8  N   UNL     1      48.038   6.084  13.031  0.00  0.00    +0.000 NA
BRANCH   3  10
ATOM      9  N   UNL     1      50.547   7.558  13.802  0.00  0.00    +0.000 N 
ATOM     10  C   UNL     1      49.924   7.563  12.584  0.00  0.00    +0.000 C 
ATOM     11  O   UNL     1      50.550   7.765  11.548  0.00  0.00    +0.000 OA
ATOM     12  H   UNL     1      51.555   7.652  13.825  0.00  0.00    +0.000 HD
ATOM     13  H   UNL     1      50.057   7.225  14.624  0.00  0.00    +0.000 HD
ENDBRANCH   3  10
ENDBRANCH   1   6
BRANCH   1  14
ATOM     14  C   UNL     1      43.697   6.405  11.458  0.00  0.00    +0.000 C 
BRANCH  14  15
ATOM     15  C   UNL     1      43.826   4.947  11.069  0.00  0.00    +0.000 A 
ATOM     16  C   UNL     1      43.160   3.950  11.788  0.00  0.00    +0.000 A 
ATOM     17  C   UNL     1      43.304   2.627  11.398  0.00  0.00    +0.000 A 
ATOM     18  N   UNL     1      44.062   2.233  10.355  0.00  0.00    +0.000 NA
ATOM     19  C   UNL     1      44.720   3.192   9.646  0.00  0.00    +0.000 A 
ATOM     20  C   UNL     1      44.605   4.548   9.974  0.00  0.00    +0.000 A 
BRANCH  19  21
ATOM     21  C   UNL     1      45.605   2.720   8.555  0.00  0.00    +0.000 A 
ATOM     22  C   UNL     1      45.994   3.554   7.504  0.00  0.00    +0.000 A 
ATOM     23  C   UNL     1      46.775   3.042   6.471  0.00  0.00    +0.000 A 
ATOM     24  C   UNL     1      47.162   1.711   6.510  0.00  0.00    +0.000 A 
ATOM     25  C   UNL     1      46.753   0.944   7.586  0.00  0.00    +0.000 A 
ATOM     26  N   UNL     1      45.991   1.413   8.599  0.00  0.00    +0.000 NA
ENDBRANCH  19  21
ENDBRANCH  14  15
ENDBRANCH   1  14
TORSDOF 5
ENDMDL
MODEL 4
REMARK VINA RESULT:    -8.062      2.653      7.476
REMARK INTER + INTRA:         -10.852
REMARK INTER:                 -10.406
REMARK INTRA:                  -0.446
REMARK UNBOUND:                -0.433
REMARK  Name = 
REMARK  5 active torsions:
REMARK  status: ('A' for Active; 'I' for Inactive)
REMARK    1  A    between atoms: C_2  and  C_4
REMARK    2  A    between atoms: C_7  and  N_8
REMARK    3  A    between atoms: N_8  and  C_9
REMARK    4  A    between atoms: C_9  and  C_10
REMARK    5  A    between atoms: C_14  and  C_15
REMARK                            x       y       z     vdW  Elec       q    Type
REMARK                         _______ _______ _______ _____ _____    ______ ____
ROOT
ATOM      1  N   UNL     1      47.293   6.511  12.734  0.00  0.00    +0.000 N 
ATOM      2  H   UNL     1      48.011   7.232  12.701  0.00  0.00    +0.000 HD
ENDROOT
BRANCH   1   6
ATOM      3  C   UNL     1      47.577   4.158  16.108  0.00  0.00    +0.000 A 
ATOM      4  C   UNL     1      48.249   5.370  16.033  0.00  0.00    +0.000 A 
ATOM      5  N   UNL     1      48.195   6.179  14.935  0.00  0.00    +0.000 NA
ATOM      6  C   UNL     1      47.455   5.738  13.896  0.00  0.00    +0.000 A 
ATOM      7  C   UNL     1      46.794   4.501  13.991  0.00  0.00    +0.000 A 
ATOM      8  N   UNL     1      46.837   3.678  15.074  0.00  0.00    +0.000 NA
BRANCH   3  10
ATOM      9  N   UNL     1      48.773   3.442  18.104  0.00  0.00    +0.000 N 
ATOM     10  C   UNL     1      47.633   3.344  17.353  0.00  0.00    +0.000 C 
ATOM     11  O   UNL     1      46.699   2.628  17.703  0.00  0.00    +0.000 OA
ATOM     12  H   UNL     1      48.801   2.967  18.997  0.00  0.00    +0.000 HD
ATOM     13  H   UNL     1      49.460   4.159  17.897  0.00  0.00    +0.000 HD
ENDBRANCH   3  10
ENDBRANCH   1   6
BRANCH   1  14
ATOM     14  C   UNL     1      45.962   7.080  12.536  0.00  0.00    +0.000 C 
BRANCH  14  15
ATOM     15  C   UNL     1      45.139   6.160  11.657  0.00  0.00    +0.000 A 
ATOM     16  C   UNL     1      43.762   6.023  11.852  0.00  0.00    +0.000 A 
ATOM     17  C   UNL     1      43.046   5.172  11.025  0.00  0.00    +0.000 A 
ATOM     18  N   UNL     1      43.603   4.451  10.030  0.00  0.00    +0.000 NA
ATOM     19  C   UNL     1      44.945   4.570   9.830  0.00  0.00    +0.000 A 
ATOM     20  C   UNL     1      45.725   5.426  10.616  0.00  0.00    +0.000 A 
BRANCH  19  21
ATOM     21  C   UNL     1      45.538   3.707   8.781  0.00  0.00    +0.000 A 
ATOM     22  C   UNL     1      45.605   2.319   8.914  0.00  0.00    +0.000 A 
ATOM     23  C   UNL     1      46.228   1.561   7.927  0.00  0.00    +0.000 A 
ATOM     24  C   UNL     1      46.767   2.200   6.820  0.00  0.00    +0.000 A 
ATOM     25  C   UNL     1      46.655   3.577   6.745  0.00  0.00    +0.000 A 
ATOM     26  N   UNL     1      46.059   4.338   7.690  0.00  0.00    +0.000 NA
ENDBRANCH  19  21
ENDBRANCH  14  15
ENDBRANCH   1  14
TORSDOF 5
ENDMDL
MODEL 5
REMARK VINA RESULT:    -8.051      3.441      7.092
REMARK INTER + INTRA:         -10.838
REMARK INTER:                 -10.104
REMARK INTRA:                  -0.734
REMARK UNBOUND:                -0.433
REMARK  Name = 
REMARK  5 active torsions:
REMARK  status: ('A' for Active; 'I' for Inactive)
REMARK    1  A    between atoms: C_2  and  C_4
REMARK    2  A    between atoms: C_7  and  N_8
REMARK    3  A    between atoms: N_8  and  C_9
REMARK    4  A    between atoms: C_9  and  C_10
REMARK    5  A    between atoms: C_14  and  C_15
REMARK                            x       y       z     vdW  Elec       q    Type
REMARK                         _______ _______ _______ _____ _____    ______ ____
ROOT
ATOM      1  N   UNL     1      43.891   6.579  12.650  0.00  0.00    +0.000 N 
ATOM      2  H   UNL     1      43.533   5.862  13.279  0.00  0.00    +0.000 HD
ENDROOT
BRANCH   1   6
ATOM      3  C   UNL     1      47.939   7.209  13.116  0.00  0.00    +0.000 A 
ATOM      4  C   UNL     1      47.377   5.975  13.411  0.00  0.00    +0.000 A 
ATOM      5  N   UNL     1      46.043   5.720  13.284  0.00  0.00    +0.000 NA
ATOM      6  C   UNL     1      45.270   6.743  12.860  0.00  0.00    +0.000 A 
ATOM      7  C   UNL     1      45.861   7.988  12.581  0.00  0.00    +0.000 A 
ATOM      8  N   UNL     1      47.188   8.264  12.703  0.00  0.00    +0.000 NA
BRANCH   3  10
ATOM      9  N   UNL     1      50.158   7.102  12.123  0.00  0.00    +0.000 N 
ATOM     10  C   UNL     1      49.410   7.410  13.226  0.00  0.00    +0.000 C 
ATOM     11  O   UNL     1      49.931   7.844  14.249  0.00  0.00    +0.000 OA
ATOM     12  H   UNL     1      51.149   7.310  12.142  0.00  0.00    +0.000 HD
ATOM     13  H   UNL     1      49.705   6.908  11.236  0.00  0.00    +0.000 HD
ENDBRANCH   3  10
ENDBRANCH   1   6
BRANCH   1  14
ATOM     14  C   UNL     1      43.490   6.321  11.270  0.00  0.00    +0.000 C 
BRANCH  14  15
ATOM     15  C   UNL     1      43.725   4.863  10.934  0.00  0.00    +0.000 A 
ATOM     16  C   UNL     1      43.148   3.847  11.701  0.00  0.00    +0.000 A 
ATOM     17  C   UNL     1      43.387   2.525  11.359  0.00  0.00    +0.000 A 
ATOM     18  N   UNL     1      44.158   2.150  10.318  0.00  0.00    +0.000 NA
ATOM     19  C   UNL     1      44.731   3.127   9.563  0.00  0.00    +0.000 A 
ATOM     20  C   UNL     1      44.516   4.482   9.841  0.00  0.00    +0.000 A 
BRANCH  19  21
ATOM     21  C   UNL     1      45.634   2.682   8.475  0.00  0.00    +0.000 A 
ATOM     22  C   UNL     1      45.994   3.524   7.420  0.00  0.00    +0.000 A 
ATOM     23  C   UNL     1      46.795   3.035   6.391  0.00  0.00    +0.000 A 
ATOM     24  C   UNL     1      47.230   1.719   6.437  0.00  0.00    +0.000 A 
ATOM     25  C   UNL     1      46.847   0.943   7.518  0.00  0.00    +0.000 A 
ATOM     26  N   UNL     1      46.067   1.390   8.527  0.00  0.00    +0.000 NA
ENDBRANCH  19  21
ENDBRANCH  14  15
ENDBRANCH   1  14
TORSDOF 5
ENDMDL
MODEL 6
REMARK VINA RESULT:    -7.770      2.863      7.820
REMARK INTER + INTRA:         -10.474
REMARK INTER:                  -9.941
REMARK INTRA:                  -0.532
REMARK UNBOUND:                -0.433
REMARK  Name = 
REMARK  5 active torsions:
REMARK  status: ('A' for Active; 'I' for Inactive)
REMARK    1  A    between atoms: C_2  and  C_4
REMARK    2  A    between atoms: C_7  and  N_8
REMARK    3  A    between atoms: N_8  and  C_9
REMARK    4  A    between atoms: C_9  and  C_10
REMARK    5  A    between atoms: C_14  and  C_15
REMARK                            x       y       z     vdW  Elec       q    Type
REMARK                         _______ _______ _______ _____ _____    ______ ____
ROOT
ATOM      1  N   UNL     1      46.493   6.027  12.794  0.00  0.00    +0.000 N 
ATOM      2  H   UNL     1      46.862   6.957  12.606  0.00  0.00    +0.000 HD
ENDROOT
BRANCH   1   6
ATOM      3  C   UNL     1      48.161   4.745  16.340  0.00  0.00    +0.000 A 
ATOM      4  C   UNL     1      47.114   4.045  15.759  0.00  0.00    +0.000 A 
ATOM      5  N   UNL     1      46.521   4.434  14.593  0.00  0.00    +0.000 NA
ATOM      6  C   UNL     1      46.998   5.560  14.020  0.00  0.00    +0.000 A 
ATOM      7  C   UNL     1      48.051   6.258  14.635  0.00  0.00    +0.000 A 
ATOM      8  N   UNL     1      48.654   5.889  15.798  0.00  0.00    +0.000 NA
BRANCH   3  10
ATOM      9  N   UNL     1      48.003   4.145  18.694  0.00  0.00    +0.000 N 
ATOM     10  C   UNL     1      48.801   4.241  17.587  0.00  0.00    +0.000 C 
ATOM     11  O   UNL     1      49.983   3.912  17.623  0.00  0.00    +0.000 OA
ATOM     12  H   UNL     1      48.391   3.726  19.530  0.00  0.00    +0.000 HD
ATOM     13  H   UNL     1      46.999   4.257  18.610  0.00  0.00    +0.000 HD
ENDBRANCH   3  10
ENDBRANCH   1   6
BRANCH   1  14
ATOM     14  C   UNL     1      45.039   5.996  12.659  0.00  0.00    +0.000 C 
BRANCH  14  15
ATOM     15  C   UNL     1      44.628   4.793  11.835  0.00  0.00    +0.000 A 
ATOM     16  C   UNL     1      43.589   3.957  12.252  0.00  0.00    +0.000 A 
ATOM     17  C   UNL     1      43.244   2.868  11.467  0.00  0.00    +0.000 A 
ATOM     18  N   UNL     1      43.860   2.555  10.309  0.00  0.00    +0.000 NA
ATOM     19  C   UNL     1      44.878   3.357   9.891  0.00  0.00    +0.000 A 
ATOM     20  C   UNL     1      45.266   4.484  10.624  0.00  0.00    +0.000 A 
BRANCH  19  21
ATOM     21  C   UNL     1      45.585   2.942   8.655  0.00  0.00    +0.000 A 
ATOM     22  C   UNL     1      46.007   1.627   8.450  0.00  0.00    +0.000 A 
ATOM     23  C   UNL     1      46.721   1.304   7.300  0.00  0.00    +0.000 A 
ATOM     24  C   UNL     1      46.995   2.297   6.371  0.00  0.00    +0.000 A 
ATOM     25  C   UNL     1      46.536   3.577   6.630  0.00  0.00    +0.000 A 
ATOM     26  N   UNL     1      45.845   3.918   7.740  0.00  0.00    +0.000 NA
ENDBRANCH  19  21
ENDBRANCH  14  15
ENDBRANCH   1  14
TORSDOF 5
ENDMDL
MODEL 7
REMARK VINA RESULT:    -7.044      2.187      3.151
REMARK INTER + INTRA:          -9.536
REMARK INTER:                  -8.940
REMARK INTRA:                  -0.595
REMARK UNBOUND:                -0.433
REMARK  Name = 
REMARK  5 active torsions:
REMARK  status: ('A' for Active; 'I' for Inactive)
REMARK    1  A    between atoms: C_2  and  C_4
REMARK    2  A    between atoms: C_7  and  N_8
REMARK    3  A    between atoms: N_8  and  C_9
REMARK    4  A    between atoms: C_9  and  C_10
REMARK    5  A    between atoms: C_14  and  C_15
REMARK                            x       y       z     vdW  Elec       q    Type
REMARK                         _______ _______ _______ _____ _____    ______ ____
ROOT
ATOM      1  N   UNL     1      44.278   4.550  10.652  0.00  0.00    +0.000 N 
ATOM      2  H   UNL     1      43.284   4.552  10.431  0.00  0.00    +0.000 HD
ENDROOT
BRANCH   1   6
ATOM      3  C   UNL     1      46.449   3.029   7.494  0.00  0.00    +0.000 A 
ATOM      4  C   UNL     1      46.372   4.398   7.704  0.00  0.00    +0.000 A 
ATOM      5  N   UNL     1      45.658   4.951   8.727  0.00  0.00    +0.000 NA
ATOM      6  C   UNL     1      45.005   4.093   9.540  0.00  0.00    +0.000 A 
ATOM      7  C   UNL     1      45.088   2.710   9.299  0.00  0.00    +0.000 A 
ATOM      8  N   UNL     1      45.792   2.139   8.284  0.00  0.00    +0.000 NA
BRANCH   3  10
ATOM      9  N   UNL     1      48.349   1.700   6.751  0.00  0.00    +0.000 N 
ATOM     10  C   UNL     1      47.287   2.484   6.390  0.00  0.00    +0.000 C 
ATOM     11  O   UNL     1      47.035   2.712   5.211  0.00  0.00    +0.000 OA
ATOM     12  H   UNL     1      48.882   1.248   6.019  0.00  0.00    +0.000 HD
ATOM     13  H   UNL     1      48.446   1.382   7.709  0.00  0.00    +0.000 HD
ENDBRANCH   3  10
ENDBRANCH   1   6
BRANCH   1  14
ATOM     14  C   UNL     1      44.703   5.836  11.198  0.00  0.00    +0.000 C 
BRANCH  14  15
ATOM     15  C   UNL     1      45.711   5.612  12.306  0.00  0.00    +0.000 A 
ATOM     16  C   UNL     1      45.761   4.399  12.999  0.00  0.00    +0.000 A 
ATOM     17  C   UNL     1      46.700   4.236  14.005  0.00  0.00    +0.000 A 
ATOM     18  N   UNL     1      47.581   5.190  14.368  0.00  0.00    +0.000 NA
ATOM     19  C   UNL     1      47.543   6.379  13.706  0.00  0.00    +0.000 A 
ATOM     20  C   UNL     1      46.633   6.605  12.667  0.00  0.00    +0.000 A 
BRANCH  19  21
ATOM     21  C   UNL     1      48.471   7.433  14.181  0.00  0.00    +0.000 A 
ATOM     22  C   UNL     1      48.052   8.747  14.394  0.00  0.00    +0.000 A 
ATOM     23  C   UNL     1      48.978   9.712  14.781  0.00  0.00    +0.000 A 
ATOM     24  C   UNL     1      50.305   9.346  14.956  0.00  0.00    +0.000 A 
ATOM     25  C   UNL     1      50.650   8.024  14.740  0.00  0.00    +0.000 A 
ATOM     26  N   UNL     1      49.773   7.069  14.360  0.00  0.00    +0.000 NA
ENDBRANCH  19  21
ENDBRANCH  14  15
ENDBRANCH   1  14
TORSDOF 5
ENDMDL
MODEL 8
REMARK VINA RESULT:    -6.836      3.745      7.853
REMARK INTER + INTRA:          -9.268
REMARK INTER:                  -8.697
REMARK INTRA:                  -0.570
REMARK UNBOUND:                -0.433
REMARK  Name = 
REMARK  5 active torsions:
REMARK  status: ('A' for Active; 'I' for Inactive)
REMARK    1  A    between atoms: C_2  and  C_4
REMARK    2  A    between atoms: C_7  and  N_8
REMARK    3  A    between atoms: N_8  and  C_9
REMARK    4  A    between atoms: C_9  and  C_10
REMARK    5  A    between atoms: C_14  and  C_15
REMARK                            x       y       z     vdW  Elec       q    Type
REMARK                         _______ _______ _______ _____ _____    ______ ____
ROOT
ATOM      1  N   UNL     1      46.724   7.492  11.832  0.00  0.00    +0.000 N 
ATOM      2  H   UNL     1      47.000   8.194  11.148  0.00  0.00    +0.000 HD
ENDROOT
BRANCH   1   6
ATOM      3  C   UNL     1      49.021   7.705  15.250  0.00  0.00    +0.000 A 
ATOM      4  C   UNL     1      48.124   8.716  14.938  0.00  0.00    +0.000 A 
ATOM      5  N   UNL     1      47.349   8.697  13.814  0.00  0.00    +0.000 NA
ATOM      6  C   UNL     1      47.503   7.637  12.993  0.00  0.00    +0.000 A 
ATOM      7  C   UNL     1      48.428   6.632  13.324  0.00  0.00    +0.000 A 
ATOM      8  N   UNL     1      49.211   6.632  14.438  0.00  0.00    +0.000 NA
BRANCH   3  10
ATOM      9  N   UNL     1      50.517   8.898  16.754  0.00  0.00    +0.000 N 
ATOM     10  C   UNL     1      49.800   7.757  16.518  0.00  0.00    +0.000 C 
ATOM     11  O   UNL     1      49.794   6.830  17.323  0.00  0.00    +0.000 OA
ATOM     12  H   UNL     1      50.986   8.993  17.646  0.00  0.00    +0.000 HD
ATOM     13  H   UNL     1      50.382   9.716  16.171  0.00  0.00    +0.000 HD
ENDBRANCH   3  10
ENDBRANCH   1   6
BRANCH   1  14
ATOM     14  C   UNL     1      45.279   7.493  12.040  0.00  0.00    +0.000 C 
BRANCH  14  15
ATOM     15  C   UNL     1      44.680   6.225  11.466  0.00  0.00    +0.000 A 
ATOM     16  C   UNL     1      43.470   5.719  11.951  0.00  0.00    +0.000 A 
ATOM     17  C   UNL     1      42.956   4.557  11.398  0.00  0.00    +0.000 A 
ATOM     18  N   UNL     1      43.561   3.867  10.409  0.00  0.00    +0.000 NA
ATOM     19  C   UNL     1      44.742   4.345   9.929  0.00  0.00    +0.000 A 
ATOM     20  C   UNL     1      45.309   5.524  10.428  0.00  0.00    +0.000 A 
BRANCH  19  21
ATOM     21  C   UNL     1      45.420   3.523   8.897  0.00  0.00    +0.000 A 
ATOM     22  C   UNL     1      45.539   2.137   9.015  0.00  0.00    +0.000 A 
ATOM     23  C   UNL     1      46.239   1.421   8.049  0.00  0.00    +0.000 A 
ATOM     24  C   UNL     1      46.800   2.098   6.976  0.00  0.00    +0.000 A 
ATOM     25  C   UNL     1      46.634   3.471   6.914  0.00  0.00    +0.000 A 
ATOM     26  N   UNL     1      45.964   4.191   7.841  0.00  0.00    +0.000 NA
ENDBRANCH  19  21
ENDBRANCH  14  15
ENDBRANCH   1  14
TORSDOF 5
ENDMDL
MODEL 9
REMARK VINA RESULT:    -6.361      4.179      7.840
REMARK INTER + INTRA:          -8.653
REMARK INTER:                  -8.040
REMARK INTRA:                  -0.613
REMARK UNBOUND:                -0.433
REMARK  Name = 
REMARK  5 active torsions:
REMARK  status: ('A' for Active; 'I' for Inactive)
REMARK    1  A    between atoms: C_2  and  C_4
REMARK    2  A    between atoms: C_7  and  N_8
REMARK    3  A    between atoms: N_8  and  C_9
REMARK    4  A    between atoms: C_9  and  C_10
REMARK    5  A    between atoms: C_14  and  C_15
REMARK                            x       y       z     vdW  Elec       q    Type
REMARK                         _______ _______ _______ _____ _____    ______ ____
ROOT
ATOM      1  N   UNL     1      48.530   5.578  16.672  0.00  0.00    +0.000 N 
ATOM      2  H   UNL     1      47.651   5.239  16.287  0.00  0.00    +0.000 HD
ENDROOT
BRANCH   1   6
ATOM      3  C   UNL     1      51.161   2.503  17.464  0.00  0.00    +0.000 A 
ATOM      4  C   UNL     1      49.877   2.236  17.011  0.00  0.00    +0.000 A 
ATOM      5  N   UNL     1      48.966   3.217  16.745  0.00  0.00    +0.000 NA
ATOM      6  C   UNL     1      49.370   4.488  16.957  0.00  0.00    +0.000 A 
ATOM      7  C   UNL     1      50.671   4.733  17.429  0.00  0.00    +0.000 A 
ATOM      8  N   UNL     1      51.593   3.769  17.702  0.00  0.00    +0.000 NA
BRANCH   3  10
ATOM      9  N   UNL     1      51.609   0.207  18.136  0.00  0.00    +0.000 N 
ATOM     10  C   UNL     1      52.126   1.391  17.688  0.00  0.00    +0.000 C 
ATOM     11  O   UNL     1      53.327   1.520  17.469  0.00  0.00    +0.000 OA
ATOM     12  H   UNL     1      52.230  -0.589  18.214  0.00  0.00    +0.000 HD
ATOM     13  H   UNL     1      50.605   0.061  18.150  0.00  0.00    +0.000 HD
ENDBRANCH   3  10
ENDBRANCH   1   6
BRANCH   1  14
ATOM     14  C   UNL     1      49.112   6.618  15.828  0.00  0.00    +0.000 C 
BRANCH  14  15
ATOM     15  C   UNL     1      48.438   6.611  14.471  0.00  0.00    +0.000 A 
ATOM     16  C   UNL     1      48.935   7.384  13.418  0.00  0.00    +0.000 A 
ATOM     17  C   UNL     1      48.290   7.348  12.193  0.00  0.00    +0.000 A 
ATOM     18  N   UNL     1      47.190   6.607  11.947  0.00  0.00    +0.000 NA
ATOM     19  C   UNL     1      46.691   5.851  12.964  0.00  0.00    +0.000 A 
ATOM     20  C   UNL     1      47.304   5.825  14.222  0.00  0.00    +0.000 A 
BRANCH  19  21
ATOM     21  C   UNL     1      45.438   5.108  12.686  0.00  0.00    +0.000 A 
ATOM     22  C   UNL     1      45.424   3.724  12.504  0.00  0.00    +0.000 A 
ATOM     23  C   UNL     1      44.230   3.084  12.182  0.00  0.00    +0.000 A 
ATOM     24  C   UNL     1      43.071   3.834  12.057  0.00  0.00    +0.000 A 
ATOM     25  C   UNL     1      43.153   5.200  12.262  0.00  0.00    +0.000 A 
ATOM     26  N   UNL     1      44.299   5.848  12.570  0.00  0.00    +0.000 NA
ENDBRANCH  19  21
ENDBRANCH  14  15
ENDBRANCH   1  14
TORSDOF 5
ENDMDL
