MODEL 1
REMARK VINA RESULT:    -8.862      0.000      0.000
REMARK INTER + INTRA:         -12.929
REMARK INTER:                 -11.970
REMARK INTRA:                  -0.959
REMARK UNBOUND:                -0.959
REMARK  Name = 
REMARK  6 active torsions:
REMARK  status: ('A' for Active; 'I' for Inactive)
REMARK    1  A    between atoms: C_2  and  C_4
REMARK    2  A    between atoms: C_7  and  C_8
REMARK    3  A    between atoms: C_8  and  C_9
REMARK    4  A    between atoms: C_12  and  C_13
REMARK    5  A    between atoms: C_13  and  N_14
REMARK    6  A    between atoms: C_15  and  C_17
REMARK                            x       y       z     vdW  Elec       q    Type
REMARK                         _______ _______ _______ _____ _____    ______ ____
ROOT
ATOM      1  C   UNL     1      44.850   5.710  11.243  0.00  0.00    +0.000 A 
ATOM      2  C   UNL     1      44.513   7.061  11.398  0.00  0.00    +0.000 A 
ATOM      3  C   UNL     1      45.287   7.902  12.205  0.00  0.00    +0.000 A 
ATOM      4  C   UNL     1      46.422   7.412  12.863  0.00  0.00    +0.000 A 
ATOM      5  C   UNL     1      46.735   6.052  12.741  0.00  0.00    +0.000 A 
ATOM      6  C   UNL     1      45.962   5.212  11.933  0.00  0.00    +0.000 A 
ENDROOT
BRANCH   1   7
ATOM      7  C   UNL     1      44.036   4.809  10.344  0.00  0.00    +0.000 C 
BRANCH   7  11
ATOM      8  C   UNL     1      46.413   2.519   7.660  0.00  0.00    +0.000 A 
ATOM      9  C   UNL     1      45.651   1.833   8.596  0.00  0.00    +0.000 A 
ATOM     10  C   UNL     1      44.861   2.574   9.472  0.00  0.00    +0.000 A 
ATOM     11  C   UNL     1      44.854   3.971   9.393  0.00  0.00    +0.000 A 
ATOM     12  C   UNL     1      45.640   4.559   8.404  0.00  0.00    +0.000 A 
ATOM     13  N   UNL     1      46.427   3.875   7.539  0.00  0.00    +0.000 NA
BRANCH   8  15
ATOM     14  N   UNL     1      48.293   2.471   6.126  0.00  0.00    +0.000 N 
ATOM     15  C   UNL     1      47.293   1.749   6.723  0.00  0.00    +0.000 C 
ATOM     16  O   UNL     1      47.145   0.553   6.502  0.00  0.00    +0.000 OA
ATOM     17  H   UNL     1      48.925   2.016   5.485  0.00  0.00    +0.000 HD
ATOM     18  H   UNL     1      48.390   3.458   6.338  0.00  0.00    +0.000 HD
ENDBRANCH   8  15
ENDBRANCH   7  11
ENDBRANCH   1   7
BRANCH   4  19
ATOM     19  C   UNL     1      47.287   8.320  13.697  0.00  0.00    +0.000 C 
BRANCH  19  20
ATOM     20  N   UNL     1      47.738   7.673  14.901  0.00  0.00    +0.000 N 
ATOM     21  C   UNL     1      48.986   7.104  14.965  0.00  0.00    +0.000 C 
ATOM     22  O   UNL     1      49.779   7.172  14.031  0.00  0.00    +0.000 OA
ATOM     23  H   UNL     1      47.032   7.414  15.584  0.00  0.00    +0.000 HD
BRANCH  21  24
ATOM     24  C   UNL     1      49.354   6.458  16.232  0.00  0.00    +0.000 A 
ATOM     25  C   UNL     1      50.397   6.978  16.989  0.00  0.00    +0.000 A 
ATOM     26  S   UNL     1      50.666   6.143  18.450  0.00  0.00    +0.000 S 
ATOM     27  C   UNL     1      49.435   5.022  18.100  0.00  0.00    +0.000 A 
ATOM     28  N   UNL     1      49.159   4.000  18.953  0.00  0.00    +0.000 NA
ATOM     29  C   UNL     1      48.226   3.205  18.549  0.00  0.00    +0.000 A 
ATOM     30  N   UNL     1      47.538   3.344  17.371  0.00  0.00    +0.000 N 
ATOM     31  C   UNL     1      47.760   4.380  16.494  0.00  0.00    +0.000 A 
ATOM     32  O   UNL     1      47.096   4.500  15.470  0.00  0.00    +0.000 OA
ATOM     33  C   UNL     1      48.812   5.294  16.894  0.00  0.00    +0.000 A 
ATOM     34  H   UNL     1      46.812   2.692  17.117  0.00  0.00    +0.000 HD
ENDBRANCH  21  24
ENDBRANCH  19  20
ENDBRANCH   4  19
TORSDOF 6
ENDMDL
MODEL 2
REMARK VINA RESULT:    -8.163      1.935      2.240
REMARK INTER + INTRA:         -11.984
REMARK INTER:                 -10.978
REMARK INTRA:                  -1.006
REMARK UNBOUND:                -0.959
REMARK  Name = 
REMARK  6 active torsions:
REMARK  status: ('A' for Active; 'I' for Inactive)
REMARK    1  A    between atoms: C_2  and  C_4
REMARK    2  A    between atoms: C_7  and  C_8
REMARK    3  A    between atoms: C_8  and  C_9
REMARK    4  A    between atoms: C_12  and  C_13
REMARK    5  A    between atoms: C_13  and  N_14
REMARK    6  A    between atoms: C_15  and  C_17
REMARK                            x       y       z     vdW  Elec       q    Type
REMARK                         _______ _______ _______ _____ _____    ______ ____
ROOT
ATOM      1  C   UNL     1      45.253   5.611  11.515  0.00  0.00    +0.000 A 
ATOM      2  C   UNL     1      45.241   7.010  11.446  0.00  0.00    +0.000 A 
ATOM      3  C   UNL     1      46.088   7.772  12.257  0.00  0.00    +0.000 A 
ATOM      4  C   UNL     1      46.976   7.150  13.144  0.00  0.00    +0.000 A 
ATOM      5  C   UNL     1      46.958   5.753  13.243  0.00  0.00    +0.000 A 
ATOM      6  C   UNL     1      46.113   4.991  12.431  0.00  0.00    +0.000 A 
ENDROOT
BRANCH   1   7
ATOM      7  C   UNL     1      44.364   4.785  10.614  0.00  0.00    +0.000 C 
BRANCH   7  11
ATOM      8  C   UNL     1      46.484   2.867   7.462  0.00  0.00    +0.000 A 
ATOM      9  C   UNL     1      45.774   2.066   8.346  0.00  0.00    +0.000 A 
ATOM     10  C   UNL     1      45.068   2.686   9.375  0.00  0.00    +0.000 A 
ATOM     11  C   UNL     1      45.091   4.080   9.495  0.00  0.00    +0.000 A 
ATOM     12  C   UNL     1      45.818   4.792   8.543  0.00  0.00    +0.000 A 
ATOM     13  N   UNL     1      46.524   4.227   7.534  0.00  0.00    +0.000 NA
BRANCH   8  15
ATOM     14  N   UNL     1      47.296   2.912   5.176  0.00  0.00    +0.000 N 
ATOM     15  C   UNL     1      47.274   2.228   6.363  0.00  0.00    +0.000 C 
ATOM     16  O   UNL     1      47.873   1.168   6.503  0.00  0.00    +0.000 OA
ATOM     17  H   UNL     1      47.812   2.541   4.393  0.00  0.00    +0.000 HD
ATOM     18  H   UNL     1      46.795   3.791   5.098  0.00  0.00    +0.000 HD
ENDBRANCH   8  15
ENDBRANCH   7  11
ENDBRANCH   1   7
BRANCH   4  19
ATOM     19  C   UNL     1      47.924   7.961  13.988  0.00  0.00    +0.000 C 
BRANCH  19  20
ATOM     20  N   UNL     1      47.957   7.499  15.351  0.00  0.00    +0.000 N 
ATOM     21  C   UNL     1      49.054   6.835  15.839  0.00  0.00    +0.000 C 
ATOM     22  O   UNL     1      50.061   6.658  15.161  0.00  0.00    +0.000 OA
ATOM     23  H   UNL     1      47.070   7.434  15.843  0.00  0.00    +0.000 HD
BRANCH  21  24
ATOM     24  C   UNL     1      48.991   6.392  17.239  0.00  0.00    +0.000 A 
ATOM     25  C   UNL     1      49.445   5.123  17.578  0.00  0.00    +0.000 A 
ATOM     26  S   UNL     1      49.346   4.782  19.245  0.00  0.00    +0.000 S 
ATOM     27  C   UNL     1      48.644   6.297  19.569  0.00  0.00    +0.000 A 
ATOM     28  N   UNL     1      48.280   6.641  20.833  0.00  0.00    +0.000 NA
ATOM     29  C   UNL     1      47.728   7.804  20.931  0.00  0.00    +0.000 A 
ATOM     30  N   UNL     1      47.513   8.657  19.880  0.00  0.00    +0.000 N 
ATOM     31  C   UNL     1      47.893   8.366  18.591  0.00  0.00    +0.000 A 
ATOM     32  O   UNL     1      47.727   9.171  17.681  0.00  0.00    +0.000 OA
ATOM     33  C   UNL     1      48.505   7.062  18.423  0.00  0.00    +0.000 A 
ATOM     34  H   UNL     1      47.083   9.558  20.025  0.00  0.00    +0.000 HD
ENDBRANCH  21  24
ENDBRANCH  19  20
ENDBRANCH   4  19
TORSDOF 6
ENDMDL
MODEL 3
REMARK VINA RESULT:    -7.897      2.082      3.036
REMARK INTER + INTRA:         -11.626
REMARK INTER:                 -10.444
REMARK INTRA:                  -1.182
REMARK UNBOUND:                -0.959
REMARK  Name = 
REMARK  6 active torsions:
REMARK  status: ('A' for Active; 'I' for Inactive)
REMARK    1  A    between atoms: C_2  and  C_4
REMARK    2  A    between atoms: C_7  and  C_8
REMARK    3  A    between atoms: C_8  and  C_9
REMARK    4  A    between atoms: C_12  and  C_13
REMARK    5  A    between atoms: C_13  and  N_14
REMARK    6  A    between atoms: C_15  and  C_17
REMARK                            x       y       z     vdW  Elec       q    Type
REMARK                         _______ _______ _______ _____ _____    ______ ____
ROOT
ATOM      1  C   UNL     1      44.810   5.663  11.281  0.00  0.00    +0.000 A 
ATOM      2  C   UNL     1      44.701   7.045  11.075  0.00  0.00    +0.000 A 
ATOM      3  C   UNL     1      45.423   7.944  11.867  0.00  0.00    +0.000 A 
ATOM      4  C   UNL     1      46.279   7.479  12.873  0.00  0.00    +0.000 A 
ATOM      5  C   UNL     1      46.356   6.100  13.106  0.00  0.00    +0.000 A 
ATOM      6  C   UNL     1      45.636   5.202  12.314  0.00  0.00    +0.000 A 
ENDROOT
BRANCH   1   7
ATOM      7  C   UNL     1      44.058   4.689  10.403  0.00  0.00    +0.000 C 
BRANCH   7  11
ATOM      8  C   UNL     1      46.456   2.337   7.791  0.00  0.00    +0.000 A 
ATOM      9  C   UNL     1      46.445   3.712   7.598  0.00  0.00    +0.000 A 
ATOM     10  C   UNL     1      45.672   4.492   8.455  0.00  0.00    +0.000 A 
ATOM     11  C   UNL     1      44.932   3.882   9.475  0.00  0.00    +0.000 A 
ATOM     12  C   UNL     1      45.028   2.497   9.594  0.00  0.00    +0.000 A 
ATOM     13  N   UNL     1      45.762   1.704   8.777  0.00  0.00    +0.000 NA
BRANCH   8  15
ATOM     14  N   UNL     1      48.332   2.079   6.274  0.00  0.00    +0.000 N 
ATOM     15  C   UNL     1      47.257   1.472   6.868  0.00  0.00    +0.000 C 
ATOM     16  O   UNL     1      46.986   0.296   6.656  0.00  0.00    +0.000 OA
ATOM     17  H   UNL     1      48.918   1.555   5.643  0.00  0.00    +0.000 HD
ATOM     18  H   UNL     1      48.532   3.052   6.480  0.00  0.00    +0.000 HD
ENDBRANCH   8  15
ENDBRANCH   7  11
ENDBRANCH   1   7
BRANCH   4  19
ATOM     19  C   UNL     1      47.096   8.438  13.700  0.00  0.00    +0.000 C 
BRANCH  19  20
ATOM     20  N   UNL     1      48.221   7.787  14.320  0.00  0.00    +0.000 N 
ATOM     21  C   UNL     1      48.616   8.131  15.588  0.00  0.00    +0.000 C 
ATOM     22  O   UNL     1      48.003   8.955  16.259  0.00  0.00    +0.000 OA
ATOM     23  H   UNL     1      48.861   7.284  13.712  0.00  0.00    +0.000 HD
BRANCH  21  24
ATOM     24  C   UNL     1      49.782   7.420  16.133  0.00  0.00    +0.000 A 
ATOM     25  C   UNL     1      49.648   6.683  17.303  0.00  0.00    +0.000 A 
ATOM     26  S   UNL     1      51.077   5.884  17.776  0.00  0.00    +0.000 S 
ATOM     27  C   UNL     1      51.941   6.536  16.464  0.00  0.00    +0.000 A 
ATOM     28  N   UNL     1      53.262   6.261  16.293  0.00  0.00    +0.000 NA
ATOM     29  C   UNL     1      53.802   6.848  15.277  0.00  0.00    +0.000 A 
ATOM     30  N   UNL     1      53.137   7.680  14.413  0.00  0.00    +0.000 N 
ATOM     31  C   UNL     1      51.796   7.960  14.527  0.00  0.00    +0.000 A 
ATOM     32  O   UNL     1      51.223   8.672  13.710  0.00  0.00    +0.000 OA
ATOM     33  C   UNL     1      51.144   7.337  15.663  0.00  0.00    +0.000 A 
ATOM     34  H   UNL     1      53.616   8.102  13.631  0.00  0.00    +0.000 HD
ENDBRANCH  21  24
ENDBRANCH  19  20
ENDBRANCH   4  19
TORSDOF 6
ENDMDL
MODEL 4
REMARK VINA RESULT:    -7.754      2.362      3.954
REMARK INTER + INTRA:         -11.432
REMARK INTER:                 -10.292
REMARK INTRA:                  -1.140
REMARK UNBOUND:                -0.959
REMARK  Name = 
REMARK  6 active torsions:
REMARK  status: ('A' for Active; 'I' for Inactive)
REMARK    1  A    between atoms: C_2  and  C_4
REMARK    2  A    between atoms: C_7  and  C_8
REMARK    3  A    between atoms: C_8  and  C_9
REMARK    4  A    between atoms: C_12  and  C_13
REMARK    5  A    between atoms: C_13  and  N_14
REMARK    6  A    between atoms: C_15  and  C_17
REMARK                            x       y       z     vdW  Elec       q    Type
REMARK                         _______ _______ _______ _____ _____    ______ ____
ROOT
ATOM      1  C   UNL     1      44.894   3.921  11.892  0.00  0.00    +0.000 A 
ATOM      2  C   UNL     1      44.702   5.181  12.475  0.00  0.00    +0.000 A 
ATOM      3  C   UNL     1      45.460   5.579  13.581  0.00  0.00    +0.000 A 
ATOM      4  C   UNL     1      46.436   4.730  14.120  0.00  0.00    +0.000 A 
ATOM      5  C   UNL     1      46.598   3.455  13.563  0.00  0.00    +0.000 A 
ATOM      6  C   UNL     1      45.842   3.058  12.457  0.00  0.00    +0.000 A 
ENDROOT
BRANCH   1   7
ATOM      7  C   UNL     1      44.101   3.504  10.676  0.00  0.00    +0.000 C 
BRANCH   7  11
ATOM      8  C   UNL     1      46.499   2.881   7.217  0.00  0.00    +0.000 A 
ATOM      9  C   UNL     1      46.090   1.763   7.931  0.00  0.00    +0.000 A 
ATOM     10  C   UNL     1      45.295   1.956   9.059  0.00  0.00    +0.000 A 
ATOM     11  C   UNL     1      44.934   3.252   9.443  0.00  0.00    +0.000 A 
ATOM     12  C   UNL     1      45.381   4.304   8.645  0.00  0.00    +0.000 A 
ATOM     13  N   UNL     1      46.161   4.158   7.547  0.00  0.00    +0.000 NA
BRANCH   8  15
ATOM     14  N   UNL     1      48.680   2.379   6.280  0.00  0.00    +0.000 N 
ATOM     15  C   UNL     1      47.376   2.705   6.016  0.00  0.00    +0.000 C 
ATOM     16  O   UNL     1      46.966   2.833   4.868  0.00  0.00    +0.000 OA
ATOM     17  H   UNL     1      49.327   2.242   5.518  0.00  0.00    +0.000 HD
ATOM     18  H   UNL     1      48.983   2.273   7.242  0.00  0.00    +0.000 HD
ENDBRANCH   8  15
ENDBRANCH   7  11
ENDBRANCH   1   7
BRANCH   4  19
ATOM     19  C   UNL     1      47.289   5.168  15.281  0.00  0.00    +0.000 C 
BRANCH  19  20
ATOM     20  N   UNL     1      48.063   6.341  14.966  0.00  0.00    +0.000 N 
ATOM     21  C   UNL     1      49.304   6.529  15.520  0.00  0.00    +0.000 C 
ATOM     22  O   UNL     1      49.824   5.691  16.251  0.00  0.00    +0.000 OA
ATOM     23  H   UNL     1      47.569   7.129  14.559  0.00  0.00    +0.000 HD
BRANCH  21  24
ATOM     24  C   UNL     1      50.014   7.760  15.148  0.00  0.00    +0.000 A 
ATOM     25  C   UNL     1      50.506   8.595  16.144  0.00  0.00    +0.000 A 
ATOM     26  S   UNL     1      51.343   9.955  15.548  0.00  0.00    +0.000 S 
ATOM     27  C   UNL     1      51.033   9.507  13.936  0.00  0.00    +0.000 A 
ATOM     28  N   UNL     1      51.465  10.278  12.903  0.00  0.00    +0.000 NA
ATOM     29  C   UNL     1      51.132   9.840  11.734  0.00  0.00    +0.000 A 
ATOM     30  N   UNL     1      50.412   8.695  11.507  0.00  0.00    +0.000 N 
ATOM     31  C   UNL     1      49.984   7.867  12.518  0.00  0.00    +0.000 A 
ATOM     32  O   UNL     1      49.381   6.827  12.277  0.00  0.00    +0.000 OA
ATOM     33  C   UNL     1      50.318   8.324  13.853  0.00  0.00    +0.000 A 
ATOM     34  H   UNL     1      50.192   8.402  10.567  0.00  0.00    +0.000 HD
ENDBRANCH  21  24
ENDBRANCH  19  20
ENDBRANCH   4  19
TORSDOF 6
ENDMDL
MODEL 5
REMARK VINA RESULT:    -7.446      3.943      8.634
REMARK INTER + INTRA:         -11.016
REMARK INTER:                  -9.917
REMARK INTRA:                  -1.099
REMARK UNBOUND:                -0.959
REMARK  Name = 
REMARK  6 active torsions:
REMARK  status: ('A' for Active; 'I' for Inactive)
REMARK    1  A    between atoms: C_2  and  C_4
REMARK    2  A    between atoms: C_7  and  C_8
REMARK    3  A    between atoms: C_8  and  C_9
REMARK    4  A    between atoms: C_12  and  C_13
REMARK    5  A    between atoms: C_13  and  N_14
REMARK    6  A    between atoms: C_15  and  C_17
REMARK                            x       y       z     vdW  Elec       q    Type
REMARK                         _______ _______ _______ _____ _____    ______ ____
ROOT
ATOM      1  C   UNL     1      49.611   5.578  17.052  0.00  0.00    +0.000 A 
ATOM      2  C   UNL     1      48.377   5.193  16.510  0.00  0.00    +0.000 A 
ATOM      3  C   UNL     1      47.917   5.754  15.315  0.00  0.00    +0.000 A 
ATOM      4  C   UNL     1      48.687   6.702  14.629  0.00  0.00    +0.000 A 
ATOM      5  C   UNL     1      49.900   7.117  15.192  0.00  0.00    +0.000 A 
ATOM      6  C   UNL     1      50.361   6.555  16.386  0.00  0.00    +0.000 A 
ENDROOT
BRANCH   1   7
ATOM      7  C   UNL     1      50.126   4.946  18.325  0.00  0.00    +0.000 C 
BRANCH   7  11
ATOM      8  C   UNL     1      52.609   1.530  17.814  0.00  0.00    +0.000 A 
ATOM      9  C   UNL     1      51.325   1.480  17.290  0.00  0.00    +0.000 A 
ATOM     10  C   UNL     1      50.508   2.598  17.443  0.00  0.00    +0.000 A 
ATOM     11  C   UNL     1      50.991   3.729  18.113  0.00  0.00    +0.000 A 
ATOM     12  C   UNL     1      52.302   3.681  18.583  0.00  0.00    +0.000 A 
ATOM     13  N   UNL     1      53.124   2.611  18.462  0.00  0.00    +0.000 NA
BRANCH   8  15
ATOM     14  N   UNL     1      53.223  -0.702  18.543  0.00  0.00    +0.000 N 
ATOM     15  C   UNL     1      53.501   0.333  17.689  0.00  0.00    +0.000 C 
ATOM     16  O   UNL     1      54.415   0.266  16.876  0.00  0.00    +0.000 OA
ATOM     17  H   UNL     1      53.781  -1.542  18.511  0.00  0.00    +0.000 HD
ATOM     18  H   UNL     1      52.453  -0.616  19.197  0.00  0.00    +0.000 HD
ENDBRANCH   8  15
ENDBRANCH   7  11
ENDBRANCH   1   7
BRANCH   4  19
ATOM     19  C   UNL     1      48.220   7.277  13.317  0.00  0.00    +0.000 C 
BRANCH  19  20
ATOM     20  N   UNL     1      47.497   6.309  12.534  0.00  0.00    +0.000 N 
ATOM     21  C   UNL     1      46.435   6.693  11.754  0.00  0.00    +0.000 C 
ATOM     22  O   UNL     1      46.097   7.868  11.648  0.00  0.00    +0.000 OA
ATOM     23  H   UNL     1      47.612   5.331  12.780  0.00  0.00    +0.000 HD
BRANCH  21  24
ATOM     24  C   UNL     1      45.751   5.633  11.000  0.00  0.00    +0.000 A 
ATOM     25  C   UNL     1      45.816   5.631   9.611  0.00  0.00    +0.000 A 
ATOM     26  S   UNL     1      45.012   4.312   8.891  0.00  0.00    +0.000 S 
ATOM     27  C   UNL     1      44.502   3.725  10.403  0.00  0.00    +0.000 A 
ATOM     28  N   UNL     1      43.733   2.608  10.495  0.00  0.00    +0.000 NA
ATOM     29  C   UNL     1      43.389   2.294  11.700  0.00  0.00    +0.000 A 
ATOM     30  N   UNL     1      43.752   2.994  12.822  0.00  0.00    +0.000 N 
ATOM     31  C   UNL     1      44.556   4.108  12.781  0.00  0.00    +0.000 A 
ATOM     32  O   UNL     1      44.899   4.684  13.808  0.00  0.00    +0.000 OA
ATOM     33  C   UNL     1      44.957   4.514  11.447  0.00  0.00    +0.000 A 
ATOM     34  H   UNL     1      43.457   2.690  13.738  0.00  0.00    +0.000 HD
ENDBRANCH  21  24
ENDBRANCH  19  20
ENDBRANCH   4  19
TORSDOF 6
ENDMDL
MODEL 6
REMARK VINA RESULT:    -7.390      3.778      4.666
REMARK INTER + INTRA:         -10.941
REMARK INTER:                  -9.827
REMARK INTRA:                  -1.114
REMARK UNBOUND:                -0.959
REMARK  Name = 
REMARK  6 active torsions:
REMARK  status: ('A' for Active; 'I' for Inactive)
REMARK    1  A    between atoms: C_2  and  C_4
REMARK    2  A    between atoms: C_7  and  C_8
REMARK    3  A    between atoms: C_8  and  C_9
REMARK    4  A    between atoms: C_12  and  C_13
REMARK    5  A    between atoms: C_13  and  N_14
REMARK    6  A    between atoms: C_15  and  C_17
REMARK                            x       y       z     vdW  Elec       q    Type
REMARK                         _______ _______ _______ _____ _____    ______ ____
ROOT
ATOM      1  C   UNL     1      44.743   5.023  11.285  0.00  0.00    +0.000 A 
ATOM      2  C   UNL     1      45.753   5.045  12.256  0.00  0.00    +0.000 A 
ATOM      3  C   UNL     1      46.124   6.244  12.873  0.00  0.00    +0.000 A 
ATOM      4  C   UNL     1      45.484   7.445  12.541  0.00  0.00    +0.000 A 
ATOM      5  C   UNL     1      44.504   7.429  11.541  0.00  0.00    +0.000 A 
ATOM      6  C   UNL     1      44.132   6.231  10.926  0.00  0.00    +0.000 A 
ENDROOT
BRANCH   1   7
ATOM      7  C   UNL     1      44.316   3.723  10.644  0.00  0.00    +0.000 C 
BRANCH   7  11
ATOM      8  C   UNL     1      46.529   2.785   7.133  0.00  0.00    +0.000 A 
ATOM      9  C   UNL     1      46.243   1.750   8.014  0.00  0.00    +0.000 A 
ATOM     10  C   UNL     1      45.510   2.045   9.161  0.00  0.00    +0.000 A 
ATOM     11  C   UNL     1      45.085   3.358   9.398  0.00  0.00    +0.000 A 
ATOM     12  C   UNL     1      45.409   4.318   8.441  0.00  0.00    +0.000 A 
ATOM     13  N   UNL     1      46.126   4.072   7.318  0.00  0.00    +0.000 NA
BRANCH   8  15
ATOM     14  N   UNL     1      48.581   1.969   6.128  0.00  0.00    +0.000 N 
ATOM     15  C   UNL     1      47.339   2.502   5.905  0.00  0.00    +0.000 C 
ATOM     16  O   UNL     1      46.928   2.720   4.772  0.00  0.00    +0.000 OA
ATOM     17  H   UNL     1      49.180   1.750   5.346  0.00  0.00    +0.000 HD
ATOM     18  H   UNL     1      48.886   1.794   7.079  0.00  0.00    +0.000 HD
ENDBRANCH   8  15
ENDBRANCH   7  11
ENDBRANCH   1   7
BRANCH   4  19
ATOM     19  C   UNL     1      45.845   8.733  13.233  0.00  0.00    +0.000 C 
BRANCH  19  20
ATOM     20  N   UNL     1      47.258   9.001  13.164  0.00  0.00    +0.000 N 
ATOM     21  C   UNL     1      47.733  10.071  12.449  0.00  0.00    +0.000 C 
ATOM     22  O   UNL     1      46.982  10.868  11.894  0.00  0.00    +0.000 OA
ATOM     23  H   UNL     1      47.889   8.245  13.416  0.00  0.00    +0.000 HD
BRANCH  21  24
ATOM     24  C   UNL     1      49.191  10.258  12.427  0.00  0.00    +0.000 A 
ATOM     25  C   UNL     1      49.732  11.473  12.830  0.00  0.00    +0.000 A 
ATOM     26  S   UNL     1      51.435  11.512  12.789  0.00  0.00    +0.000 S 
ATOM     27  C   UNL     1      51.511   9.925  12.182  0.00  0.00    +0.000 A 
ATOM     28  N   UNL     1      52.707   9.344  11.895  0.00  0.00    +0.000 NA
ATOM     29  C   UNL     1      52.618   8.151  11.408  0.00  0.00    +0.000 A 
ATOM     30  N   UNL     1      51.440   7.484  11.190  0.00  0.00    +0.000 N 
ATOM     31  C   UNL     1      50.210   8.017  11.496  0.00  0.00    +0.000 A 
ATOM     32  O   UNL     1      49.179   7.376  11.330  0.00  0.00    +0.000 OA
ATOM     33  C   UNL     1      50.254   9.365  12.031  0.00  0.00    +0.000 A 
ATOM     34  H   UNL     1      51.439   6.548  10.814  0.00  0.00    +0.000 HD
ENDBRANCH  21  24
ENDBRANCH  19  20
ENDBRANCH   4  19
TORSDOF 6
ENDMDL
MODEL 7
REMARK VINA RESULT:    -7.226      5.023      7.455
REMARK INTER + INTRA:         -10.719
REMARK INTER:                  -9.680
REMARK INTRA:                  -1.039
REMARK UNBOUND:                -0.959
REMARK  Name = 
REMARK  6 active torsions:
REMARK  status: ('A' for Active; 'I' for Inactive)
REMARK    1  A    between atoms: C_2  and  C_4
REMARK    2  A    between atoms: C_7  and  C_8
REMARK    3  A    between atoms: C_8  and  C_9
REMARK    4  A    between atoms: C_12  and  C_13
REMARK    5  A    between atoms: C_13  and  N_14
REMARK    6  A    between atoms: C_15  and  C_17
REMARK                            x       y       z     vdW  Elec       q    Type
REMARK                         _______ _______ _______ _____ _____    ______ ____
ROOT
ATOM      1  C   UNL     1      50.972   8.629  11.178  0.00  0.00    +0.000 A 
ATOM      2  C   UNL     1      50.403   7.389  11.496  0.00  0.00    +0.000 A 
ATOM      3  C   UNL     1      49.073   7.302  11.922  0.00  0.00    +0.000 A 
ATOM      4  C   UNL     1      48.281   8.452  12.026  0.00  0.00    +0.000 A 
ATOM      5  C   UNL     1      48.863   9.696  11.748  0.00  0.00    +0.000 A 
ATOM      6  C   UNL     1      50.190   9.783  11.321  0.00  0.00    +0.000 A 
ENDROOT
BRANCH   1   7
ATOM      7  C   UNL     1      52.397   8.721  10.683  0.00  0.00    +0.000 C 
BRANCH   7  11
ATOM      8  C   UNL     1      53.458   5.686   7.896  0.00  0.00    +0.000 A 
ATOM      9  C   UNL     1      52.709   6.758   7.432  0.00  0.00    +0.000 A 
ATOM     10  C   UNL     1      52.366   7.763   8.334  0.00  0.00    +0.000 A 
ATOM     11  C   UNL     1      52.775   7.670   9.669  0.00  0.00    +0.000 A 
ATOM     12  C   UNL     1      53.541   6.561  10.028  0.00  0.00    +0.000 A 
ATOM     13  N   UNL     1      53.888   5.561   9.182  0.00  0.00    +0.000 NA
BRANCH   8  15
ATOM     14  N   UNL     1      54.472   3.514   7.519  0.00  0.00    +0.000 N 
ATOM     15  C   UNL     1      53.819   4.579   6.955  0.00  0.00    +0.000 C 
ATOM     16  O   UNL     1      53.548   4.606   5.761  0.00  0.00    +0.000 OA
ATOM     17  H   UNL     1      54.742   2.730   6.944  0.00  0.00    +0.000 HD
ATOM     18  H   UNL     1      54.673   3.522   8.513  0.00  0.00    +0.000 HD
ENDBRANCH   8  15
ENDBRANCH   7  11
ENDBRANCH   1   7
BRANCH   4  19
ATOM     19  C   UNL     1      46.836   8.364  12.440  0.00  0.00    +0.000 C 
BRANCH  19  20
ATOM     20  N   UNL     1      46.303   7.040  12.247  0.00  0.00    +0.000 N 
ATOM     21  C   UNL     1      45.122   6.852  11.575  0.00  0.00    +0.000 C 
ATOM     22  O   UNL     1      44.507   7.785  11.067  0.00  0.00    +0.000 OA
ATOM     23  H   UNL     1      46.667   6.300  12.840  0.00  0.00    +0.000 HD
BRANCH  21  24
ATOM     24  C   UNL     1      44.652   5.466  11.437  0.00  0.00    +0.000 A 
ATOM     25  C   UNL     1      43.921   4.885  12.465  0.00  0.00    +0.000 A 
ATOM     26  S   UNL     1      43.413   3.293  12.131  0.00  0.00    +0.000 S 
ATOM     27  C   UNL     1      44.197   3.302  10.622  0.00  0.00    +0.000 A 
ATOM     28  N   UNL     1      44.174   2.206   9.817  0.00  0.00    +0.000 NA
ATOM     29  C   UNL     1      44.838   2.337   8.717  0.00  0.00    +0.000 A 
ATOM     30  N   UNL     1      45.517   3.469   8.346  0.00  0.00    +0.000 N 
ATOM     31  C   UNL     1      45.539   4.612   9.111  0.00  0.00    +0.000 A 
ATOM     32  O   UNL     1      46.118   5.622   8.728  0.00  0.00    +0.000 OA
ATOM     33  C   UNL     1      44.821   4.511  10.367  0.00  0.00    +0.000 A 
ATOM     34  H   UNL     1      46.010   3.511   7.467  0.00  0.00    +0.000 HD
ENDBRANCH  21  24
ENDBRANCH  19  20
ENDBRANCH   4  19
TORSDOF 6
ENDMDL
MODEL 8
REMARK VINA RESULT:    -6.933      5.651      7.791
REMARK INTER + INTRA:         -10.324
REMARK INTER:                  -9.304
REMARK INTRA:                  -1.020
REMARK UNBOUND:                -0.959
REMARK  Name = 
REMARK  6 active torsions:
REMARK  status: ('A' for Active; 'I' for Inactive)
REMARK    1  A    between atoms: C_2  and  C_4
REMARK    2  A    between atoms: C_7  and  C_8
REMARK    3  A    between atoms: C_8  and  C_9
REMARK    4  A    between atoms: C_12  and  C_13
REMARK    5  A    between atoms: C_13  and  N_14
REMARK    6  A    between atoms: C_15  and  C_17
REMARK                            x       y       z     vdW  Elec       q    Type
REMARK                         _______ _______ _______ _____ _____    ______ ____
ROOT
ATOM      1  C   UNL     1      47.514   8.201  12.467  0.00  0.00    +0.000 A 
ATOM      2  C   UNL     1      47.968   9.501  12.209  0.00  0.00    +0.000 A 
ATOM      3  C   UNL     1      49.309   9.739  11.891  0.00  0.00    +0.000 A 
ATOM      4  C   UNL     1      50.222   8.680  11.812  0.00  0.00    +0.000 A 
ATOM      5  C   UNL     1      49.778   7.386  12.111  0.00  0.00    +0.000 A 
ATOM      6  C   UNL     1      48.437   7.148  12.427  0.00  0.00    +0.000 A 
ENDROOT
BRANCH   1   7
ATOM      7  C   UNL     1      46.059   7.937  12.775  0.00  0.00    +0.000 C 
BRANCH   7  11
ATOM      8  C   UNL     1      44.547   4.194  11.432  0.00  0.00    +0.000 A 
ATOM      9  C   UNL     1      44.850   5.151  10.474  0.00  0.00    +0.000 A 
ATOM     10  C   UNL     1      45.356   6.376  10.903  0.00  0.00    +0.000 A 
ATOM     11  C   UNL     1      45.543   6.613  12.270  0.00  0.00    +0.000 A 
ATOM     12  C   UNL     1      45.225   5.578  13.147  0.00  0.00    +0.000 A 
ATOM     13  N   UNL     1      44.724   4.377  12.770  0.00  0.00    +0.000 NA
BRANCH   8  15
ATOM     14  N   UNL     1      44.665   2.233  10.008  0.00  0.00    +0.000 N 
ATOM     15  C   UNL     1      43.977   2.878  11.002  0.00  0.00    +0.000 C 
ATOM     16  O   UNL     1      42.968   2.394  11.501  0.00  0.00    +0.000 OA
ATOM     17  H   UNL     1      44.339   1.340   9.671  0.00  0.00    +0.000 HD
ATOM     18  H   UNL     1      45.501   2.659   9.623  0.00  0.00    +0.000 HD
ENDBRANCH   8  15
ENDBRANCH   7  11
ENDBRANCH   1   7
BRANCH   4  19
ATOM     19  C   UNL     1      51.658   8.922  11.425  0.00  0.00    +0.000 C 
BRANCH  19  20
ATOM     20  N   UNL     1      51.964   8.370  10.131  0.00  0.00    +0.000 N 
ATOM     21  C   UNL     1      53.096   8.755   9.457  0.00  0.00    +0.000 C 
ATOM     22  O   UNL     1      53.912   9.530   9.946  0.00  0.00    +0.000 OA
ATOM     23  H   UNL     1      51.208   7.917   9.627  0.00  0.00    +0.000 HD
BRANCH  21  24
ATOM     24  C   UNL     1      53.319   8.146   8.138  0.00  0.00    +0.000 A 
ATOM     25  C   UNL     1      53.305   8.948   7.003  0.00  0.00    +0.000 A 
ATOM     26  S   UNL     1      53.626   8.098   5.561  0.00  0.00    +0.000 S 
ATOM     27  C   UNL     1      53.742   6.620   6.393  0.00  0.00    +0.000 A 
ATOM     28  N   UNL     1      53.982   5.460   5.725  0.00  0.00    +0.000 NA
ATOM     29  C   UNL     1      54.011   4.408   6.474  0.00  0.00    +0.000 A 
ATOM     30  N   UNL     1      53.829   4.414   7.832  0.00  0.00    +0.000 N 
ATOM     31  C   UNL     1      53.617   5.564   8.554  0.00  0.00    +0.000 A 
ATOM     32  O   UNL     1      53.504   5.539   9.775  0.00  0.00    +0.000 OA
ATOM     33  C   UNL     1      53.559   6.774   7.757  0.00  0.00    +0.000 A 
ATOM     34  H   UNL     1      53.873   3.556   8.363  0.00  0.00    +0.000 HD
ENDBRANCH  21  24
ENDBRANCH  19  20
ENDBRANCH   4  19
TORSDOF 6
ENDMDL
MODEL 9
REMARK VINA RESULT:    -6.769      3.152      4.269
REMARK INTER + INTRA:         -10.102
REMARK INTER:                  -9.158
REMARK INTRA:                  -0.944
REMARK UNBOUND:                -0.959
REMARK  Name = 
REMARK  6 active torsions:
REMARK  status: ('A' for Active; 'I' for Inactive)
REMARK    1  A    between atoms: C_2  and  C_4
REMARK    2  A    between atoms: C_7  and  C_8
REMARK    3  A    between atoms: C_8  and  C_9
REMARK    4  A    between atoms: C_12  and  C_13
REMARK    5  A    between atoms: C_13  and  N_14
REMARK    6  A    between atoms: C_15  and  C_17
REMARK                            x       y       z     vdW  Elec       q    Type
REMARK                         _______ _______ _______ _____ _____    ______ ____
ROOT
ATOM      1  C   UNL     1      47.686   7.743  13.458  0.00  0.00    +0.000 A 
ATOM      2  C   UNL     1      47.470   8.852  14.286  0.00  0.00    +0.000 A 
ATOM      3  C   UNL     1      48.089   8.941  15.537  0.00  0.00    +0.000 A 
ATOM      4  C   UNL     1      48.948   7.928  15.981  0.00  0.00    +0.000 A 
ATOM      5  C   UNL     1      49.132   6.800  15.171  0.00  0.00    +0.000 A 
ATOM      6  C   UNL     1      48.514   6.712  13.921  0.00  0.00    +0.000 A 
ENDROOT
BRANCH   1   7
ATOM      7  C   UNL     1      47.046   7.662  12.091  0.00  0.00    +0.000 C 
BRANCH   7  11
ATOM      8  C   UNL     1      44.690   4.187  11.402  0.00  0.00    +0.000 A 
ATOM      9  C   UNL     1      44.805   4.643  12.708  0.00  0.00    +0.000 A 
ATOM     10  C   UNL     1      45.565   5.786  12.942  0.00  0.00    +0.000 A 
ATOM     11  C   UNL     1      46.190   6.440  11.874  0.00  0.00    +0.000 A 
ATOM     12  C   UNL     1      45.995   5.911  10.599  0.00  0.00    +0.000 A 
ATOM     13  N   UNL     1      45.270   4.797  10.331  0.00  0.00    +0.000 NA
BRANCH   8  15
ATOM     14  N   UNL     1      44.299   2.227  10.025  0.00  0.00    +0.000 N 
ATOM     15  C   UNL     1      43.901   2.945  11.123  0.00  0.00    +0.000 C 
ATOM     16  O   UNL     1      42.967   2.578  11.825  0.00  0.00    +0.000 OA
ATOM     17  H   UNL     1      43.814   1.377   9.780  0.00  0.00    +0.000 HD
ATOM     18  H   UNL     1      45.082   2.556   9.471  0.00  0.00    +0.000 HD
ENDBRANCH   8  15
ENDBRANCH   7  11
ENDBRANCH   1   7
BRANCH   4  19
ATOM     19  C   UNL     1      49.655   8.037  17.306  0.00  0.00    +0.000 C 
BRANCH  19  20
ATOM     20  N   UNL     1      50.600   6.968  17.499  0.00  0.00    +0.000 N 
ATOM     21  C   UNL     1      50.358   5.978  18.418  0.00  0.00    +0.000 C 
ATOM     22  O   UNL     1      49.316   5.932  19.065  0.00  0.00    +0.000 OA
ATOM     23  H   UNL     1      51.543   7.111  17.151  0.00  0.00    +0.000 HD
BRANCH  21  24
ATOM     24  C   UNL     1      51.385   4.935  18.553  0.00  0.00    +0.000 A 
ATOM     25  C   UNL     1      52.574   5.225  19.211  0.00  0.00    +0.000 A 
ATOM     26  S   UNL     1      53.637   3.898  19.321  0.00  0.00    +0.000 S 
ATOM     27  C   UNL     1      52.571   2.901  18.447  0.00  0.00    +0.000 A 
ATOM     28  N   UNL     1      52.897   1.612  18.162  0.00  0.00    +0.000 NA
ATOM     29  C   UNL     1      52.014   0.980  17.464  0.00  0.00    +0.000 A 
ATOM     30  N   UNL     1      50.830   1.520  17.031  0.00  0.00    +0.000 N 
ATOM     31  C   UNL     1      50.443   2.807  17.323  0.00  0.00    +0.000 A 
ATOM     32  O   UNL     1      49.357   3.244  16.959  0.00  0.00    +0.000 OA
ATOM     33  C   UNL     1      51.410   3.566  18.093  0.00  0.00    +0.000 A 
ATOM     34  H   UNL     1      50.176   0.969  16.495  0.00  0.00    +0.000 HD
ENDBRANCH  21  24
ENDBRANCH  19  20
ENDBRANCH   4  19
TORSDOF 6
ENDMDL
