MODEL 1
REMARK VINA RESULT:    -8.937      0.000      0.000
REMARK INTER + INTRA:         -12.450
REMARK INTER:                 -11.549
REMARK INTRA:                  -0.902
REMARK UNBOUND:                -0.902
REMARK  Name = 
REMARK  5 active torsions:
REMARK  status: ('A' for Active; 'I' for Inactive)
REMARK    1  A    between atoms: C_2  and  C_3
REMARK    2  A    between atoms: C_6  and  N_7
REMARK    3  A    between atoms: N_7  and  C_8
REMARK    4  A    between atoms: C_8  and  C_9
REMARK    5  A    between atoms: C_13  and  C_14
REMARK                            x       y       z     vdW  Elec       q    Type
REMARK                         _______ _______ _______ _____ _____    ______ ____
ROOT
ATOM      1  C   UNL     1      44.172   4.675  11.715  0.00  0.00    +0.000 C 
ATOM      2  C   UNL     1      43.394   3.678  12.562  0.00  0.00    +0.000 C 
ATOM      3  C   UNL     1      43.048   5.123  12.652  0.00  0.00    +0.000 C 
ENDROOT
BRANCH   1   4
ATOM      4  C   UNL     1      45.511   5.247  12.166  0.00  0.00    +0.000 A 
ATOM      5  C   UNL     1      46.057   6.380  11.535  0.00  0.00    +0.000 A 
ATOM      6  C   UNL     1      47.096   7.099  12.120  0.00  0.00    +0.000 A 
ATOM      7  C   UNL     1      47.615   6.687  13.348  0.00  0.00    +0.000 A 
ATOM      8  C   UNL     1      47.154   5.523  13.979  0.00  0.00    +0.000 A 
ATOM      9  C   UNL     1      46.134   4.794  13.338  0.00  0.00    +0.000 A 
BRANCH   8  10
ATOM     10  C   UNL     1      47.619   5.120  15.319  0.00  0.00    +0.000 A 
ATOM     11  C   UNL     1      48.626   5.832  15.996  0.00  0.00    +0.000 A 
ATOM     12  C   UNL     1      49.114   5.408  17.238  0.00  0.00    +0.000 A 
ATOM     13  C   UNL     1      48.598   4.266  17.835  0.00  0.00    +0.000 A 
ATOM     14  C   UNL     1      47.600   3.552  17.177  0.00  0.00    +0.000 A 
ATOM     15  F   UNL     1      47.107   2.436  17.734  0.00  0.00    +0.000 F 
ATOM     16  C   UNL     1      47.115   3.962  15.939  0.00  0.00    +0.000 A 
ENDBRANCH   8  10
ENDBRANCH   1   4
BRANCH   1  17
ATOM     17  N   UNL     1      43.967   4.649  10.260  0.00  0.00    +0.000 N 
ATOM     18  H   UNL     1      43.034   4.830   9.906  0.00  0.00    +0.000 HD
BRANCH  17  22
ATOM     19  C   UNL     1      46.613   2.683   7.599  0.00  0.00    +0.000 A 
ATOM     20  C   UNL     1      45.831   1.928   8.475  0.00  0.00    +0.000 A 
ATOM     21  C   UNL     1      44.954   2.565   9.360  0.00  0.00    +0.000 A 
ATOM     22  C   UNL     1      44.801   3.957   9.359  0.00  0.00    +0.000 A 
ATOM     23  C   UNL     1      45.609   4.702   8.486  0.00  0.00    +0.000 A 
ATOM     24  C   UNL     1      46.508   4.075   7.614  0.00  0.00    +0.000 A 
BRANCH  19  26
ATOM     25  N   UNL     1      48.276   1.511   5.989  0.00  0.00    +0.000 NA
ATOM     26  C   UNL     1      47.528   2.036   6.709  0.00  0.00    +0.000 C 
ENDBRANCH  19  26
ENDBRANCH  17  22
ENDBRANCH   1  17
TORSDOF 5
ENDMDL
MODEL 2
REMARK VINA RESULT:    -8.458      2.718      4.229
REMARK INTER + INTRA:         -11.832
REMARK INTER:                 -10.723
REMARK INTRA:                  -1.109
REMARK UNBOUND:                -0.902
REMARK  Name = 
REMARK  5 active torsions:
REMARK  status: ('A' for Active; 'I' for Inactive)
REMARK    1  A    between atoms: C_2  and  C_3
REMARK    2  A    between atoms: C_6  and  N_7
REMARK    3  A    between atoms: N_7  and  C_8
REMARK    4  A    between atoms: C_8  and  C_9
REMARK    5  A    between atoms: C_13  and  C_14
REMARK                            x       y       z     vdW  Elec       q    Type
REMARK                         _______ _______ _______ _____ _____    ______ ____
ROOT
ATOM      1  C   UNL     1      43.960   4.815  11.525  0.00  0.00    +0.000 C 
ATOM      2  C   UNL     1      43.057   3.695  12.022  0.00  0.00    +0.000 C 
ATOM      3  C   UNL     1      42.654   5.106  12.268  0.00  0.00    +0.000 C 
ENDROOT
BRANCH   1   4
ATOM      4  C   UNL     1      45.160   5.303  12.330  0.00  0.00    +0.000 A 
ATOM      5  C   UNL     1      45.905   4.410  13.120  0.00  0.00    +0.000 A 
ATOM      6  C   UNL     1      47.166   4.753  13.601  0.00  0.00    +0.000 A 
ATOM      7  C   UNL     1      47.699   6.009  13.305  0.00  0.00    +0.000 A 
ATOM      8  C   UNL     1      46.963   6.960  12.583  0.00  0.00    +0.000 A 
ATOM      9  C   UNL     1      45.674   6.596  12.152  0.00  0.00    +0.000 A 
BRANCH   8  10
ATOM     10  C   UNL     1      47.539   8.255  12.177  0.00  0.00    +0.000 A 
ATOM     11  C   UNL     1      46.766   9.430  12.147  0.00  0.00    +0.000 A 
ATOM     12  C   UNL     1      47.296  10.645  11.696  0.00  0.00    +0.000 A 
ATOM     13  C   UNL     1      48.616  10.713  11.273  0.00  0.00    +0.000 A 
ATOM     14  C   UNL     1      49.394   9.558  11.298  0.00  0.00    +0.000 A 
ATOM     15  F   UNL     1      50.665   9.606  10.873  0.00  0.00    +0.000 F 
ATOM     16  C   UNL     1      48.872   8.346  11.737  0.00  0.00    +0.000 A 
ENDBRANCH   8  10
ENDBRANCH   1   4
BRANCH   1  17
ATOM     17  N   UNL     1      44.058   5.026  10.074  0.00  0.00    +0.000 N 
ATOM     18  H   UNL     1      43.287   5.488   9.606  0.00  0.00    +0.000 HD
BRANCH  17  22
ATOM     19  C   UNL     1      46.662   2.820   7.565  0.00  0.00    +0.000 A 
ATOM     20  C   UNL     1      45.741   2.143   8.366  0.00  0.00    +0.000 A 
ATOM     21  C   UNL     1      44.876   2.860   9.201  0.00  0.00    +0.000 A 
ATOM     22  C   UNL     1      44.876   4.260   9.220  0.00  0.00    +0.000 A 
ATOM     23  C   UNL     1      45.822   4.924   8.424  0.00  0.00    +0.000 A 
ATOM     24  C   UNL     1      46.708   4.214   7.604  0.00  0.00    +0.000 A 
BRANCH  19  26
ATOM     25  N   UNL     1      48.302   1.496   6.052  0.00  0.00    +0.000 NA
ATOM     26  C   UNL     1      47.565   2.089   6.728  0.00  0.00    +0.000 C 
ENDBRANCH  19  26
ENDBRANCH  17  22
ENDBRANCH   1  17
TORSDOF 5
ENDMDL
MODEL 3
REMARK VINA RESULT:    -8.060      3.058      3.615
REMARK INTER + INTRA:         -11.318
REMARK INTER:                 -10.390
REMARK INTRA:                  -0.927
REMARK UNBOUND:                -0.902
REMARK  Name = 
REMARK  5 active torsions:
REMARK  status: ('A' for Active; 'I' for Inactive)
REMARK    1  A    between atoms: C_2  and  C_3
REMARK    2  A    between atoms: C_6  and  N_7
REMARK    3  A    between atoms: N_7  and  C_8
REMARK    4  A    between atoms: C_8  and  C_9
REMARK    5  A    between atoms: C_13  and  C_14
REMARK                            x       y       z     vdW  Elec       q    Type
REMARK                         _______ _______ _______ _____ _____    ______ ____
ROOT
ATOM      1  C   UNL     1      44.582   4.564  11.552  0.00  0.00    +0.000 C 
ATOM      2  C   UNL     1      45.091   3.583  12.599  0.00  0.00    +0.000 C 
ATOM      3  C   UNL     1      43.815   4.305  12.851  0.00  0.00    +0.000 C 
ENDROOT
BRANCH   1   4
ATOM      4  C   UNL     1      45.070   6.008  11.493  0.00  0.00    +0.000 A 
ATOM      5  C   UNL     1      44.154   7.073  11.436  0.00  0.00    +0.000 A 
ATOM      6  C   UNL     1      44.553   8.381  11.698  0.00  0.00    +0.000 A 
ATOM      7  C   UNL     1      45.887   8.646  12.012  0.00  0.00    +0.000 A 
ATOM      8  C   UNL     1      46.851   7.628  12.009  0.00  0.00    +0.000 A 
ATOM      9  C   UNL     1      46.422   6.324  11.695  0.00  0.00    +0.000 A 
BRANCH   8  10
ATOM     10  C   UNL     1      48.244   7.864  12.430  0.00  0.00    +0.000 A 
ATOM     11  C   UNL     1      48.564   8.240  13.747  0.00  0.00    +0.000 A 
ATOM     12  C   UNL     1      49.880   8.532  14.127  0.00  0.00    +0.000 A 
ATOM     13  C   UNL     1      50.907   8.443  13.199  0.00  0.00    +0.000 A 
ATOM     14  C   UNL     1      50.606   8.072  11.891  0.00  0.00    +0.000 A 
ATOM     15  F   UNL     1      51.587   8.003  10.980  0.00  0.00    +0.000 F 
ATOM     16  C   UNL     1      49.300   7.789  11.504  0.00  0.00    +0.000 A 
ENDBRANCH   8  10
ENDBRANCH   1   4
BRANCH   1  17
ATOM     17  N   UNL     1      44.100   4.019  10.276  0.00  0.00    +0.000 N 
ATOM     18  H   UNL     1      43.141   3.694  10.228  0.00  0.00    +0.000 HD
BRANCH  17  22
ATOM     19  C   UNL     1      46.755   2.535   7.328  0.00  0.00    +0.000 A 
ATOM     20  C   UNL     1      46.113   1.642   8.188  0.00  0.00    +0.000 A 
ATOM     21  C   UNL     1      45.234   2.119   9.167  0.00  0.00    +0.000 A 
ATOM     22  C   UNL     1      44.940   3.484   9.279  0.00  0.00    +0.000 A 
ATOM     23  C   UNL     1      45.610   4.369   8.421  0.00  0.00    +0.000 A 
ATOM     24  C   UNL     1      46.510   3.903   7.454  0.00  0.00    +0.000 A 
BRANCH  19  26
ATOM     25  N   UNL     1      48.419   1.655   5.541  0.00  0.00    +0.000 NA
ATOM     26  C   UNL     1      47.673   2.053   6.341  0.00  0.00    +0.000 C 
ENDBRANCH  19  26
ENDBRANCH  17  22
ENDBRANCH   1  17
TORSDOF 5
ENDMDL
MODEL 4
REMARK VINA RESULT:    -6.975      3.117      7.525
REMARK INTER + INTRA:          -9.915
REMARK INTER:                  -9.779
REMARK INTRA:                  -0.136
REMARK UNBOUND:                -0.902
REMARK  Name = 
REMARK  5 active torsions:
REMARK  status: ('A' for Active; 'I' for Inactive)
REMARK    1  A    between atoms: C_2  and  C_3
REMARK    2  A    between atoms: C_6  and  N_7
REMARK    3  A    between atoms: N_7  and  C_8
REMARK    4  A    between atoms: C_8  and  C_9
REMARK    5  A    between atoms: C_13  and  C_14
REMARK                            x       y       z     vdW  Elec       q    Type
REMARK                         _______ _______ _______ _____ _____    ______ ____
ROOT
ATOM      1  C   UNL     1      46.145   7.326  12.131  0.00  0.00    +0.000 C 
ATOM      2  C   UNL     1      45.959   8.768  11.682  0.00  0.00    +0.000 C 
ATOM      3  C   UNL     1      45.271   8.305  12.917  0.00  0.00    +0.000 C 
ENDROOT
BRANCH   1   4
ATOM      4  C   UNL     1      45.304   6.188  11.563  0.00  0.00    +0.000 A 
ATOM      5  C   UNL     1      43.909   6.172  11.734  0.00  0.00    +0.000 A 
ATOM      6  C   UNL     1      43.098   5.335  10.972  0.00  0.00    +0.000 A 
ATOM      7  C   UNL     1      43.678   4.487  10.027  0.00  0.00    +0.000 A 
ATOM      8  C   UNL     1      45.070   4.414   9.872  0.00  0.00    +0.000 A 
ATOM      9  C   UNL     1      45.861   5.241  10.691  0.00  0.00    +0.000 A 
BRANCH   8  10
ATOM     10  C   UNL     1      45.701   3.598   8.818  0.00  0.00    +0.000 A 
ATOM     11  C   UNL     1      46.238   4.181   7.656  0.00  0.00    +0.000 A 
ATOM     12  C   UNL     1      46.775   3.400   6.625  0.00  0.00    +0.000 A 
ATOM     13  C   UNL     1      46.794   2.017   6.739  0.00  0.00    +0.000 A 
ATOM     14  C   UNL     1      46.266   1.426   7.884  0.00  0.00    +0.000 A 
ATOM     15  F   UNL     1      46.261   0.090   7.997  0.00  0.00    +0.000 F 
ATOM     16  C   UNL     1      45.724   2.195   8.909  0.00  0.00    +0.000 A 
ENDBRANCH   8  10
ENDBRANCH   1   4
BRANCH   1  17
ATOM     17  N   UNL     1      47.466   6.929  12.637  0.00  0.00    +0.000 N 
ATOM     18  H   UNL     1      48.234   6.876  11.977  0.00  0.00    +0.000 HD
BRANCH  17  22
ATOM     19  C   UNL     1      48.041   4.845  16.280  0.00  0.00    +0.000 A 
ATOM     20  C   UNL     1      47.188   4.314  15.311  0.00  0.00    +0.000 A 
ATOM     21  C   UNL     1      46.988   4.993  14.104  0.00  0.00    +0.000 A 
ATOM     22  C   UNL     1      47.667   6.184  13.816  0.00  0.00    +0.000 A 
ATOM     23  C   UNL     1      48.505   6.713  14.810  0.00  0.00    +0.000 A 
ATOM     24  C   UNL     1      48.692   6.054  16.031  0.00  0.00    +0.000 A 
BRANCH  19  26
ATOM     25  N   UNL     1      48.381   3.608  18.536  0.00  0.00    +0.000 NA
ATOM     26  C   UNL     1      48.229   4.165  17.526  0.00  0.00    +0.000 C 
ENDBRANCH  19  26
ENDBRANCH  17  22
ENDBRANCH   1  17
TORSDOF 5
ENDMDL
MODEL 5
REMARK VINA RESULT:    -6.823      4.110      7.246
REMARK INTER + INTRA:          -9.719
REMARK INTER:                  -8.922
REMARK INTRA:                  -0.798
REMARK UNBOUND:                -0.902
REMARK  Name = 
REMARK  5 active torsions:
REMARK  status: ('A' for Active; 'I' for Inactive)
REMARK    1  A    between atoms: C_2  and  C_3
REMARK    2  A    between atoms: C_6  and  N_7
REMARK    3  A    between atoms: N_7  and  C_8
REMARK    4  A    between atoms: C_8  and  C_9
REMARK    5  A    between atoms: C_13  and  C_14
REMARK                            x       y       z     vdW  Elec       q    Type
REMARK                         _______ _______ _______ _____ _____    ______ ____
ROOT
ATOM      1  C   UNL     1      44.075   6.534  11.700  0.00  0.00    +0.000 C 
ATOM      2  C   UNL     1      43.481   7.477  10.663  0.00  0.00    +0.000 C 
ATOM      3  C   UNL     1      42.597   6.929  11.726  0.00  0.00    +0.000 C 
ENDROOT
BRANCH   1   4
ATOM      4  C   UNL     1      44.230   5.040  11.438  0.00  0.00    +0.000 A 
ATOM      5  C   UNL     1      43.398   4.108  12.084  0.00  0.00    +0.000 A 
ATOM      6  C   UNL     1      43.303   2.794  11.635  0.00  0.00    +0.000 A 
ATOM      7  C   UNL     1      44.055   2.386  10.531  0.00  0.00    +0.000 A 
ATOM      8  C   UNL     1      44.953   3.259   9.900  0.00  0.00    +0.000 A 
ATOM      9  C   UNL     1      45.057   4.567  10.409  0.00  0.00    +0.000 A 
BRANCH   8  10
ATOM     10  C   UNL     1      45.686   2.882   8.677  0.00  0.00    +0.000 A 
ATOM     11  C   UNL     1      46.009   3.829   7.689  0.00  0.00    +0.000 A 
ATOM     12  C   UNL     1      46.644   3.458   6.498  0.00  0.00    +0.000 A 
ATOM     13  C   UNL     1      46.979   2.130   6.273  0.00  0.00    +0.000 A 
ATOM     14  C   UNL     1      46.665   1.181   7.243  0.00  0.00    +0.000 A 
ATOM     15  F   UNL     1      46.965  -0.109   7.029  0.00  0.00    +0.000 F 
ATOM     16  C   UNL     1      46.028   1.541   8.426  0.00  0.00    +0.000 A 
ENDBRANCH   8  10
ENDBRANCH   1   4
BRANCH   1  17
ATOM     17  N   UNL     1      45.017   7.094  12.679  0.00  0.00    +0.000 N 
ATOM     18  H   UNL     1      44.657   7.362  13.588  0.00  0.00    +0.000 HD
BRANCH  17  22
ATOM     19  C   UNL     1      48.668   9.056  11.806  0.00  0.00    +0.000 A 
ATOM     20  C   UNL     1      48.593   7.665  11.704  0.00  0.00    +0.000 A 
ATOM     21  C   UNL     1      47.393   7.005  11.991  0.00  0.00    +0.000 A 
ATOM     22  C   UNL     1      46.235   7.714  12.336  0.00  0.00    +0.000 A 
ATOM     23  C   UNL     1      46.334   9.108  12.452  0.00  0.00    +0.000 A 
ATOM     24  C   UNL     1      47.537   9.777  12.191  0.00  0.00    +0.000 A 
BRANCH  19  26
ATOM     25  N   UNL     1      50.904  10.280  11.320  0.00  0.00    +0.000 NA
ATOM     26  C   UNL     1      49.900   9.733  11.536  0.00  0.00    +0.000 C 
ENDBRANCH  19  26
ENDBRANCH  17  22
ENDBRANCH   1  17
TORSDOF 5
ENDMDL
MODEL 6
REMARK VINA RESULT:    -6.614      3.354      7.151
REMARK INTER + INTRA:          -9.449
REMARK INTER:                  -9.092
REMARK INTRA:                  -0.357
REMARK UNBOUND:                -0.902
REMARK  Name = 
REMARK  5 active torsions:
REMARK  status: ('A' for Active; 'I' for Inactive)
REMARK    1  A    between atoms: C_2  and  C_3
REMARK    2  A    between atoms: C_6  and  N_7
REMARK    3  A    between atoms: N_7  and  C_8
REMARK    4  A    between atoms: C_8  and  C_9
REMARK    5  A    between atoms: C_13  and  C_14
REMARK                            x       y       z     vdW  Elec       q    Type
REMARK                         _______ _______ _______ _____ _____    ______ ____
ROOT
ATOM      1  C   UNL     1      46.060   4.903  13.478  0.00  0.00    +0.000 C 
ATOM      2  C   UNL     1      46.111   4.016  14.714  0.00  0.00    +0.000 C 
ATOM      3  C   UNL     1      47.139   3.832  13.654  0.00  0.00    +0.000 C 
ENDROOT
BRANCH   1   4
ATOM      4  C   UNL     1      45.166   4.578  12.287  0.00  0.00    +0.000 A 
ATOM      5  C   UNL     1      43.908   5.191  12.145  0.00  0.00    +0.000 A 
ATOM      6  C   UNL     1      43.223   5.158  10.933  0.00  0.00    +0.000 A 
ATOM      7  C   UNL     1      43.786   4.497   9.840  0.00  0.00    +0.000 A 
ATOM      8  C   UNL     1      45.003   3.810   9.953  0.00  0.00    +0.000 A 
ATOM      9  C   UNL     1      45.646   3.825  11.205  0.00  0.00    +0.000 A 
BRANCH   8  10
ATOM     10  C   UNL     1      45.664   3.186   8.791  0.00  0.00    +0.000 A 
ATOM     11  C   UNL     1      46.040   3.939   7.664  0.00  0.00    +0.000 A 
ATOM     12  C   UNL     1      46.604   3.335   6.534  0.00  0.00    +0.000 A 
ATOM     13  C   UNL     1      46.814   1.963   6.511  0.00  0.00    +0.000 A 
ATOM     14  C   UNL     1      46.446   1.205   7.620  0.00  0.00    +0.000 A 
ATOM     15  F   UNL     1      46.625  -0.124   7.602  0.00  0.00    +0.000 F 
ATOM     16  C   UNL     1      45.878   1.797   8.743  0.00  0.00    +0.000 A 
ENDBRANCH   8  10
ENDBRANCH   1   4
BRANCH   1  17
ATOM     17  N   UNL     1      46.385   6.327  13.640  0.00  0.00    +0.000 N 
ATOM     18  H   UNL     1      45.620   6.978  13.779  0.00  0.00    +0.000 HD
BRANCH  17  22
ATOM     19  C   UNL     1      50.048   7.992  12.316  0.00  0.00    +0.000 A 
ATOM     20  C   UNL     1      49.032   7.741  11.392  0.00  0.00    +0.000 A 
ATOM     21  C   UNL     1      47.818   7.190  11.816  0.00  0.00    +0.000 A 
ATOM     22  C   UNL     1      47.571   6.923  13.169  0.00  0.00    +0.000 A 
ATOM     23  C   UNL     1      48.611   7.162  14.081  0.00  0.00    +0.000 A 
ATOM     24  C   UNL     1      49.838   7.691  13.663  0.00  0.00    +0.000 A 
BRANCH  19  26
ATOM     25  N   UNL     1      52.320   8.969  11.529  0.00  0.00    +0.000 NA
ATOM     26  C   UNL     1      51.300   8.533  11.883  0.00  0.00    +0.000 C 
ENDBRANCH  19  26
ENDBRANCH  17  22
ENDBRANCH   1  17
TORSDOF 5
ENDMDL
MODEL 7
REMARK VINA RESULT:    -6.544      3.837      8.012
REMARK INTER + INTRA:          -9.359
REMARK INTER:                  -8.442
REMARK INTRA:                  -0.917
REMARK UNBOUND:                -0.902
REMARK  Name = 
REMARK  5 active torsions:
REMARK  status: ('A' for Active; 'I' for Inactive)
REMARK    1  A    between atoms: C_2  and  C_3
REMARK    2  A    between atoms: C_6  and  N_7
REMARK    3  A    between atoms: N_7  and  C_8
REMARK    4  A    between atoms: C_8  and  C_9
REMARK    5  A    between atoms: C_13  and  C_14
REMARK                            x       y       z     vdW  Elec       q    Type
REMARK                         _______ _______ _______ _____ _____    ______ ____
ROOT
ATOM      1  C   UNL     1      48.685   7.983  12.630  0.00  0.00    +0.000 C 
ATOM      2  C   UNL     1      49.776   7.392  11.750  0.00  0.00    +0.000 C 
ATOM      3  C   UNL     1      49.272   8.759  11.450  0.00  0.00    +0.000 C 
ENDROOT
BRANCH   1   4
ATOM      4  C   UNL     1      47.208   7.683  12.398  0.00  0.00    +0.000 A 
ATOM      5  C   UNL     1      46.234   8.679  12.592  0.00  0.00    +0.000 A 
ATOM      6  C   UNL     1      44.943   8.531  12.091  0.00  0.00    +0.000 A 
ATOM      7  C   UNL     1      44.602   7.372  11.393  0.00  0.00    +0.000 A 
ATOM      8  C   UNL     1      45.517   6.320  11.238  0.00  0.00    +0.000 A 
ATOM      9  C   UNL     1      46.798   6.484  11.797  0.00  0.00    +0.000 A 
BRANCH   8  10
ATOM     10  C   UNL     1      45.212   5.128  10.425  0.00  0.00    +0.000 A 
ATOM     11  C   UNL     1      44.517   4.028  10.961  0.00  0.00    +0.000 A 
ATOM     12  C   UNL     1      44.289   2.869  10.208  0.00  0.00    +0.000 A 
ATOM     13  C   UNL     1      44.743   2.790   8.899  0.00  0.00    +0.000 A 
ATOM     14  C   UNL     1      45.432   3.871   8.356  0.00  0.00    +0.000 A 
ATOM     15  F   UNL     1      45.894   3.799   7.099  0.00  0.00    +0.000 F 
ATOM     16  C   UNL     1      45.670   5.023   9.100  0.00  0.00    +0.000 A 
ENDBRANCH   8  10
ENDBRANCH   1   4
BRANCH   1  17
ATOM     17  N   UNL     1      49.034   8.343  14.011  0.00  0.00    +0.000 N 
ATOM     18  H   UNL     1      49.272   9.310  14.207  0.00  0.00    +0.000 HD
BRANCH  17  22
ATOM     19  C   UNL     1      50.565   5.730  16.973  0.00  0.00    +0.000 A 
ATOM     20  C   UNL     1      49.213   5.665  16.630  0.00  0.00    +0.000 A 
ATOM     21  C   UNL     1      48.694   6.523  15.654  0.00  0.00    +0.000 A 
ATOM     22  C   UNL     1      49.516   7.427  14.967  0.00  0.00    +0.000 A 
ATOM     23  C   UNL     1      50.867   7.493  15.339  0.00  0.00    +0.000 A 
ATOM     24  C   UNL     1      51.390   6.655  16.332  0.00  0.00    +0.000 A 
BRANCH  19  26
ATOM     25  N   UNL     1      51.522   4.174  18.816  0.00  0.00    +0.000 NA
ATOM     26  C   UNL     1      51.093   4.870  17.988  0.00  0.00    +0.000 C 
ENDBRANCH  19  26
ENDBRANCH  17  22
ENDBRANCH   1  17
TORSDOF 5
ENDMDL
MODEL 8
REMARK VINA RESULT:    -6.322      3.527      7.970
REMARK INTER + INTRA:          -9.071
REMARK INTER:                  -8.097
REMARK INTRA:                  -0.974
REMARK UNBOUND:                -0.902
REMARK  Name = 
REMARK  5 active torsions:
REMARK  status: ('A' for Active; 'I' for Inactive)
REMARK    1  A    between atoms: C_2  and  C_3
REMARK    2  A    between atoms: C_6  and  N_7
REMARK    3  A    between atoms: N_7  and  C_8
REMARK    4  A    between atoms: C_8  and  C_9
REMARK    5  A    between atoms: C_13  and  C_14
REMARK                            x       y       z     vdW  Elec       q    Type
REMARK                         _______ _______ _______ _____ _____    ______ ____
ROOT
ATOM      1  C   UNL     1      48.854   8.374  12.615  0.00  0.00    +0.000 C 
ATOM      2  C   UNL     1      49.923   7.697  11.769  0.00  0.00    +0.000 C 
ATOM      3  C   UNL     1      49.427   9.039  11.362  0.00  0.00    +0.000 C 
ENDROOT
BRANCH   1   4
ATOM      4  C   UNL     1      47.370   8.072  12.436  0.00  0.00    +0.000 A 
ATOM      5  C   UNL     1      46.408   9.084  12.598  0.00  0.00    +0.000 A 
ATOM      6  C   UNL     1      45.104   8.919  12.138  0.00  0.00    +0.000 A 
ATOM      7  C   UNL     1      44.738   7.726  11.514  0.00  0.00    +0.000 A 
ATOM      8  C   UNL     1      45.643   6.660  11.395  0.00  0.00    +0.000 A 
ATOM      9  C   UNL     1      46.939   6.845  11.912  0.00  0.00    +0.000 A 
BRANCH   8  10
ATOM     10  C   UNL     1      45.311   5.427  10.658  0.00  0.00    +0.000 A 
ATOM     11  C   UNL     1      45.707   5.238   9.321  0.00  0.00    +0.000 A 
ATOM     12  C   UNL     1      45.332   4.097   8.600  0.00  0.00    +0.000 A 
ATOM     13  C   UNL     1      44.560   3.115   9.206  0.00  0.00    +0.000 A 
ATOM     14  C   UNL     1      44.161   3.289  10.528  0.00  0.00    +0.000 A 
ATOM     15  F   UNL     1      43.399   2.357  11.118  0.00  0.00    +0.000 F 
ATOM     16  C   UNL     1      44.523   4.423  11.248  0.00  0.00    +0.000 A 
ENDBRANCH   8  10
ENDBRANCH   1   4
BRANCH   1  17
ATOM     17  N   UNL     1      49.234   8.846  13.954  0.00  0.00    +0.000 N 
ATOM     18  H   UNL     1      49.949   9.562  14.022  0.00  0.00    +0.000 HD
BRANCH  17  22
ATOM     19  C   UNL     1      48.528   6.690  17.531  0.00  0.00    +0.000 A 
ATOM     20  C   UNL     1      48.892   6.000  16.372  0.00  0.00    +0.000 A 
ATOM     21  C   UNL     1      49.126   6.700  15.184  0.00  0.00    +0.000 A 
ATOM     22  C   UNL     1      49.053   8.098  15.134  0.00  0.00    +0.000 A 
ATOM     23  C   UNL     1      48.667   8.773  16.303  0.00  0.00    +0.000 A 
ATOM     24  C   UNL     1      48.406   8.079  17.491  0.00  0.00    +0.000 A 
BRANCH  19  26
ATOM     25  N   UNL     1      48.054   5.390  19.727  0.00  0.00    +0.000 NA
ATOM     26  C   UNL     1      48.264   5.974  18.743  0.00  0.00    +0.000 C 
ENDBRANCH  19  26
ENDBRANCH  17  22
ENDBRANCH   1  17
TORSDOF 5
ENDMDL
MODEL 9
REMARK VINA RESULT:    -6.236      4.577      7.441
REMARK INTER + INTRA:          -8.960
REMARK INTER:                  -8.049
REMARK INTRA:                  -0.911
REMARK UNBOUND:                -0.902
REMARK  Name = 
REMARK  5 active torsions:
REMARK  status: ('A' for Active; 'I' for Inactive)
REMARK    1  A    between atoms: C_2  and  C_3
REMARK    2  A    between atoms: C_6  and  N_7
REMARK    3  A    between atoms: N_7  and  C_8
REMARK    4  A    between atoms: C_8  and  C_9
REMARK    5  A    between atoms: C_13  and  C_14
REMARK                            x       y       z     vdW  Elec       q    Type
REMARK                         _______ _______ _______ _____ _____    ______ ____
ROOT
ATOM      1  C   UNL     1      48.766   7.444  13.387  0.00  0.00    +0.000 C 
ATOM      2  C   UNL     1      49.201   8.336  14.541  0.00  0.00    +0.000 C 
ATOM      3  C   UNL     1      48.899   6.904  14.812  0.00  0.00    +0.000 C 
ENDROOT
BRANCH   1   4
ATOM      4  C   UNL     1      47.316   7.378  12.919  0.00  0.00    +0.000 A 
ATOM      5  C   UNL     1      46.495   8.519  12.962  0.00  0.00    +0.000 A 
ATOM      6  C   UNL     1      45.293   8.569  12.260  0.00  0.00    +0.000 A 
ATOM      7  C   UNL     1      44.887   7.466  11.508  0.00  0.00    +0.000 A 
ATOM      8  C   UNL     1      45.635   6.280  11.493  0.00  0.00    +0.000 A 
ATOM      9  C   UNL     1      46.821   6.248  12.251  0.00  0.00    +0.000 A 
BRANCH   8  10
ATOM     10  C   UNL     1      45.277   5.137  10.633  0.00  0.00    +0.000 A 
ATOM     11  C   UNL     1      44.602   4.012  11.143  0.00  0.00    +0.000 A 
ATOM     12  C   UNL     1      44.325   2.898  10.341  0.00  0.00    +0.000 A 
ATOM     13  C   UNL     1      44.708   2.890   9.007  0.00  0.00    +0.000 A 
ATOM     14  C   UNL     1      45.376   3.996   8.489  0.00  0.00    +0.000 A 
ATOM     15  F   UNL     1      45.769   3.991   7.207  0.00  0.00    +0.000 F 
ATOM     16  C   UNL     1      45.662   5.103   9.281  0.00  0.00    +0.000 A 
ENDBRANCH   8  10
ENDBRANCH   1   4
BRANCH   1  17
ATOM     17  N   UNL     1      49.764   7.108  12.363  0.00  0.00    +0.000 N 
ATOM     18  H   UNL     1      50.190   6.188  12.394  0.00  0.00    +0.000 HD
BRANCH  17  22
ATOM     19  C   UNL     1      52.025   9.861  10.071  0.00  0.00    +0.000 A 
ATOM     20  C   UNL     1      50.837  10.280  10.673  0.00  0.00    +0.000 A 
ATOM     21  C   UNL     1      50.080   9.380  11.432  0.00  0.00    +0.000 A 
ATOM     22  C   UNL     1      50.511   8.065  11.647  0.00  0.00    +0.000 A 
ATOM     23  C   UNL     1      51.697   7.656  11.017  0.00  0.00    +0.000 A 
ATOM     24  C   UNL     1      52.448   8.542  10.235  0.00  0.00    +0.000 A 
BRANCH  19  26
ATOM     25  N   UNL     1      53.413  11.515   8.631  0.00  0.00    +0.000 NA
ATOM     26  C   UNL     1      52.789  10.773   9.274  0.00  0.00    +0.000 C 
ENDBRANCH  19  26
ENDBRANCH  17  22
ENDBRANCH   1  17
TORSDOF 5
ENDMDL
