MODEL 1
REMARK VINA RESULT:    -7.873      0.000      0.000
REMARK INTER + INTRA:         -10.094
REMARK INTER:                  -9.714
REMARK INTRA:                  -0.380
REMARK UNBOUND:                -0.380
REMARK  Name = 
REMARK  6 active torsions:
REMARK  status: ('A' for Active; 'I' for Inactive)
REMARK    1  A    between atoms: C_1  and  C_2
REMARK    2  A    between atoms: C_10  and  C_11
REMARK    3  A    between atoms: C_11  and  O_12
REMARK    4  A    between atoms: O_12  and  C_13
REMARK    5  A    between atoms: C_16  and  S_17
REMARK    6  A    between atoms: S_17  and  C_18
REMARK                            x       y       z     vdW  Elec       q    Type
REMARK                         _______ _______ _______ _____ _____    ______ ____
ROOT
ATOM      1  C   UNL     1      48.112   5.667  19.519  0.00  0.00    +0.000 C 
ATOM      2  C   UNL     1      48.453   5.278  18.083  0.00  0.00    +0.000 C 
ATOM      3  C   UNL     1      47.287   4.501  17.453  0.00  0.00    +0.000 C 
ATOM      4  C   UNL     1      47.531   4.211  15.973  0.00  0.00    +0.000 C 
ATOM      5  N   UNL     1      47.842   5.462  15.304  0.00  0.00    +0.000 N 
ATOM      6  C   UNL     1      47.224   5.786  14.124  0.00  0.00    +0.000 A 
ATOM      7  N   UNL     1      47.554   6.926  13.497  0.00  0.00    +0.000 NA
ATOM      8  C   UNL     1      46.890   7.230  12.367  0.00  0.00    +0.000 A 
ATOM      9  C   UNL     1      45.901   6.442  11.831  0.00  0.00    +0.000 A 
ATOM     10  C   UNL     1      45.598   5.303  12.536  0.00  0.00    +0.000 A 
ATOM     11  N   UNL     1      46.255   4.973  13.666  0.00  0.00    +0.000 NA
ATOM     12  C   UNL     1      49.009   6.185  15.774  0.00  0.00    +0.000 C 
ATOM     13  C   UNL     1      48.802   6.527  17.251  0.00  0.00    +0.000 C 
ENDROOT
BRANCH  10  14
ATOM     14  C   UNL     1      44.469   4.389  12.111  0.00  0.00    +0.000 C 
BRANCH  14  15
ATOM     15  O   UNL     1      44.132   4.613  10.740  0.00  0.00    +0.000 OA
BRANCH  15  16
ATOM     16  C   UNL     1      44.805   3.869   9.808  0.00  0.00    +0.000 A 
ATOM     17  C   UNL     1      44.885   2.474   9.763  0.00  0.00    +0.000 A 
ATOM     18  C   UNL     1      45.616   1.836   8.752  0.00  0.00    +0.000 A 
ATOM     19  C   UNL     1      46.266   2.599   7.780  0.00  0.00    +0.000 A 
ATOM     20  C   UNL     1      46.196   3.991   7.813  0.00  0.00    +0.000 A 
ATOM     21  C   UNL     1      45.466   4.618   8.827  0.00  0.00    +0.000 A 
BRANCH  19  22
ATOM     22  S   UNL     1      47.336   1.798   6.599  0.00  0.00    +0.000 S 
ATOM     23  C   UNL     1      46.903   2.502   5.032  0.00  0.00    +0.000 C 
ATOM     24  O   UNL     1      48.696   2.200   6.902  0.00  0.00    +0.000 OA
ATOM     25  O   UNL     1      46.965   0.399   6.570  0.00  0.00    +0.000 OA
ENDBRANCH  19  22
ENDBRANCH  15  16
ENDBRANCH  14  15
ENDBRANCH  10  14
TORSDOF 4
ENDMDL
MODEL 2
REMARK VINA RESULT:    -7.645      1.987      3.307
REMARK INTER + INTRA:          -9.812
REMARK INTER:                  -9.270
REMARK INTRA:                  -0.542
REMARK UNBOUND:                -0.380
REMARK  Name = 
REMARK  6 active torsions:
REMARK  status: ('A' for Active; 'I' for Inactive)
REMARK    1  A    between atoms: C_1  and  C_2
REMARK    2  A    between atoms: C_10  and  C_11
REMARK    3  A    between atoms: C_11  and  O_12
REMARK    4  A    between atoms: O_12  and  C_13
REMARK    5  A    between atoms: C_16  and  S_17
REMARK    6  A    between atoms: S_17  and  C_18
REMARK                            x       y       z     vdW  Elec       q    Type
REMARK                         _______ _______ _______ _____ _____    ______ ____
ROOT
ATOM      1  C   UNL     1      51.716   8.549  11.867  0.00  0.00    +0.000 C 
ATOM      2  C   UNL     1      50.348   8.594  12.543  0.00  0.00    +0.000 C 
ATOM      3  C   UNL     1      49.233   8.492  11.489  0.00  0.00    +0.000 C 
ATOM      4  C   UNL     1      47.851   8.396  12.133  0.00  0.00    +0.000 C 
ATOM      5  N   UNL     1      47.864   7.305  13.091  0.00  0.00    +0.000 N 
ATOM      6  C   UNL     1      46.849   6.384  13.102  0.00  0.00    +0.000 A 
ATOM      7  N   UNL     1      46.854   5.406  14.022  0.00  0.00    +0.000 NA
ATOM      8  C   UNL     1      45.865   4.495  13.969  0.00  0.00    +0.000 A 
ATOM      9  C   UNL     1      44.862   4.515  13.031  0.00  0.00    +0.000 A 
ATOM     10  C   UNL     1      44.931   5.530  12.107  0.00  0.00    +0.000 A 
ATOM     11  N   UNL     1      45.908   6.458  12.144  0.00  0.00    +0.000 NA
ATOM     12  C   UNL     1      48.814   7.401  14.183  0.00  0.00    +0.000 C 
ATOM     13  C   UNL     1      50.224   7.472  13.592  0.00  0.00    +0.000 C 
ENDROOT
BRANCH  10  14
ATOM     14  C   UNL     1      43.945   5.621  10.962  0.00  0.00    +0.000 C 
BRANCH  14  15
ATOM     15  O   UNL     1      43.529   4.317  10.553  0.00  0.00    +0.000 OA
BRANCH  15  16
ATOM     16  C   UNL     1      44.348   3.652   9.679  0.00  0.00    +0.000 A 
ATOM     17  C   UNL     1      44.656   2.288   9.708  0.00  0.00    +0.000 A 
ATOM     18  C   UNL     1      45.517   1.735   8.752  0.00  0.00    +0.000 A 
ATOM     19  C   UNL     1      46.069   2.549   7.760  0.00  0.00    +0.000 A 
ATOM     20  C   UNL     1      45.771   3.910   7.719  0.00  0.00    +0.000 A 
ATOM     21  C   UNL     1      44.912   4.454   8.680  0.00  0.00    +0.000 A 
BRANCH  19  22
ATOM     22  S   UNL     1      47.297   1.882   6.653  0.00  0.00    +0.000 S 
ATOM     23  C   UNL     1      46.892   2.544   5.060  0.00  0.00    +0.000 C 
ATOM     24  O   UNL     1      48.580   2.431   7.044  0.00  0.00    +0.000 OA
ATOM     25  O   UNL     1      47.088   0.450   6.599  0.00  0.00    +0.000 OA
ENDBRANCH  19  22
ENDBRANCH  15  16
ENDBRANCH  14  15
ENDBRANCH  10  14
TORSDOF 4
ENDMDL
MODEL 3
REMARK VINA RESULT:    -7.019      5.128      8.832
REMARK INTER + INTRA:          -9.040
REMARK INTER:                  -8.628
REMARK INTRA:                  -0.412
REMARK UNBOUND:                -0.380
REMARK  Name = 
REMARK  6 active torsions:
REMARK  status: ('A' for Active; 'I' for Inactive)
REMARK    1  A    between atoms: C_1  and  C_2
REMARK    2  A    between atoms: C_10  and  C_11
REMARK    3  A    between atoms: C_11  and  O_12
REMARK    4  A    between atoms: O_12  and  C_13
REMARK    5  A    between atoms: C_16  and  S_17
REMARK    6  A    between atoms: S_17  and  C_18
REMARK                            x       y       z     vdW  Elec       q    Type
REMARK                         _______ _______ _______ _____ _____    ______ ____
ROOT
ATOM      1  C   UNL     1      44.625   2.809   8.442  0.00  0.00    +0.000 C 
ATOM      2  C   UNL     1      44.405   3.694   9.667  0.00  0.00    +0.000 C 
ATOM      3  C   UNL     1      44.653   2.889  10.953  0.00  0.00    +0.000 C 
ATOM      4  C   UNL     1      44.577   3.771  12.198  0.00  0.00    +0.000 C 
ATOM      5  N   UNL     1      45.474   4.899  12.020  0.00  0.00    +0.000 N 
ATOM      6  C   UNL     1      46.337   5.259  13.022  0.00  0.00    +0.000 A 
ATOM      7  N   UNL     1      47.130   6.330  12.857  0.00  0.00    +0.000 NA
ATOM      8  C   UNL     1      47.996   6.622  13.845  0.00  0.00    +0.000 A 
ATOM      9  C   UNL     1      48.108   5.886  15.000  0.00  0.00    +0.000 A 
ATOM     10  C   UNL     1      47.283   4.792  15.092  0.00  0.00    +0.000 A 
ATOM     11  N   UNL     1      46.402   4.484  14.118  0.00  0.00    +0.000 NA
ATOM     12  C   UNL     1      45.217   5.770  10.889  0.00  0.00    +0.000 C 
ATOM     13  C   UNL     1      45.311   4.938   9.607  0.00  0.00    +0.000 C 
ENDROOT
BRANCH  10  14
ATOM     14  C   UNL     1      47.363   3.841  16.267  0.00  0.00    +0.000 C 
BRANCH  14  15
ATOM     15  O   UNL     1      48.280   4.331  17.247  0.00  0.00    +0.000 OA
BRANCH  15  16
ATOM     16  C   UNL     1      49.464   3.653  17.381  0.00  0.00    +0.000 A 
ATOM     17  C   UNL     1      49.663   2.286  17.169  0.00  0.00    +0.000 A 
ATOM     18  C   UNL     1      50.931   1.718  17.348  0.00  0.00    +0.000 A 
ATOM     19  C   UNL     1      52.003   2.522  17.739  0.00  0.00    +0.000 A 
ATOM     20  C   UNL     1      51.819   3.887  17.955  0.00  0.00    +0.000 A 
ATOM     21  C   UNL     1      50.549   4.445  17.776  0.00  0.00    +0.000 A 
BRANCH  19  22
ATOM     22  S   UNL     1      53.572   1.771  18.134  0.00  0.00    +0.000 S 
ATOM     23  C   UNL     1      54.135   2.615  19.588  0.00  0.00    +0.000 C 
ATOM     24  O   UNL     1      53.313   0.392  18.499  0.00  0.00    +0.000 OA
ATOM     25  O   UNL     1      54.483   2.096  17.057  0.00  0.00    +0.000 OA
ENDBRANCH  19  22
ENDBRANCH  15  16
ENDBRANCH  14  15
ENDBRANCH  10  14
TORSDOF 4
ENDMDL
MODEL 4
REMARK VINA RESULT:    -6.407      1.649      2.250
REMARK INTER + INTRA:          -8.285
REMARK INTER:                  -8.000
REMARK INTRA:                  -0.285
REMARK UNBOUND:                -0.380
REMARK  Name = 
REMARK  6 active torsions:
REMARK  status: ('A' for Active; 'I' for Inactive)
REMARK    1  A    between atoms: C_1  and  C_2
REMARK    2  A    between atoms: C_10  and  C_11
REMARK    3  A    between atoms: C_11  and  O_12
REMARK    4  A    between atoms: O_12  and  C_13
REMARK    5  A    between atoms: C_16  and  S_17
REMARK    6  A    between atoms: S_17  and  C_18
REMARK                            x       y       z     vdW  Elec       q    Type
REMARK                         _______ _______ _______ _____ _____    ______ ____
ROOT
ATOM      1  C   UNL     1      48.962   6.600  17.480  0.00  0.00    +0.000 C 
ATOM      2  C   UNL     1      48.915   6.820  15.970  0.00  0.00    +0.000 C 
ATOM      3  C   UNL     1      47.897   5.864  15.327  0.00  0.00    +0.000 C 
ATOM      4  C   UNL     1      47.719   6.143  13.836  0.00  0.00    +0.000 C 
ATOM      5  N   UNL     1      47.403   7.550  13.665  0.00  0.00    +0.000 N 
ATOM      6  C   UNL     1      46.365   7.931  12.855  0.00  0.00    +0.000 A 
ATOM      7  N   UNL     1      46.113   9.237  12.674  0.00  0.00    +0.000 NA
ATOM      8  C   UNL     1      45.056   9.568  11.909  0.00  0.00    +0.000 A 
ATOM      9  C   UNL     1      44.232   8.646  11.312  0.00  0.00    +0.000 A 
ATOM     10  C   UNL     1      44.534   7.329  11.557  0.00  0.00    +0.000 A 
ATOM     11  N   UNL     1      45.592   6.973  12.314  0.00  0.00    +0.000 NA
ATOM     12  C   UNL     1      48.384   8.506  14.143  0.00  0.00    +0.000 C 
ATOM     13  C   UNL     1      48.580   8.287  15.645  0.00  0.00    +0.000 C 
ENDROOT
BRANCH  10  14
ATOM     14  C   UNL     1      43.657   6.209  11.038  0.00  0.00    +0.000 C 
BRANCH  14  15
ATOM     15  O   UNL     1      44.230   4.938  11.352  0.00  0.00    +0.000 OA
BRANCH  15  16
ATOM     16  C   UNL     1      44.769   4.228  10.312  0.00  0.00    +0.000 A 
ATOM     17  C   UNL     1      44.638   2.853  10.092  0.00  0.00    +0.000 A 
ATOM     18  C   UNL     1      45.250   2.250   8.985  0.00  0.00    +0.000 A 
ATOM     19  C   UNL     1      45.992   3.027   8.094  0.00  0.00    +0.000 A 
ATOM     20  C   UNL     1      46.132   4.398   8.301  0.00  0.00    +0.000 A 
ATOM     21  C   UNL     1      45.520   4.991   9.410  0.00  0.00    +0.000 A 
BRANCH  19  22
ATOM     22  S   UNL     1      46.911   2.234   6.787  0.00  0.00    +0.000 S 
ATOM     23  C   UNL     1      46.977   0.523   7.241  0.00  0.00    +0.000 C 
ATOM     24  O   UNL     1      46.122   2.338   5.575  0.00  0.00    +0.000 OA
ATOM     25  O   UNL     1      48.261   2.755   6.840  0.00  0.00    +0.000 OA
ENDBRANCH  19  22
ENDBRANCH  15  16
ENDBRANCH  14  15
ENDBRANCH  10  14
TORSDOF 4
ENDMDL
MODEL 5
REMARK VINA RESULT:    -6.151      4.202      7.856
REMARK INTER + INTRA:          -7.969
REMARK INTER:                  -7.834
REMARK INTRA:                  -0.135
REMARK UNBOUND:                -0.380
REMARK  Name = 
REMARK  6 active torsions:
REMARK  status: ('A' for Active; 'I' for Inactive)
REMARK    1  A    between atoms: C_1  and  C_2
REMARK    2  A    between atoms: C_10  and  C_11
REMARK    3  A    between atoms: C_11  and  O_12
REMARK    4  A    between atoms: O_12  and  C_13
REMARK    5  A    between atoms: C_16  and  S_17
REMARK    6  A    between atoms: S_17  and  C_18
REMARK                            x       y       z     vdW  Elec       q    Type
REMARK                         _______ _______ _______ _____ _____    ______ ____
ROOT
ATOM      1  C   UNL     1      44.790   2.192   9.545  0.00  0.00    +0.000 C 
ATOM      2  C   UNL     1      44.284   3.209  10.566  0.00  0.00    +0.000 C 
ATOM      3  C   UNL     1      45.423   3.622  11.511  0.00  0.00    +0.000 C 
ATOM      4  C   UNL     1      44.995   4.740  12.462  0.00  0.00    +0.000 C 
ATOM      5  N   UNL     1      44.451   5.831  11.673  0.00  0.00    +0.000 N 
ATOM      6  C   UNL     1      44.848   7.121  11.914  0.00  0.00    +0.000 A 
ATOM      7  N   UNL     1      44.303   8.123  11.206  0.00  0.00    +0.000 NA
ATOM      8  C   UNL     1      44.755   9.369  11.440  0.00  0.00    +0.000 A 
ATOM      9  C   UNL     1      45.734   9.663  12.357  0.00  0.00    +0.000 A 
ATOM     10  C   UNL     1      46.263   8.588  13.030  0.00  0.00    +0.000 A 
ATOM     11  N   UNL     1      45.822   7.332  12.817  0.00  0.00    +0.000 NA
ATOM     12  C   UNL     1      43.295   5.534  10.849  0.00  0.00    +0.000 C 
ATOM     13  C   UNL     1      43.680   4.435   9.856  0.00  0.00    +0.000 C 
ENDROOT
BRANCH  10  14
ATOM     14  C   UNL     1      47.411   8.754  14.002  0.00  0.00    +0.000 C 
BRANCH  14  15
ATOM     15  O   UNL     1      48.346   7.683  13.861  0.00  0.00    +0.000 OA
BRANCH  15  16
ATOM     16  C   UNL     1      48.376   6.751  14.866  0.00  0.00    +0.000 A 
ATOM     17  C   UNL     1      49.108   6.839  16.054  0.00  0.00    +0.000 A 
ATOM     18  C   UNL     1      49.052   5.806  16.999  0.00  0.00    +0.000 A 
ATOM     19  C   UNL     1      48.259   4.683  16.755  0.00  0.00    +0.000 A 
ATOM     20  C   UNL     1      47.525   4.582  15.574  0.00  0.00    +0.000 A 
ATOM     21  C   UNL     1      47.589   5.616  14.635  0.00  0.00    +0.000 A 
BRANCH  19  22
ATOM     22  S   UNL     1      48.325   3.296  17.874  0.00  0.00    +0.000 S 
ATOM     23  C   UNL     1      49.713   2.334  17.336  0.00  0.00    +0.000 C 
ATOM     24  O   UNL     1      48.634   3.815  19.191  0.00  0.00    +0.000 OA
ATOM     25  O   UNL     1      47.131   2.510  17.647  0.00  0.00    +0.000 OA
ENDBRANCH  19  22
ENDBRANCH  15  16
ENDBRANCH  14  15
ENDBRANCH  10  14
TORSDOF 4
ENDMDL
MODEL 6
REMARK VINA RESULT:    -6.065      4.775      9.063
REMARK INTER + INTRA:          -7.863
REMARK INTER:                  -7.426
REMARK INTRA:                  -0.436
REMARK UNBOUND:                -0.380
REMARK  Name = 
REMARK  6 active torsions:
REMARK  status: ('A' for Active; 'I' for Inactive)
REMARK    1  A    between atoms: C_1  and  C_2
REMARK    2  A    between atoms: C_10  and  C_11
REMARK    3  A    between atoms: C_11  and  O_12
REMARK    4  A    between atoms: O_12  and  C_13
REMARK    5  A    between atoms: C_16  and  S_17
REMARK    6  A    between atoms: S_17  and  C_18
REMARK                            x       y       z     vdW  Elec       q    Type
REMARK                         _______ _______ _______ _____ _____    ______ ____
ROOT
ATOM      1  C   UNL     1      44.529   2.133   9.138  0.00  0.00    +0.000 C 
ATOM      2  C   UNL     1      44.232   3.024  10.342  0.00  0.00    +0.000 C 
ATOM      3  C   UNL     1      45.464   3.104  11.258  0.00  0.00    +0.000 C 
ATOM      4  C   UNL     1      45.257   4.094  12.404  0.00  0.00    +0.000 C 
ATOM      5  N   UNL     1      44.850   5.369  11.842  0.00  0.00    +0.000 N 
ATOM      6  C   UNL     1      45.451   6.529  12.258  0.00  0.00    +0.000 A 
ATOM      7  N   UNL     1      45.034   7.704  11.760  0.00  0.00    +0.000 NA
ATOM      8  C   UNL     1      45.681   8.815  12.158  0.00  0.00    +0.000 A 
ATOM      9  C   UNL     1      46.736   8.806  13.038  0.00  0.00    +0.000 A 
ATOM     10  C   UNL     1      47.124   7.568  13.491  0.00  0.00    +0.000 A 
ATOM     11  N   UNL     1      46.486   6.442  13.111  0.00  0.00    +0.000 NA
ATOM     12  C   UNL     1      43.625   5.385  11.065  0.00  0.00    +0.000 C 
ATOM     13  C   UNL     1      43.790   4.426   9.883  0.00  0.00    +0.000 C 
ENDROOT
BRANCH  10  14
ATOM     14  C   UNL     1      48.328   7.401  14.393  0.00  0.00    +0.000 C 
BRANCH  14  15
ATOM     15  O   UNL     1      48.489   6.030  14.764  0.00  0.00    +0.000 OA
BRANCH  15  16
ATOM     16  C   UNL     1      48.665   5.766  16.097  0.00  0.00    +0.000 A 
ATOM     17  C   UNL     1      48.122   4.690  16.805  0.00  0.00    +0.000 A 
ATOM     18  C   UNL     1      48.379   4.540  18.174  0.00  0.00    +0.000 A 
ATOM     19  C   UNL     1      49.184   5.470  18.835  0.00  0.00    +0.000 A 
ATOM     20  C   UNL     1      49.731   6.548  18.142  0.00  0.00    +0.000 A 
ATOM     21  C   UNL     1      49.467   6.691  16.776  0.00  0.00    +0.000 A 
BRANCH  19  22
ATOM     22  S   UNL     1      49.367   5.377  20.607  0.00  0.00    +0.000 S 
ATOM     23  C   UNL     1      51.072   4.974  20.875  0.00  0.00    +0.000 C 
ATOM     24  O   UNL     1      49.141   6.707  21.137  0.00  0.00    +0.000 OA
ATOM     25  O   UNL     1      48.574   4.254  21.058  0.00  0.00    +0.000 OA
ENDBRANCH  19  22
ENDBRANCH  15  16
ENDBRANCH  14  15
ENDBRANCH  10  14
TORSDOF 4
ENDMDL
MODEL 7
REMARK VINA RESULT:    -6.030      3.591      5.058
REMARK INTER + INTRA:          -7.820
REMARK INTER:                  -7.332
REMARK INTRA:                  -0.487
REMARK UNBOUND:                -0.380
REMARK  Name = 
REMARK  6 active torsions:
REMARK  status: ('A' for Active; 'I' for Inactive)
REMARK    1  A    between atoms: C_1  and  C_2
REMARK    2  A    between atoms: C_10  and  C_11
REMARK    3  A    between atoms: C_11  and  O_12
REMARK    4  A    between atoms: O_12  and  C_13
REMARK    5  A    between atoms: C_16  and  S_17
REMARK    6  A    between atoms: S_17  and  C_18
REMARK                            x       y       z     vdW  Elec       q    Type
REMARK                         _______ _______ _______ _____ _____    ______ ____
ROOT
ATOM      1  C   UNL     1      47.184   6.129  21.007  0.00  0.00    +0.000 C 
ATOM      2  C   UNL     1      48.137   5.606  19.935  0.00  0.00    +0.000 C 
ATOM      3  C   UNL     1      47.490   5.732  18.546  0.00  0.00    +0.000 C 
ATOM      4  C   UNL     1      48.461   5.346  17.431  0.00  0.00    +0.000 C 
ATOM      5  N   UNL     1      49.678   6.122  17.592  0.00  0.00    +0.000 N 
ATOM      6  C   UNL     1      50.239   6.758  16.515  0.00  0.00    +0.000 A 
ATOM      7  N   UNL     1      51.387   7.435  16.672  0.00  0.00    +0.000 NA
ATOM      8  C   UNL     1      51.879   8.085  15.601  0.00  0.00    +0.000 A 
ATOM      9  C   UNL     1      51.271   8.091  14.370  0.00  0.00    +0.000 A 
ATOM     10  C   UNL     1      50.088   7.397  14.286  0.00  0.00    +0.000 A 
ATOM     11  N   UNL     1      49.580   6.732  15.343  0.00  0.00    +0.000 NA
ATOM     12  C   UNL     1      50.403   5.954  18.837  0.00  0.00    +0.000 C 
ATOM     13  C   UNL     1      49.481   6.356  19.991  0.00  0.00    +0.000 C 
ENDROOT
BRANCH  10  14
ATOM     14  C   UNL     1      49.265   7.393  13.016  0.00  0.00    +0.000 C 
BRANCH  14  15
ATOM     15  O   UNL     1      47.946   7.879  13.273  0.00  0.00    +0.000 OA
BRANCH  15  16
ATOM     16  C   UNL     1      46.904   7.072  12.896  0.00  0.00    +0.000 A 
ATOM     17  C   UNL     1      46.738   5.725  13.232  0.00  0.00    +0.000 A 
ATOM     18  C   UNL     1      45.623   5.012  12.772  0.00  0.00    +0.000 A 
ATOM     19  C   UNL     1      44.670   5.651  11.976  0.00  0.00    +0.000 A 
ATOM     20  C   UNL     1      44.824   6.993  11.632  0.00  0.00    +0.000 A 
ATOM     21  C   UNL     1      45.941   7.696  12.094  0.00  0.00    +0.000 A 
BRANCH  19  22
ATOM     22  S   UNL     1      43.347   4.701  11.250  0.00  0.00    +0.000 S 
ATOM     23  C   UNL     1      43.460   3.100  12.003  0.00  0.00    +0.000 C 
ATOM     24  O   UNL     1      42.098   5.300  11.675  0.00  0.00    +0.000 OA
ATOM     25  O   UNL     1      43.655   4.547   9.844  0.00  0.00    +0.000 OA
ENDBRANCH  19  22
ENDBRANCH  15  16
ENDBRANCH  14  15
ENDBRANCH  10  14
TORSDOF 4
ENDMDL
MODEL 8
REMARK VINA RESULT:    -5.739      6.058      9.195
REMARK INTER + INTRA:          -7.461
REMARK INTER:                  -7.466
REMARK INTRA:                   0.005
REMARK UNBOUND:                -0.380
REMARK  Name = 
REMARK  6 active torsions:
REMARK  status: ('A' for Active; 'I' for Inactive)
REMARK    1  A    between atoms: C_1  and  C_2
REMARK    2  A    between atoms: C_10  and  C_11
REMARK    3  A    between atoms: C_11  and  O_12
REMARK    4  A    between atoms: O_12  and  C_13
REMARK    5  A    between atoms: C_16  and  S_17
REMARK    6  A    between atoms: S_17  and  C_18
REMARK                            x       y       z     vdW  Elec       q    Type
REMARK                         _______ _______ _______ _____ _____    ______ ____
ROOT
ATOM      1  C   UNL     1      45.126   7.787  11.891  0.00  0.00    +0.000 C 
ATOM      2  C   UNL     1      46.046   6.634  12.287  0.00  0.00    +0.000 C 
ATOM      3  C   UNL     1      47.202   7.154  13.156  0.00  0.00    +0.000 C 
ATOM      4  C   UNL     1      48.070   6.014  13.688  0.00  0.00    +0.000 C 
ATOM      5  N   UNL     1      47.210   5.054  14.356  0.00  0.00    +0.000 N 
ATOM      6  C   UNL     1      47.546   4.571  15.594  0.00  0.00    +0.000 A 
ATOM      7  N   UNL     1      46.762   3.651  16.178  0.00  0.00    +0.000 NA
ATOM      8  C   UNL     1      47.101   3.238  17.414  0.00  0.00    +0.000 A 
ATOM      9  C   UNL     1      48.196   3.706  18.098  0.00  0.00    +0.000 A 
ATOM     10  C   UNL     1      48.941   4.661  17.450  0.00  0.00    +0.000 A 
ATOM     11  N   UNL     1      48.625   5.085  16.209  0.00  0.00    +0.000 NA
ATOM     12  C   UNL     1      46.172   4.434  13.554  0.00  0.00    +0.000 C 
ATOM     13  C   UNL     1      45.253   5.535  13.018  0.00  0.00    +0.000 C 
ENDROOT
BRANCH  10  14
ATOM     14  C   UNL     1      50.121   5.331  18.121  0.00  0.00    +0.000 C 
BRANCH  14  15
ATOM     15  O   UNL     1      51.316   5.109  17.370  0.00  0.00    +0.000 OA
BRANCH  15  16
ATOM     16  C   UNL     1      51.933   3.896  17.532  0.00  0.00    +0.000 A 
ATOM     17  C   UNL     1      51.314   2.643  17.502  0.00  0.00    +0.000 A 
ATOM     18  C   UNL     1      52.066   1.475  17.688  0.00  0.00    +0.000 A 
ATOM     19  C   UNL     1      53.443   1.564  17.903  0.00  0.00    +0.000 A 
ATOM     20  C   UNL     1      54.073   2.807  17.938  0.00  0.00    +0.000 A 
ATOM     21  C   UNL     1      53.314   3.966  17.753  0.00  0.00    +0.000 A 
BRANCH  19  22
ATOM     22  S   UNL     1      54.368   0.095  18.313  0.00  0.00    +0.000 S 
ATOM     23  C   UNL     1      54.969  -0.520  16.764  0.00  0.00    +0.000 C 
ATOM     24  O   UNL     1      55.515   0.508  19.097  0.00  0.00    +0.000 OA
ATOM     25  O   UNL     1      53.423  -0.872  18.832  0.00  0.00    +0.000 OA
ENDBRANCH  19  22
ENDBRANCH  15  16
ENDBRANCH  14  15
ENDBRANCH  10  14
TORSDOF 4
ENDMDL
MODEL 9
REMARK VINA RESULT:    -5.571      4.577      7.258
REMARK INTER + INTRA:          -7.254
REMARK INTER:                  -6.877
REMARK INTRA:                  -0.377
REMARK UNBOUND:                -0.380
REMARK  Name = 
REMARK  6 active torsions:
REMARK  status: ('A' for Active; 'I' for Inactive)
REMARK    1  A    between atoms: C_1  and  C_2
REMARK    2  A    between atoms: C_10  and  C_11
REMARK    3  A    between atoms: C_11  and  O_12
REMARK    4  A    between atoms: O_12  and  C_13
REMARK    5  A    between atoms: C_16  and  S_17
REMARK    6  A    between atoms: S_17  and  C_18
REMARK                            x       y       z     vdW  Elec       q    Type
REMARK                         _______ _______ _______ _____ _____    ______ ____
ROOT
ATOM      1  C   UNL     1      42.650   5.532  11.383  0.00  0.00    +0.000 C 
ATOM      2  C   UNL     1      44.092   5.074  11.586  0.00  0.00    +0.000 C 
ATOM      3  C   UNL     1      44.961   6.252  12.057  0.00  0.00    +0.000 C 
ATOM      4  C   UNL     1      46.381   5.807  12.403  0.00  0.00    +0.000 C 
ATOM      5  N   UNL     1      46.302   4.710  13.351  0.00  0.00    +0.000 N 
ATOM      6  C   UNL     1      47.085   4.712  14.476  0.00  0.00    +0.000 A 
ATOM      7  N   UNL     1      47.031   3.670  15.320  0.00  0.00    +0.000 NA
ATOM      8  C   UNL     1      47.780   3.733  16.437  0.00  0.00    +0.000 A 
ATOM      9  C   UNL     1      48.586   4.800  16.752  0.00  0.00    +0.000 A 
ATOM     10  C   UNL     1      48.576   5.841  15.856  0.00  0.00    +0.000 A 
ATOM     11  N   UNL     1      47.840   5.797  14.727  0.00  0.00    +0.000 NA
ATOM     12  C   UNL     1      45.598   3.518  12.919  0.00  0.00    +0.000 C 
ATOM     13  C   UNL     1      44.154   3.904  12.586  0.00  0.00    +0.000 C 
ENDROOT
BRANCH  10  14
ATOM     14  C   UNL     1      49.346   7.117  16.120  0.00  0.00    +0.000 C 
BRANCH  14  15
ATOM     15  O   UNL     1      48.990   8.123  15.170  0.00  0.00    +0.000 OA
BRANCH  15  16
ATOM     16  C   UNL     1      49.783   8.232  14.058  0.00  0.00    +0.000 A 
ATOM     17  C   UNL     1      49.356   8.169  12.728  0.00  0.00    +0.000 A 
ATOM     18  C   UNL     1      50.279   8.291  11.680  0.00  0.00    +0.000 A 
ATOM     19  C   UNL     1      51.632   8.479  11.966  0.00  0.00    +0.000 A 
ATOM     20  C   UNL     1      52.072   8.543  13.287  0.00  0.00    +0.000 A 
ATOM     21  C   UNL     1      51.145   8.418  14.326  0.00  0.00    +0.000 A 
BRANCH  19  22
ATOM     22  S   UNL     1      52.824   8.459  10.639  0.00  0.00    +0.000 S 
ATOM     23  C   UNL     1      52.453   7.000   9.706  0.00  0.00    +0.000 C 
ATOM     24  O   UNL     1      52.552   9.604   9.793  0.00  0.00    +0.000 OA
ATOM     25  O   UNL     1      54.128   8.276  11.241  0.00  0.00    +0.000 OA
ENDBRANCH  19  22
ENDBRANCH  15  16
ENDBRANCH  14  15
ENDBRANCH  10  14
TORSDOF 4
ENDMDL
