MODEL 1
REMARK VINA RESULT:    -8.135      0.000      0.000
REMARK INTER + INTRA:          -9.177
REMARK INTER:                  -9.561
REMARK INTRA:                   0.385
REMARK UNBOUND:                 0.385
REMARK  Name = 
REMARK  5 active torsions:
REMARK  status: ('A' for Active; 'I' for Inactive)
REMARK    1  A    between atoms: C_1  and  C_2
REMARK    2  A    between atoms: C_2  and  C_3
REMARK    3  A    between atoms: C_2  and  N_4
REMARK    4  A    between atoms: C_2  and  C_14
REMARK    5  A    between atoms: C_8  and  C_9
REMARK                            x       y       z     vdW  Elec       q    Type
REMARK                         _______ _______ _______ _____ _____    ______ ____
ROOT
ATOM      1  N   UNL     1      43.766   4.833   9.860  0.00  0.00    +0.000 N 
ATOM      2  C   UNL     1      44.612   3.950   9.185  0.00  0.00    +0.000 A 
ATOM      3  C   UNL     1      44.810   4.115   7.817  0.00  0.00    +0.000 A 
ATOM      4  C   UNL     1      45.646   3.234   7.121  0.00  0.00    +0.000 A 
ATOM      5  C   UNL     1      46.281   2.198   7.805  0.00  0.00    +0.000 A 
ATOM      6  C   UNL     1      46.019   2.095   9.156  0.00  0.00    +0.000 A 
ATOM      7  N   UNL     1      45.201   2.934   9.838  0.00  0.00    +0.000 NA
ATOM      8  H   UNL     1      44.040   5.787   9.641  0.00  0.00    +0.000 HD
ENDROOT
BRANCH   5   9
ATOM      9  C   UNL     1      47.184   1.270   7.079  0.00  0.00    +0.000 C 
ATOM     10  N   UNL     1      48.275   1.775   6.432  0.00  0.00    +0.000 N 
ATOM     11  O   UNL     1      46.956   0.065   7.053  0.00  0.00    +0.000 OA
ATOM     12  H   UNL     1      48.545   2.743   6.378  0.00  0.00    +0.000 HD
ATOM     13  H   UNL     1      48.860   1.106   5.945  0.00  0.00    +0.000 HD
ENDBRANCH   5   9
BRANCH   1  15
ATOM     14  C   UNL     1      42.291   5.518  11.762  0.00  0.00    +0.000 C 
ATOM     15  C   UNL     1      43.499   4.672  11.311  0.00  0.00    +0.000 C 
ATOM     16  C   UNL     1      43.290   3.177  11.643  0.00  0.00    +0.000 C 
BRANCH  15  17
ATOM     17  C   UNL     1      44.716   5.254  12.086  0.00  0.00    +0.000 A 
ATOM     18  C   UNL     1      45.355   6.442  11.682  0.00  0.00    +0.000 A 
ATOM     19  C   UNL     1      46.518   6.895  12.312  0.00  0.00    +0.000 A 
ATOM     20  C   UNL     1      47.078   6.171  13.363  0.00  0.00    +0.000 A 
ATOM     21 CL   UNL     1      48.533   6.774  14.071  0.00  0.00    +0.000 Cl
ATOM     22  C   UNL     1      46.463   4.990  13.790  0.00  0.00    +0.000 A 
ATOM     23 CL   UNL     1      47.102   4.032  15.079  0.00  0.00    +0.000 Cl
ATOM     24  C   UNL     1      45.299   4.538  13.153  0.00  0.00    +0.000 A 
ENDBRANCH  15  17
ENDBRANCH   1  15
TORSDOF 3
ENDMDL
MODEL 2
REMARK VINA RESULT:    -7.995      0.652      1.555
REMARK INTER + INTRA:          -9.012
REMARK INTER:                  -9.327
REMARK INTRA:                   0.314
REMARK UNBOUND:                 0.385
REMARK  Name = 
REMARK  5 active torsions:
REMARK  status: ('A' for Active; 'I' for Inactive)
REMARK    1  A    between atoms: C_1  and  C_2
REMARK    2  A    between atoms: C_2  and  C_3
REMARK    3  A    between atoms: C_2  and  N_4
REMARK    4  A    between atoms: C_2  and  C_14
REMARK    5  A    between atoms: C_8  and  C_9
REMARK                            x       y       z     vdW  Elec       q    Type
REMARK                         _______ _______ _______ _____ _____    ______ ____
ROOT
ATOM      1  N   UNL     1      43.777   4.755   9.872  0.00  0.00    +0.000 N 
ATOM      2  C   UNL     1      44.625   3.899   9.164  0.00  0.00    +0.000 A 
ATOM      3  C   UNL     1      44.808   4.103   7.799  0.00  0.00    +0.000 A 
ATOM      4  C   UNL     1      45.645   3.250   7.071  0.00  0.00    +0.000 A 
ATOM      5  C   UNL     1      46.296   2.202   7.721  0.00  0.00    +0.000 A 
ATOM      6  C   UNL     1      46.049   2.059   9.071  0.00  0.00    +0.000 A 
ATOM      7  N   UNL     1      45.230   2.871   9.783  0.00  0.00    +0.000 NA
ATOM      8  H   UNL     1      44.040   5.717   9.677  0.00  0.00    +0.000 HD
ENDROOT
BRANCH   5   9
ATOM      9  C   UNL     1      47.201   1.302   6.960  0.00  0.00    +0.000 C 
ATOM     10  N   UNL     1      48.246   1.842   6.267  0.00  0.00    +0.000 N 
ATOM     11  O   UNL     1      47.014   0.090   6.946  0.00  0.00    +0.000 OA
ATOM     12  H   UNL     1      48.479   2.819   6.201  0.00  0.00    +0.000 HD
ATOM     13  H   UNL     1      48.833   1.192   5.759  0.00  0.00    +0.000 HD
ENDBRANCH   5   9
BRANCH   1  15
ATOM     14  C   UNL     1      42.399   5.470  11.834  0.00  0.00    +0.000 C 
ATOM     15  C   UNL     1      43.527   4.552  11.320  0.00  0.00    +0.000 C 
ATOM     16  C   UNL     1      43.205   3.065  11.593  0.00  0.00    +0.000 C 
BRANCH  15  17
ATOM     17  C   UNL     1      44.801   5.002  12.091  0.00  0.00    +0.000 A 
ATOM     18  C   UNL     1      45.317   4.259  13.170  0.00  0.00    +0.000 A 
ATOM     19  C   UNL     1      46.390   4.730  13.932  0.00  0.00    +0.000 A 
ATOM     20  C   UNL     1      46.977   5.960  13.638  0.00  0.00    +0.000 A 
ATOM     21 CL   UNL     1      48.278   6.492  14.642  0.00  0.00    +0.000 Cl
ATOM     22  C   UNL     1      46.490   6.718  12.570  0.00  0.00    +0.000 A 
ATOM     23 CL   UNL     1      47.157   8.256  12.149  0.00  0.00    +0.000 Cl
ATOM     24  C   UNL     1      45.411   6.243  11.811  0.00  0.00    +0.000 A 
ENDBRANCH  15  17
ENDBRANCH   1  15
TORSDOF 3
ENDMDL
MODEL 3
REMARK VINA RESULT:    -7.367      4.125      6.511
REMARK INTER + INTRA:          -8.274
REMARK INTER:                  -8.835
REMARK INTRA:                   0.561
REMARK UNBOUND:                 0.385
REMARK  Name = 
REMARK  5 active torsions:
REMARK  status: ('A' for Active; 'I' for Inactive)
REMARK    1  A    between atoms: C_1  and  C_2
REMARK    2  A    between atoms: C_2  and  C_3
REMARK    3  A    between atoms: C_2  and  N_4
REMARK    4  A    between atoms: C_2  and  C_14
REMARK    5  A    between atoms: C_8  and  C_9
REMARK                            x       y       z     vdW  Elec       q    Type
REMARK                         _______ _______ _______ _____ _____    ______ ____
ROOT
ATOM      1  N   UNL     1      45.259   3.507  12.119  0.00  0.00    +0.000 N 
ATOM      2  C   UNL     1      45.894   4.695  12.491  0.00  0.00    +0.000 A 
ATOM      3  C   UNL     1      46.763   4.688  13.579  0.00  0.00    +0.000 A 
ATOM      4  C   UNL     1      47.399   5.871  13.972  0.00  0.00    +0.000 A 
ATOM      5  C   UNL     1      47.163   7.050  13.267  0.00  0.00    +0.000 A 
ATOM      6  C   UNL     1      46.277   6.975  12.212  0.00  0.00    +0.000 A 
ATOM      7  N   UNL     1      45.644   5.839  11.831  0.00  0.00    +0.000 NA
ATOM      8  H   UNL     1      45.958   2.774  12.026  0.00  0.00    +0.000 HD
ENDROOT
BRANCH   5   9
ATOM      9  C   UNL     1      47.848   8.306  13.666  0.00  0.00    +0.000 C 
ATOM     10  N   UNL     1      47.462   8.938  14.812  0.00  0.00    +0.000 N 
ATOM     11  O   UNL     1      48.746   8.777  12.975  0.00  0.00    +0.000 OA
ATOM     12  H   UNL     1      46.731   8.647  15.439  0.00  0.00    +0.000 HD
ATOM     13  H   UNL     1      47.952   9.794  15.042  0.00  0.00    +0.000 HD
ENDBRANCH   5   9
BRANCH   1  15
ATOM     14  C   UNL     1      43.375   2.245  11.061  0.00  0.00    +0.000 C 
ATOM     15  C   UNL     1      44.299   3.478  10.988  0.00  0.00    +0.000 C 
ATOM     16  C   UNL     1      43.480   4.789  10.963  0.00  0.00    +0.000 C 
BRANCH  15  17
ATOM     17  C   UNL     1      45.114   3.299   9.676  0.00  0.00    +0.000 A 
ATOM     18  C   UNL     1      45.326   4.366   8.782  0.00  0.00    +0.000 A 
ATOM     19  C   UNL     1      45.958   4.171   7.550  0.00  0.00    +0.000 A 
ATOM     20  C   UNL     1      46.393   2.900   7.175  0.00  0.00    +0.000 A 
ATOM     21 CL   UNL     1      47.135   2.729   5.625  0.00  0.00    +0.000 Cl
ATOM     22  C   UNL     1      46.201   1.823   8.043  0.00  0.00    +0.000 A 
ATOM     23 CL   UNL     1      46.703   0.217   7.646  0.00  0.00    +0.000 Cl
ATOM     24  C   UNL     1      45.565   2.023   9.276  0.00  0.00    +0.000 A 
ENDBRANCH  15  17
ENDBRANCH   1  15
TORSDOF 3
ENDMDL
MODEL 4
REMARK VINA RESULT:    -6.367      4.444      6.568
REMARK INTER + INTRA:          -7.099
REMARK INTER:                  -7.691
REMARK INTRA:                   0.592
REMARK UNBOUND:                 0.385
REMARK  Name = 
REMARK  5 active torsions:
REMARK  status: ('A' for Active; 'I' for Inactive)
REMARK    1  A    between atoms: C_1  and  C_2
REMARK    2  A    between atoms: C_2  and  C_3
REMARK    3  A    between atoms: C_2  and  N_4
REMARK    4  A    between atoms: C_2  and  C_14
REMARK    5  A    between atoms: C_8  and  C_9
REMARK                            x       y       z     vdW  Elec       q    Type
REMARK                         _______ _______ _______ _____ _____    ______ ____
ROOT
ATOM      1  N   UNL     1      45.021   4.612  12.992  0.00  0.00    +0.000 N 
ATOM      2  C   UNL     1      46.147   5.229  13.544  0.00  0.00    +0.000 A 
ATOM      3  C   UNL     1      46.758   4.654  14.655  0.00  0.00    +0.000 A 
ATOM      4  C   UNL     1      47.880   5.263  15.227  0.00  0.00    +0.000 A 
ATOM      5  C   UNL     1      48.384   6.441  14.677  0.00  0.00    +0.000 A 
ATOM      6  C   UNL     1      47.711   6.953  13.586  0.00  0.00    +0.000 A 
ATOM      7  N   UNL     1      46.615   6.380  13.032  0.00  0.00    +0.000 NA
ATOM      8  H   UNL     1      45.227   3.630  12.830  0.00  0.00    +0.000 HD
ENDROOT
BRANCH   5   9
ATOM      9  C   UNL     1      49.586   7.084  15.266  0.00  0.00    +0.000 C 
ATOM     10  N   UNL     1      50.610   7.458  14.445  0.00  0.00    +0.000 N 
ATOM     11  O   UNL     1      49.666   7.274  16.476  0.00  0.00    +0.000 OA
ATOM     12  H   UNL     1      50.652   7.335  13.447  0.00  0.00    +0.000 HD
ATOM     13  H   UNL     1      51.412   7.887  14.891  0.00  0.00    +0.000 HD
ENDBRANCH   5   9
BRANCH   1  15
ATOM     14  C   UNL     1      42.840   4.774  11.776  0.00  0.00    +0.000 C 
ATOM     15  C   UNL     1      44.319   5.210  11.829  0.00  0.00    +0.000 C 
ATOM     16  C   UNL     1      44.446   6.750  11.876  0.00  0.00    +0.000 C 
BRANCH  15  17
ATOM     17  C   UNL     1      44.961   4.631  10.536  0.00  0.00    +0.000 A 
ATOM     18  C   UNL     1      45.632   5.452   9.609  0.00  0.00    +0.000 A 
ATOM     19  C   UNL     1      46.103   4.945   8.394  0.00  0.00    +0.000 A 
ATOM     20  C   UNL     1      45.914   3.602   8.070  0.00  0.00    +0.000 A 
ATOM     21 CL   UNL     1      46.493   3.055   6.538  0.00  0.00    +0.000 Cl
ATOM     22  C   UNL     1      45.255   2.762   8.972  0.00  0.00    +0.000 A 
ATOM     23 CL   UNL     1      44.972   1.090   8.638  0.00  0.00    +0.000 Cl
ATOM     24  C   UNL     1      44.782   3.276  10.188  0.00  0.00    +0.000 A 
ENDBRANCH  15  17
ENDBRANCH   1  15
TORSDOF 3
ENDMDL
MODEL 5
REMARK VINA RESULT:    -5.897      4.251      6.280
REMARK INTER + INTRA:          -6.547
REMARK INTER:                  -7.197
REMARK INTRA:                   0.650
REMARK UNBOUND:                 0.385
REMARK  Name = 
REMARK  5 active torsions:
REMARK  status: ('A' for Active; 'I' for Inactive)
REMARK    1  A    between atoms: C_1  and  C_2
REMARK    2  A    between atoms: C_2  and  C_3
REMARK    3  A    between atoms: C_2  and  N_4
REMARK    4  A    between atoms: C_2  and  C_14
REMARK    5  A    between atoms: C_8  and  C_9
REMARK                            x       y       z     vdW  Elec       q    Type
REMARK                         _______ _______ _______ _____ _____    ______ ____
ROOT
ATOM      1  N   UNL     1      45.334   5.661  13.012  0.00  0.00    +0.000 N 
ATOM      2  C   UNL     1      46.586   6.264  12.867  0.00  0.00    +0.000 A 
ATOM      3  C   UNL     1      47.510   6.165  13.904  0.00  0.00    +0.000 A 
ATOM      4  C   UNL     1      48.766   6.770  13.781  0.00  0.00    +0.000 A 
ATOM      5  C   UNL     1      49.086   7.467  12.616  0.00  0.00    +0.000 A 
ATOM      6  C   UNL     1      48.109   7.531  11.644  0.00  0.00    +0.000 A 
ATOM      7  N   UNL     1      46.885   6.960  11.757  0.00  0.00    +0.000 NA
ATOM      8  H   UNL     1      45.463   4.694  13.297  0.00  0.00    +0.000 HD
ENDROOT
BRANCH   5   9
ATOM      9  C   UNL     1      50.423   8.097  12.470  0.00  0.00    +0.000 C 
ATOM     10  N   UNL     1      51.263   7.653  11.489  0.00  0.00    +0.000 N 
ATOM     11  O   UNL     1      50.775   9.002  13.220  0.00  0.00    +0.000 OA
ATOM     12  H   UNL     1      51.079   6.912  10.834  0.00  0.00    +0.000 HD
ATOM     13  H   UNL     1      52.166   8.108  11.430  0.00  0.00    +0.000 HD
ENDBRANCH   5   9
BRANCH   1  15
ATOM     14  C   UNL     1      42.892   5.494  12.492  0.00  0.00    +0.000 C 
ATOM     15  C   UNL     1      44.308   5.773  11.946  0.00  0.00    +0.000 C 
ATOM     16  C   UNL     1      44.388   7.168  11.286  0.00  0.00    +0.000 C 
BRANCH  15  17
ATOM     17  C   UNL     1      44.574   4.645  10.909  0.00  0.00    +0.000 A 
ATOM     18  C   UNL     1      44.184   3.312  11.144  0.00  0.00    +0.000 A 
ATOM     19  C   UNL     1      44.531   2.285  10.261  0.00  0.00    +0.000 A 
ATOM     20  C   UNL     1      45.281   2.560   9.119  0.00  0.00    +0.000 A 
ATOM     21 CL   UNL     1      45.699   1.235   8.093  0.00  0.00    +0.000 Cl
ATOM     22  C   UNL     1      45.679   3.874   8.857  0.00  0.00    +0.000 A 
ATOM     23 CL   UNL     1      46.619   4.293   7.468  0.00  0.00    +0.000 Cl
ATOM     24  C   UNL     1      45.332   4.900   9.746  0.00  0.00    +0.000 A 
ENDBRANCH  15  17
ENDBRANCH   1  15
TORSDOF 3
ENDMDL
MODEL 6
REMARK VINA RESULT:    -5.891      3.630      5.599
REMARK INTER + INTRA:          -6.539
REMARK INTER:                  -6.889
REMARK INTRA:                   0.350
REMARK UNBOUND:                 0.385
REMARK  Name = 
REMARK  5 active torsions:
REMARK  status: ('A' for Active; 'I' for Inactive)
REMARK    1  A    between atoms: C_1  and  C_2
REMARK    2  A    between atoms: C_2  and  C_3
REMARK    3  A    between atoms: C_2  and  N_4
REMARK    4  A    between atoms: C_2  and  C_14
REMARK    5  A    between atoms: C_8  and  C_9
REMARK                            x       y       z     vdW  Elec       q    Type
REMARK                         _______ _______ _______ _____ _____    ______ ____
ROOT
ATOM      1  N   UNL     1      47.292   6.182  14.031  0.00  0.00    +0.000 N 
ATOM      2  C   UNL     1      46.548   5.569  13.020  0.00  0.00    +0.000 A 
ATOM      3  C   UNL     1      46.005   4.308  13.247  0.00  0.00    +0.000 A 
ATOM      4  C   UNL     1      45.264   3.674  12.242  0.00  0.00    +0.000 A 
ATOM      5  C   UNL     1      45.070   4.314  11.019  0.00  0.00    +0.000 A 
ATOM      6  C   UNL     1      45.655   5.555  10.869  0.00  0.00    +0.000 A 
ATOM      7  N   UNL     1      46.385   6.173  11.830  0.00  0.00    +0.000 NA
ATOM      8  H   UNL     1      46.756   6.163  14.894  0.00  0.00    +0.000 HD
ENDROOT
BRANCH   5   9
ATOM      9  C   UNL     1      44.271   3.658   9.954  0.00  0.00    +0.000 C 
ATOM     10  N   UNL     1      44.046   4.326   8.785  0.00  0.00    +0.000 N 
ATOM     11  O   UNL     1      43.811   2.532  10.118  0.00  0.00    +0.000 OA
ATOM     12  H   UNL     1      44.363   5.253   8.555  0.00  0.00    +0.000 HD
ATOM     13  H   UNL     1      43.491   3.843   8.089  0.00  0.00    +0.000 HD
ENDBRANCH   5   9
BRANCH   1  15
ATOM     14  C   UNL     1      49.044   7.444  12.766  0.00  0.00    +0.000 C 
ATOM     15  C   UNL     1      47.917   7.510  13.818  0.00  0.00    +0.000 C 
ATOM     16  C   UNL     1      46.836   8.539  13.414  0.00  0.00    +0.000 C 
BRANCH  15  17
ATOM     17  C   UNL     1      48.620   7.924  15.142  0.00  0.00    +0.000 A 
ATOM     18  C   UNL     1      49.614   7.123  15.737  0.00  0.00    +0.000 A 
ATOM     19  C   UNL     1      50.156   7.442  16.985  0.00  0.00    +0.000 A 
ATOM     20  C   UNL     1      49.718   8.571  17.676  0.00  0.00    +0.000 A 
ATOM     21 CL   UNL     1      50.410   8.883  19.228  0.00  0.00    +0.000 Cl
ATOM     22  C   UNL     1      48.737   9.388  17.109  0.00  0.00    +0.000 A 
ATOM     23 CL   UNL     1      48.135  10.797  17.908  0.00  0.00    +0.000 Cl
ATOM     24  C   UNL     1      48.193   9.062  15.859  0.00  0.00    +0.000 A 
ENDBRANCH  15  17
ENDBRANCH   1  15
TORSDOF 3
ENDMDL
MODEL 7
REMARK VINA RESULT:    -5.800      3.560      5.406
REMARK INTER + INTRA:          -6.432
REMARK INTER:                  -6.736
REMARK INTRA:                   0.304
REMARK UNBOUND:                 0.385
REMARK  Name = 
REMARK  5 active torsions:
REMARK  status: ('A' for Active; 'I' for Inactive)
REMARK    1  A    between atoms: C_1  and  C_2
REMARK    2  A    between atoms: C_2  and  C_3
REMARK    3  A    between atoms: C_2  and  N_4
REMARK    4  A    between atoms: C_2  and  C_14
REMARK    5  A    between atoms: C_8  and  C_9
REMARK                            x       y       z     vdW  Elec       q    Type
REMARK                         _______ _______ _______ _____ _____    ______ ____
ROOT
ATOM      1  N   UNL     1      47.214   6.181  14.072  0.00  0.00    +0.000 N 
ATOM      2  C   UNL     1      46.494   5.581  13.035  0.00  0.00    +0.000 A 
ATOM      3  C   UNL     1      45.864   4.361  13.265  0.00  0.00    +0.000 A 
ATOM      4  C   UNL     1      45.147   3.740  12.236  0.00  0.00    +0.000 A 
ATOM      5  C   UNL     1      45.063   4.352  10.986  0.00  0.00    +0.000 A 
ATOM      6  C   UNL     1      45.728   5.552  10.837  0.00  0.00    +0.000 A 
ATOM      7  N   UNL     1      46.437   6.155  11.822  0.00  0.00    +0.000 NA
ATOM      8  H   UNL     1      46.628   6.220  14.902  0.00  0.00    +0.000 HD
ENDROOT
BRANCH   5   9
ATOM      9  C   UNL     1      44.289   3.710   9.893  0.00  0.00    +0.000 C 
ATOM     10  N   UNL     1      44.062   4.407   8.741  0.00  0.00    +0.000 N 
ATOM     11  O   UNL     1      43.852   2.571  10.020  0.00  0.00    +0.000 OA
ATOM     12  H   UNL     1      44.361   5.347   8.542  0.00  0.00    +0.000 HD
ATOM     13  H   UNL     1      43.525   3.932   8.026  0.00  0.00    +0.000 HD
ENDBRANCH   5   9
BRANCH   1  15
ATOM     14  C   UNL     1      48.989   7.343  12.746  0.00  0.00    +0.000 C 
ATOM     15  C   UNL     1      47.929   7.463  13.860  0.00  0.00    +0.000 C 
ATOM     16  C   UNL     1      46.911   8.583  13.543  0.00  0.00    +0.000 C 
BRANCH  15  17
ATOM     17  C   UNL     1      48.731   7.782  15.154  0.00  0.00    +0.000 A 
ATOM     18  C   UNL     1      48.948   9.103  15.587  0.00  0.00    +0.000 A 
ATOM     19  C   UNL     1      49.768   9.386  16.683  0.00  0.00    +0.000 A 
ATOM     20  C   UNL     1      50.397   8.353  17.377  0.00  0.00    +0.000 A 
ATOM     21 CL   UNL     1      51.421   8.780  18.701  0.00  0.00    +0.000 Cl
ATOM     22  C   UNL     1      50.197   7.030  16.974  0.00  0.00    +0.000 A 
ATOM     23 CL   UNL     1      50.950   5.697  17.775  0.00  0.00    +0.000 Cl
ATOM     24  C   UNL     1      49.377   6.752  15.872  0.00  0.00    +0.000 A 
ENDBRANCH  15  17
ENDBRANCH   1  15
TORSDOF 3
ENDMDL
MODEL 8
REMARK VINA RESULT:    -5.734      6.447      8.633
REMARK INTER + INTRA:          -6.355
REMARK INTER:                  -7.110
REMARK INTRA:                   0.755
REMARK UNBOUND:                 0.385
REMARK  Name = 
REMARK  5 active torsions:
REMARK  status: ('A' for Active; 'I' for Inactive)
REMARK    1  A    between atoms: C_1  and  C_2
REMARK    2  A    between atoms: C_2  and  C_3
REMARK    3  A    between atoms: C_2  and  N_4
REMARK    4  A    between atoms: C_2  and  C_14
REMARK    5  A    between atoms: C_8  and  C_9
REMARK                            x       y       z     vdW  Elec       q    Type
REMARK                         _______ _______ _______ _____ _____    ______ ____
ROOT
ATOM      1  N   UNL     1      49.470   4.830  17.849  0.00  0.00    +0.000 N 
ATOM      2  C   UNL     1      50.387   3.778  17.783  0.00  0.00    +0.000 A 
ATOM      3  C   UNL     1      51.714   4.011  18.134  0.00  0.00    +0.000 A 
ATOM      4  C   UNL     1      52.648   2.971  18.065  0.00  0.00    +0.000 A 
ATOM      5  C   UNL     1      52.242   1.704  17.650  0.00  0.00    +0.000 A 
ATOM      6  C   UNL     1      50.913   1.561  17.305  0.00  0.00    +0.000 A 
ATOM      7  N   UNL     1      50.002   2.563  17.355  0.00  0.00    +0.000 NA
ATOM      8  H   UNL     1      49.536   5.271  18.763  0.00  0.00    +0.000 HD
ENDROOT
BRANCH   5   9
ATOM      9  C   UNL     1      53.222   0.590  17.591  0.00  0.00    +0.000 C 
ATOM     10  N   UNL     1      53.025  -0.511  18.374  0.00  0.00    +0.000 N 
ATOM     11  O   UNL     1      54.201   0.654  16.855  0.00  0.00    +0.000 OA
ATOM     12  H   UNL     1      52.267  -0.657  19.021  0.00  0.00    +0.000 HD
ATOM     13  H   UNL     1      53.721  -1.243  18.306  0.00  0.00    +0.000 HD
ENDBRANCH   5   9
BRANCH   1  15
ATOM     14  C   UNL     1      47.664   3.141  17.470  0.00  0.00    +0.000 C 
ATOM     15  C   UNL     1      48.055   4.633  17.451  0.00  0.00    +0.000 C 
ATOM     16  C   UNL     1      47.132   5.465  18.371  0.00  0.00    +0.000 C 
BRANCH  15  17
ATOM     17  C   UNL     1      47.912   5.073  15.966  0.00  0.00    +0.000 A 
ATOM     18  C   UNL     1      48.509   6.252  15.479  0.00  0.00    +0.000 A 
ATOM     19  C   UNL     1      48.279   6.701  14.175  0.00  0.00    +0.000 A 
ATOM     20  C   UNL     1      47.441   5.985  13.321  0.00  0.00    +0.000 A 
ATOM     21 CL   UNL     1      47.178   6.618  11.736  0.00  0.00    +0.000 Cl
ATOM     22  C   UNL     1      46.838   4.809  13.774  0.00  0.00    +0.000 A 
ATOM     23 CL   UNL     1      45.779   3.873  12.779  0.00  0.00    +0.000 Cl
ATOM     24  C   UNL     1      47.069   4.364  15.083  0.00  0.00    +0.000 A 
ENDBRANCH  15  17
ENDBRANCH   1  15
TORSDOF 3
ENDMDL
