MODEL 1
REMARK VINA RESULT:    -7.731      0.000      0.000
REMARK INTER + INTRA:         -11.224
REMARK INTER:                 -10.895
REMARK INTRA:                  -0.329
REMARK UNBOUND:                -0.329
REMARK  Name = 
REMARK  10 active torsions:
REMARK  status: ('A' for Active; 'I' for Inactive)
REMARK    1  A    between atoms: C_1  and  O_2
REMARK    2  A    between atoms: O_2  and  C_3
REMARK    3  A    between atoms: C_3  and  C_5
REMARK    4  A    between atoms: C_8  and  O_9
REMARK    5  A    between atoms: O_9  and  C_10
REMARK    6  A    between atoms: C_10  and  C_11
REMARK    7  A    between atoms: C_11  and  C_12
REMARK    8  A    between atoms: C_11  and  C_13
REMARK    9  A    between atoms: C_11  and  C_14
REMARK   10  A    between atoms: C_18  and  C_19
REMARK                            x       y       z     vdW  Elec       q    Type
REMARK                         _______ _______ _______ _____ _____    ______ ____
ROOT
ATOM      1  C   UNL     1      43.983   4.830  12.208  0.00  0.00    +0.000 C 
ATOM      2  C   UNL     1      42.912   5.571  13.036  0.00  0.00    +0.000 C 
ATOM      3  C   UNL     1      43.700   3.314  12.346  0.00  0.00    +0.000 C 
ENDROOT
BRANCH   1   4
ATOM      4  C   UNL     1      45.396   5.232  12.699  0.00  0.00    +0.000 A 
ATOM      5  C   UNL     1      46.182   6.184  12.029  0.00  0.00    +0.000 A 
ATOM      6  C   UNL     1      47.428   6.581  12.526  0.00  0.00    +0.000 A 
ATOM      7  C   UNL     1      47.910   6.048  13.718  0.00  0.00    +0.000 A 
ATOM      8  C   UNL     1      47.154   5.104  14.412  0.00  0.00    +0.000 A 
ATOM      9  C   UNL     1      45.924   4.675  13.884  0.00  0.00    +0.000 A 
BRANCH   8  10
ATOM     10  C   UNL     1      47.681   4.606  15.711  0.00  0.00    +0.000 C 
ATOM     11  N   UNL     1      46.959   3.639  16.356  0.00  0.00    +0.000 N 
ATOM     12  O   UNL     1      48.689   5.076  16.223  0.00  0.00    +0.000 OA
ATOM     13  H   UNL     1      46.009   3.411  16.104  0.00  0.00    +0.000 HD
ATOM     14  H   UNL     1      47.253   3.426  17.301  0.00  0.00    +0.000 HD
ENDBRANCH   8  10
ENDBRANCH   1   4
BRANCH   1  15
ATOM     15  C   UNL     1      43.851   5.209  10.703  0.00  0.00    +0.000 C 
BRANCH  15  16
ATOM     16  O   UNL     1      43.335   4.123   9.917  0.00  0.00    +0.000 OA
BRANCH  16  20
ATOM     17  C   UNL     1      46.329   2.184   7.842  0.00  0.00    +0.000 A 
ATOM     18  C   UNL     1      46.251   3.579   7.803  0.00  0.00    +0.000 A 
ATOM     19  C   UNL     1      45.235   4.228   8.510  0.00  0.00    +0.000 A 
ATOM     20  C   UNL     1      44.336   3.457   9.233  0.00  0.00    +0.000 A 
ATOM     21  N   UNL     1      44.394   2.110   9.295  0.00  0.00    +0.000 NA
ATOM     22  C   UNL     1      45.384   1.505   8.598  0.00  0.00    +0.000 A 
BRANCH  17  23
ATOM     23  C   UNL     1      47.347   1.379   7.135  0.00  0.00    +0.000 C 
ATOM     24  O   UNL     1      47.346   0.158   7.136  0.00  0.00    +0.000 OA
BRANCH  23  26
ATOM     25  C   UNL     1      47.842   2.560   5.193  0.00  0.00    +0.000 C 
ATOM     26  O   UNL     1      48.247   2.173   6.508  0.00  0.00    +0.000 OA
ENDBRANCH  23  26
ENDBRANCH  17  23
ENDBRANCH  16  20
ENDBRANCH  15  16
ENDBRANCH   1  15
TORSDOF 7
ENDMDL
MODEL 2
REMARK VINA RESULT:    -7.390      2.581      6.592
REMARK INTER + INTRA:         -10.743
REMARK INTER:                  -9.603
REMARK INTRA:                  -1.139
REMARK UNBOUND:                -0.329
REMARK  Name = 
REMARK  10 active torsions:
REMARK  status: ('A' for Active; 'I' for Inactive)
REMARK    1  A    between atoms: C_1  and  O_2
REMARK    2  A    between atoms: O_2  and  C_3
REMARK    3  A    between atoms: C_3  and  C_5
REMARK    4  A    between atoms: C_8  and  O_9
REMARK    5  A    between atoms: O_9  and  C_10
REMARK    6  A    between atoms: C_10  and  C_11
REMARK    7  A    between atoms: C_11  and  C_12
REMARK    8  A    between atoms: C_11  and  C_13
REMARK    9  A    between atoms: C_11  and  C_14
REMARK   10  A    between atoms: C_18  and  C_19
REMARK                            x       y       z     vdW  Elec       q    Type
REMARK                         _______ _______ _______ _____ _____    ______ ____
ROOT
ATOM      1  C   UNL     1      44.106   3.443  11.312  0.00  0.00    +0.000 C 
ATOM      2  C   UNL     1      43.402   2.077  11.456  0.00  0.00    +0.000 C 
ATOM      3  C   UNL     1      43.017   4.535  11.440  0.00  0.00    +0.000 C 
ENDROOT
BRANCH   1   4
ATOM      4  C   UNL     1      44.869   3.499   9.965  0.00  0.00    +0.000 A 
ATOM      5  C   UNL     1      45.111   4.706   9.287  0.00  0.00    +0.000 A 
ATOM      6  C   UNL     1      45.860   4.742   8.107  0.00  0.00    +0.000 A 
ATOM      7  C   UNL     1      46.402   3.572   7.584  0.00  0.00    +0.000 A 
ATOM      8  C   UNL     1      46.186   2.357   8.233  0.00  0.00    +0.000 A 
ATOM      9  C   UNL     1      45.394   2.321   9.394  0.00  0.00    +0.000 A 
BRANCH   8  10
ATOM     10  C   UNL     1      46.834   1.140   7.671  0.00  0.00    +0.000 C 
ATOM     11  N   UNL     1      47.774   1.321   6.693  0.00  0.00    +0.000 N 
ATOM     12  O   UNL     1      46.506   0.014   8.020  0.00  0.00    +0.000 OA
ATOM     13  H   UNL     1      47.887   2.196   6.203  0.00  0.00    +0.000 HD
ATOM     14  H   UNL     1      48.088   0.481   6.224  0.00  0.00    +0.000 HD
ENDBRANCH   8  10
ENDBRANCH   1   4
BRANCH   1  15
ATOM     15  C   UNL     1      45.126   3.641  12.472  0.00  0.00    +0.000 C 
BRANCH  15  16
ATOM     16  O   UNL     1      44.988   4.927  13.097  0.00  0.00    +0.000 OA
BRANCH  16  20
ATOM     17  C   UNL     1      48.144   7.431  12.201  0.00  0.00    +0.000 A 
ATOM     18  C   UNL     1      46.862   7.739  11.738  0.00  0.00    +0.000 A 
ATOM     19  C   UNL     1      45.799   6.887  12.047  0.00  0.00    +0.000 A 
ATOM     20  C   UNL     1      46.056   5.759  12.812  0.00  0.00    +0.000 A 
ATOM     21  N   UNL     1      47.282   5.442  13.279  0.00  0.00    +0.000 NA
ATOM     22  C   UNL     1      48.296   6.280  12.962  0.00  0.00    +0.000 A 
BRANCH  17  23
ATOM     23  C   UNL     1      49.351   8.242  11.938  0.00  0.00    +0.000 C 
ATOM     24  O   UNL     1      50.346   7.793  11.393  0.00  0.00    +0.000 OA
BRANCH  23  26
ATOM     25  C   UNL     1      49.361  10.493  11.351  0.00  0.00    +0.000 C 
ATOM     26  O   UNL     1      49.189   9.513  12.377  0.00  0.00    +0.000 OA
ENDBRANCH  23  26
ENDBRANCH  17  23
ENDBRANCH  16  20
ENDBRANCH  15  16
ENDBRANCH   1  15
TORSDOF 7
ENDMDL
MODEL 3
REMARK VINA RESULT:    -7.350      3.300      5.950
REMARK INTER + INTRA:         -10.687
REMARK INTER:                  -9.917
REMARK INTRA:                  -0.770
REMARK UNBOUND:                -0.329
REMARK  Name = 
REMARK  10 active torsions:
REMARK  status: ('A' for Active; 'I' for Inactive)
REMARK    1  A    between atoms: C_1  and  O_2
REMARK    2  A    between atoms: O_2  and  C_3
REMARK    3  A    between atoms: C_3  and  C_5
REMARK    4  A    between atoms: C_8  and  O_9
REMARK    5  A    between atoms: O_9  and  C_10
REMARK    6  A    between atoms: C_10  and  C_11
REMARK    7  A    between atoms: C_11  and  C_12
REMARK    8  A    between atoms: C_11  and  C_13
REMARK    9  A    between atoms: C_11  and  C_14
REMARK   10  A    between atoms: C_18  and  C_19
REMARK                            x       y       z     vdW  Elec       q    Type
REMARK                         _______ _______ _______ _____ _____    ______ ____
ROOT
ATOM      1  C   UNL     1      48.088   4.175  17.262  0.00  0.00    +0.000 C 
ATOM      2  C   UNL     1      47.556   5.209  18.275  0.00  0.00    +0.000 C 
ATOM      3  C   UNL     1      47.342   2.845  17.529  0.00  0.00    +0.000 C 
ENDROOT
BRANCH   1   4
ATOM      4  C   UNL     1      49.625   4.048  17.400  0.00  0.00    +0.000 A 
ATOM      5  C   UNL     1      50.458   5.163  17.596  0.00  0.00    +0.000 A 
ATOM      6  C   UNL     1      51.837   5.019  17.785  0.00  0.00    +0.000 A 
ATOM      7  C   UNL     1      52.414   3.753  17.802  0.00  0.00    +0.000 A 
ATOM      8  C   UNL     1      51.618   2.624  17.616  0.00  0.00    +0.000 A 
ATOM      9  C   UNL     1      50.240   2.777  17.381  0.00  0.00    +0.000 A 
BRANCH   8  10
ATOM     10  C   UNL     1      52.269   1.289  17.701  0.00  0.00    +0.000 C 
ATOM     11  N   UNL     1      51.506   0.242  18.142  0.00  0.00    +0.000 N 
ATOM     12  O   UNL     1      53.455   1.131  17.444  0.00  0.00    +0.000 OA
ATOM     13  H   UNL     1      50.617   0.373  18.600  0.00  0.00    +0.000 HD
ATOM     14  H   UNL     1      52.006  -0.617  18.334  0.00  0.00    +0.000 HD
ENDBRANCH   8  10
ENDBRANCH   1   4
BRANCH   1  15
ATOM     15  C   UNL     1      47.754   4.630  15.810  0.00  0.00    +0.000 C 
BRANCH  15  16
ATOM     16  O   UNL     1      47.508   3.515  14.938  0.00  0.00    +0.000 OA
BRANCH  16  20
ATOM     17  C   UNL     1      45.286   4.656  11.653  0.00  0.00    +0.000 A 
ATOM     18  C   UNL     1      46.055   5.604  12.333  0.00  0.00    +0.000 A 
ATOM     19  C   UNL     1      46.806   5.209  13.443  0.00  0.00    +0.000 A 
ATOM     20  C   UNL     1      46.763   3.878  13.831  0.00  0.00    +0.000 A 
ATOM     21  N   UNL     1      46.035   2.940  13.189  0.00  0.00    +0.000 NA
ATOM     22  C   UNL     1      45.313   3.349  12.119  0.00  0.00    +0.000 A 
BRANCH  17  23
ATOM     23  C   UNL     1      44.443   4.944  10.474  0.00  0.00    +0.000 C 
ATOM     24  O   UNL     1      43.240   5.138  10.549  0.00  0.00    +0.000 OA
BRANCH  23  26
ATOM     25  C   UNL     1      44.976   3.815   8.511  0.00  0.00    +0.000 C 
ATOM     26  O   UNL     1      45.182   4.961   9.340  0.00  0.00    +0.000 OA
ENDBRANCH  23  26
ENDBRANCH  17  23
ENDBRANCH  16  20
ENDBRANCH  15  16
ENDBRANCH   1  15
TORSDOF 7
ENDMDL
MODEL 4
REMARK VINA RESULT:    -6.786      2.597      5.163
REMARK INTER + INTRA:          -9.892
REMARK INTER:                  -8.832
REMARK INTRA:                  -1.059
REMARK UNBOUND:                -0.329
REMARK  Name = 
REMARK  10 active torsions:
REMARK  status: ('A' for Active; 'I' for Inactive)
REMARK    1  A    between atoms: C_1  and  O_2
REMARK    2  A    between atoms: O_2  and  C_3
REMARK    3  A    between atoms: C_3  and  C_5
REMARK    4  A    between atoms: C_8  and  O_9
REMARK    5  A    between atoms: O_9  and  C_10
REMARK    6  A    between atoms: C_10  and  C_11
REMARK    7  A    between atoms: C_11  and  C_12
REMARK    8  A    between atoms: C_11  and  C_13
REMARK    9  A    between atoms: C_11  and  C_14
REMARK   10  A    between atoms: C_18  and  C_19
REMARK                            x       y       z     vdW  Elec       q    Type
REMARK                         _______ _______ _______ _____ _____    ______ ____
ROOT
ATOM      1  C   UNL     1      48.945   7.538  14.760  0.00  0.00    +0.000 C 
ATOM      2  C   UNL     1      50.461   7.767  14.587  0.00  0.00    +0.000 C 
ATOM      3  C   UNL     1      48.265   8.928  14.720  0.00  0.00    +0.000 C 
ENDROOT
BRANCH   1   4
ATOM      4  C   UNL     1      48.677   6.768  16.077  0.00  0.00    +0.000 A 
ATOM      5  C   UNL     1      48.668   7.402  17.331  0.00  0.00    +0.000 A 
ATOM      6  C   UNL     1      48.358   6.700  18.500  0.00  0.00    +0.000 A 
ATOM      7  C   UNL     1      48.031   5.348  18.442  0.00  0.00    +0.000 A 
ATOM      8  C   UNL     1      48.025   4.689  17.213  0.00  0.00    +0.000 A 
ATOM      9  C   UNL     1      48.382   5.388  16.047  0.00  0.00    +0.000 A 
BRANCH   8  10
ATOM     10  C   UNL     1      47.612   3.259  17.191  0.00  0.00    +0.000 C 
ATOM     11  N   UNL     1      48.547   2.338  16.806  0.00  0.00    +0.000 N 
ATOM     12  O   UNL     1      46.466   2.914  17.448  0.00  0.00    +0.000 OA
ATOM     13  H   UNL     1      49.408   2.596  16.347  0.00  0.00    +0.000 HD
ATOM     14  H   UNL     1      48.203   1.398  16.653  0.00  0.00    +0.000 HD
ENDBRANCH   8  10
ENDBRANCH   1   4
BRANCH   1  15
ATOM     15  C   UNL     1      48.393   6.698  13.570  0.00  0.00    +0.000 C 
BRANCH  15  16
ATOM     16  O   UNL     1      47.156   7.225  13.065  0.00  0.00    +0.000 OA
BRANCH  16  20
ATOM     17  C   UNL     1      44.811   4.240  11.447  0.00  0.00    +0.000 A 
ATOM     18  C   UNL     1      45.465   4.024  12.664  0.00  0.00    +0.000 A 
ATOM     19  C   UNL     1      46.255   5.042  13.205  0.00  0.00    +0.000 A 
ATOM     20  C   UNL     1      46.360   6.238  12.512  0.00  0.00    +0.000 A 
ATOM     21  N   UNL     1      45.734   6.475  11.340  0.00  0.00    +0.000 NA
ATOM     22  C   UNL     1      44.978   5.473  10.834  0.00  0.00    +0.000 A 
BRANCH  17  23
ATOM     23  C   UNL     1      43.955   3.246  10.765  0.00  0.00    +0.000 C 
ATOM     24  O   UNL     1      43.116   2.580  11.351  0.00  0.00    +0.000 OA
BRANCH  23  26
ATOM     25  C   UNL     1      45.089   2.105   9.086  0.00  0.00    +0.000 C 
ATOM     26  O   UNL     1      44.232   3.192   9.441  0.00  0.00    +0.000 OA
ENDBRANCH  23  26
ENDBRANCH  17  23
ENDBRANCH  16  20
ENDBRANCH  15  16
ENDBRANCH   1  15
TORSDOF 7
ENDMDL
MODEL 5
REMARK VINA RESULT:    -6.572      3.674      6.636
REMARK INTER + INTRA:          -9.590
REMARK INTER:                  -8.568
REMARK INTRA:                  -1.021
REMARK UNBOUND:                -0.329
REMARK  Name = 
REMARK  10 active torsions:
REMARK  status: ('A' for Active; 'I' for Inactive)
REMARK    1  A    between atoms: C_1  and  O_2
REMARK    2  A    between atoms: O_2  and  C_3
REMARK    3  A    between atoms: C_3  and  C_5
REMARK    4  A    between atoms: C_8  and  O_9
REMARK    5  A    between atoms: O_9  and  C_10
REMARK    6  A    between atoms: C_10  and  C_11
REMARK    7  A    between atoms: C_11  and  C_12
REMARK    8  A    between atoms: C_11  and  C_13
REMARK    9  A    between atoms: C_11  and  C_14
REMARK   10  A    between atoms: C_18  and  C_19
REMARK                            x       y       z     vdW  Elec       q    Type
REMARK                         _______ _______ _______ _____ _____    ______ ____
ROOT
ATOM      1  C   UNL     1      49.820   7.265  16.779  0.00  0.00    +0.000 C 
ATOM      2  C   UNL     1      51.330   7.102  16.509  0.00  0.00    +0.000 C 
ATOM      3  C   UNL     1      49.661   8.378  17.843  0.00  0.00    +0.000 C 
ENDROOT
BRANCH   1   4
ATOM      4  C   UNL     1      49.217   5.909  17.222  0.00  0.00    +0.000 A 
ATOM      5  C   UNL     1      47.934   5.804  17.785  0.00  0.00    +0.000 A 
ATOM      6  C   UNL     1      47.383   4.561  18.116  0.00  0.00    +0.000 A 
ATOM      7  C   UNL     1      48.095   3.391  17.874  0.00  0.00    +0.000 A 
ATOM      8  C   UNL     1      49.369   3.457  17.312  0.00  0.00    +0.000 A 
ATOM      9  C   UNL     1      49.936   4.711  17.023  0.00  0.00    +0.000 A 
BRANCH   8  10
ATOM     10  C   UNL     1      50.069   2.178  17.016  0.00  0.00    +0.000 C 
ATOM     11  N   UNL     1      51.040   1.773  17.891  0.00  0.00    +0.000 N 
ATOM     12  O   UNL     1      49.836   1.533  16.002  0.00  0.00    +0.000 OA
ATOM     13  H   UNL     1      51.436   2.388  18.586  0.00  0.00    +0.000 HD
ATOM     14  H   UNL     1      51.602   0.986  17.592  0.00  0.00    +0.000 HD
ENDBRANCH   8  10
ENDBRANCH   1   4
BRANCH   1  15
ATOM     15  C   UNL     1      49.094   7.733  15.482  0.00  0.00    +0.000 C 
BRANCH  15  16
ATOM     16  O   UNL     1      49.163   6.748  14.439  0.00  0.00    +0.000 OA
BRANCH  16  20
ATOM     17  C   UNL     1      45.409   5.807  13.007  0.00  0.00    +0.000 A 
ATOM     18  C   UNL     1      45.928   7.088  12.799  0.00  0.00    +0.000 A 
ATOM     19  C   UNL     1      47.202   7.397  13.286  0.00  0.00    +0.000 A 
ATOM     20  C   UNL     1      47.909   6.413  13.960  0.00  0.00    +0.000 A 
ATOM     21  N   UNL     1      47.434   5.167  14.168  0.00  0.00    +0.000 NA
ATOM     22  C   UNL     1      46.197   4.893  13.691  0.00  0.00    +0.000 A 
BRANCH  17  23
ATOM     23  C   UNL     1      44.076   5.356  12.552  0.00  0.00    +0.000 C 
ATOM     24  O   UNL     1      43.087   5.381  13.267  0.00  0.00    +0.000 OA
BRANCH  23  26
ATOM     25  C   UNL     1      43.727   3.563  11.112  0.00  0.00    +0.000 C 
ATOM     26  O   UNL     1      44.119   4.928  11.268  0.00  0.00    +0.000 OA
ENDBRANCH  23  26
ENDBRANCH  17  23
ENDBRANCH  16  20
ENDBRANCH  15  16
ENDBRANCH   1  15
TORSDOF 7
ENDMDL
MODEL 6
REMARK VINA RESULT:    -6.304      3.627      6.355
REMARK INTER + INTRA:          -9.212
REMARK INTER:                  -8.351
REMARK INTRA:                  -0.861
REMARK UNBOUND:                -0.329
REMARK  Name = 
REMARK  10 active torsions:
REMARK  status: ('A' for Active; 'I' for Inactive)
REMARK    1  A    between atoms: C_1  and  O_2
REMARK    2  A    between atoms: O_2  and  C_3
REMARK    3  A    between atoms: C_3  and  C_5
REMARK    4  A    between atoms: C_8  and  O_9
REMARK    5  A    between atoms: O_9  and  C_10
REMARK    6  A    between atoms: C_10  and  C_11
REMARK    7  A    between atoms: C_11  and  C_12
REMARK    8  A    between atoms: C_11  and  C_13
REMARK    9  A    between atoms: C_11  and  C_14
REMARK   10  A    between atoms: C_18  and  C_19
REMARK                            x       y       z     vdW  Elec       q    Type
REMARK                         _______ _______ _______ _____ _____    ______ ____
ROOT
ATOM      1  C   UNL     1      50.051   7.544  15.837  0.00  0.00    +0.000 C 
ATOM      2  C   UNL     1      51.174   7.804  14.812  0.00  0.00    +0.000 C 
ATOM      3  C   UNL     1      50.005   8.767  16.786  0.00  0.00    +0.000 C 
ENDROOT
BRANCH   1   4
ATOM      4  C   UNL     1      50.314   6.210  16.577  0.00  0.00    +0.000 A 
ATOM      5  C   UNL     1      51.609   5.775  16.908  0.00  0.00    +0.000 A 
ATOM      6  C   UNL     1      51.819   4.599  17.635  0.00  0.00    +0.000 A 
ATOM      7  C   UNL     1      50.738   3.837  18.065  0.00  0.00    +0.000 A 
ATOM      8  C   UNL     1      49.439   4.240  17.759  0.00  0.00    +0.000 A 
ATOM      9  C   UNL     1      49.235   5.399  16.989  0.00  0.00    +0.000 A 
BRANCH   8  10
ATOM     10  C   UNL     1      48.311   3.427  18.290  0.00  0.00    +0.000 C 
ATOM     11  N   UNL     1      48.380   3.032  19.598  0.00  0.00    +0.000 N 
ATOM     12  O   UNL     1      47.381   3.069  17.579  0.00  0.00    +0.000 OA
ATOM     13  H   UNL     1      49.231   3.083  20.137  0.00  0.00    +0.000 HD
ATOM     14  H   UNL     1      47.683   2.359  19.892  0.00  0.00    +0.000 HD
ENDBRANCH   8  10
ENDBRANCH   1   4
BRANCH   1  15
ATOM     15  C   UNL     1      48.676   7.449  15.110  0.00  0.00    +0.000 C 
BRANCH  15  16
ATOM     16  O   UNL     1      48.822   7.095  13.726  0.00  0.00    +0.000 OA
BRANCH  16  20
ATOM     17  C   UNL     1      45.793   4.613  12.424  0.00  0.00    +0.000 A 
ATOM     18  C   UNL     1      46.067   5.794  11.729  0.00  0.00    +0.000 A 
ATOM     19  C   UNL     1      47.096   6.628  12.176  0.00  0.00    +0.000 A 
ATOM     20  C   UNL     1      47.815   6.248  13.299  0.00  0.00    +0.000 A 
ATOM     21  N   UNL     1      47.577   5.109  13.984  0.00  0.00    +0.000 NA
ATOM     22  C   UNL     1      46.572   4.321  13.534  0.00  0.00    +0.000 A 
BRANCH  17  23
ATOM     23  C   UNL     1      44.730   3.652  12.061  0.00  0.00    +0.000 C 
ATOM     24  O   UNL     1      44.740   3.012  11.021  0.00  0.00    +0.000 OA
BRANCH  23  26
ATOM     25  C   UNL     1      42.976   4.769  13.102  0.00  0.00    +0.000 C 
ATOM     26  O   UNL     1      43.780   3.591  13.024  0.00  0.00    +0.000 OA
ENDBRANCH  23  26
ENDBRANCH  17  23
ENDBRANCH  16  20
ENDBRANCH  15  16
ENDBRANCH   1  15
TORSDOF 7
ENDMDL
MODEL 7
REMARK VINA RESULT:    -6.292      3.695      6.309
REMARK INTER + INTRA:          -9.196
REMARK INTER:                  -8.164
REMARK INTRA:                  -1.032
REMARK UNBOUND:                -0.329
REMARK  Name = 
REMARK  10 active torsions:
REMARK  status: ('A' for Active; 'I' for Inactive)
REMARK    1  A    between atoms: C_1  and  O_2
REMARK    2  A    between atoms: O_2  and  C_3
REMARK    3  A    between atoms: C_3  and  C_5
REMARK    4  A    between atoms: C_8  and  O_9
REMARK    5  A    between atoms: O_9  and  C_10
REMARK    6  A    between atoms: C_10  and  C_11
REMARK    7  A    between atoms: C_11  and  C_12
REMARK    8  A    between atoms: C_11  and  C_13
REMARK    9  A    between atoms: C_11  and  C_14
REMARK   10  A    between atoms: C_18  and  C_19
REMARK                            x       y       z     vdW  Elec       q    Type
REMARK                         _______ _______ _______ _____ _____    ______ ____
ROOT
ATOM      1  C   UNL     1      49.554   7.895  15.519  0.00  0.00    +0.000 C 
ATOM      2  C   UNL     1      51.078   8.000  15.738  0.00  0.00    +0.000 C 
ATOM      3  C   UNL     1      49.043   9.312  15.164  0.00  0.00    +0.000 C 
ENDROOT
BRANCH   1   4
ATOM      4  C   UNL     1      48.882   7.305  16.783  0.00  0.00    +0.000 A 
ATOM      5  C   UNL     1      48.432   8.111  17.843  0.00  0.00    +0.000 A 
ATOM      6  C   UNL     1      47.768   7.563  18.945  0.00  0.00    +0.000 A 
ATOM      7  C   UNL     1      47.520   6.195  19.006  0.00  0.00    +0.000 A 
ATOM      8  C   UNL     1      47.949   5.365  17.971  0.00  0.00    +0.000 A 
ATOM      9  C   UNL     1      48.656   5.915  16.887  0.00  0.00    +0.000 A 
BRANCH   8  10
ATOM     10  C   UNL     1      47.610   3.918  18.050  0.00  0.00    +0.000 C 
ATOM     11  N   UNL     1      48.283   3.163  18.972  0.00  0.00    +0.000 N 
ATOM     12  O   UNL     1      46.805   3.400  17.287  0.00  0.00    +0.000 OA
ATOM     13  H   UNL     1      49.120   3.486  19.433  0.00  0.00    +0.000 HD
ATOM     14  H   UNL     1      48.146   2.162  18.905  0.00  0.00    +0.000 HD
ENDBRANCH   8  10
ENDBRANCH   1   4
BRANCH   1  15
ATOM     15  C   UNL     1      49.252   6.958  14.311  0.00  0.00    +0.000 C 
BRANCH  15  16
ATOM     16  O   UNL     1      48.295   7.534  13.408  0.00  0.00    +0.000 OA
BRANCH  16  20
ATOM     17  C   UNL     1      44.857   5.275  13.082  0.00  0.00    +0.000 A 
ATOM     18  C   UNL     1      44.906   6.548  12.508  0.00  0.00    +0.000 A 
ATOM     19  C   UNL     1      46.075   7.305  12.622  0.00  0.00    +0.000 A 
ATOM     20  C   UNL     1      47.153   6.760  13.302  0.00  0.00    +0.000 A 
ATOM     21  N   UNL     1      47.135   5.530  13.859  0.00  0.00    +0.000 NA
ATOM     22  C   UNL     1      45.990   4.818  13.740  0.00  0.00    +0.000 A 
BRANCH  17  23
ATOM     23  C   UNL     1      43.682   4.378  13.041  0.00  0.00    +0.000 C 
ATOM     24  O   UNL     1      42.557   4.744  13.343  0.00  0.00    +0.000 OA
BRANCH  23  26
ATOM     25  C   UNL     1      44.197   3.032  11.215  0.00  0.00    +0.000 C 
ATOM     26  O   UNL     1      44.031   3.136  12.631  0.00  0.00    +0.000 OA
ENDBRANCH  23  26
ENDBRANCH  17  23
ENDBRANCH  16  20
ENDBRANCH  15  16
ENDBRANCH   1  15
TORSDOF 7
ENDMDL
MODEL 8
REMARK VINA RESULT:    -6.232      2.392      8.294
REMARK INTER + INTRA:          -9.111
REMARK INTER:                  -8.299
REMARK INTRA:                  -0.813
REMARK UNBOUND:                -0.329
REMARK  Name = 
REMARK  10 active torsions:
REMARK  status: ('A' for Active; 'I' for Inactive)
REMARK    1  A    between atoms: C_1  and  O_2
REMARK    2  A    between atoms: O_2  and  C_3
REMARK    3  A    between atoms: C_3  and  C_5
REMARK    4  A    between atoms: C_8  and  O_9
REMARK    5  A    between atoms: O_9  and  C_10
REMARK    6  A    between atoms: C_10  and  C_11
REMARK    7  A    between atoms: C_11  and  C_12
REMARK    8  A    between atoms: C_11  and  C_13
REMARK    9  A    between atoms: C_11  and  C_14
REMARK   10  A    between atoms: C_18  and  C_19
REMARK                            x       y       z     vdW  Elec       q    Type
REMARK                         _______ _______ _______ _____ _____    ______ ____
ROOT
ATOM      1  C   UNL     1      46.121   6.773  12.250  0.00  0.00    +0.000 C 
ATOM      2  C   UNL     1      45.257   8.049  12.173  0.00  0.00    +0.000 C 
ATOM      3  C   UNL     1      47.257   6.924  11.210  0.00  0.00    +0.000 C 
ENDROOT
BRANCH   1   4
ATOM      4  C   UNL     1      45.236   5.526  12.008  0.00  0.00    +0.000 A 
ATOM      5  C   UNL     1      44.267   5.098  12.932  0.00  0.00    +0.000 A 
ATOM      6  C   UNL     1      43.433   4.008  12.662  0.00  0.00    +0.000 A 
ATOM      7  C   UNL     1      43.535   3.329  11.451  0.00  0.00    +0.000 A 
ATOM      8  C   UNL     1      44.482   3.729  10.509  0.00  0.00    +0.000 A 
ATOM      9  C   UNL     1      45.348   4.796  10.804  0.00  0.00    +0.000 A 
BRANCH   8  10
ATOM     10  C   UNL     1      44.515   3.012   9.205  0.00  0.00    +0.000 C 
ATOM     11  N   UNL     1      44.627   1.649   9.238  0.00  0.00    +0.000 N 
ATOM     12  O   UNL     1      44.501   3.611   8.138  0.00  0.00    +0.000 OA
ATOM     13  H   UNL     1      44.895   1.145  10.070  0.00  0.00    +0.000 HD
ATOM     14  H   UNL     1      44.799   1.199   8.347  0.00  0.00    +0.000 HD
ENDBRANCH   8  10
ENDBRANCH   1   4
BRANCH   1  15
ATOM     15  C   UNL     1      46.772   6.655  13.660  0.00  0.00    +0.000 C 
BRANCH  15  16
ATOM     16  O   UNL     1      47.491   5.422  13.821  0.00  0.00    +0.000 OA
BRANCH  16  20
ATOM     17  C   UNL     1      48.734   4.859  17.716  0.00  0.00    +0.000 A 
ATOM     18  C   UNL     1      47.677   4.098  17.209  0.00  0.00    +0.000 A 
ATOM     19  C   UNL     1      47.264   4.293  15.888  0.00  0.00    +0.000 A 
ATOM     20  C   UNL     1      47.925   5.241  15.122  0.00  0.00    +0.000 A 
ATOM     21  N   UNL     1      48.953   5.984  15.583  0.00  0.00    +0.000 NA
ATOM     22  C   UNL     1      49.331   5.780  16.867  0.00  0.00    +0.000 A 
BRANCH  17  23
ATOM     23  C   UNL     1      49.260   4.756  19.093  0.00  0.00    +0.000 C 
ATOM     24  O   UNL     1      50.443   4.584  19.340  0.00  0.00    +0.000 OA
BRANCH  23  26
ATOM     25  C   UNL     1      47.911   6.233  20.280  0.00  0.00    +0.000 C 
ATOM     26  O   UNL     1      48.266   4.877  20.005  0.00  0.00    +0.000 OA
ENDBRANCH  23  26
ENDBRANCH  17  23
ENDBRANCH  16  20
ENDBRANCH  15  16
ENDBRANCH   1  15
TORSDOF 7
ENDMDL
MODEL 9
REMARK VINA RESULT:    -6.228      3.382      6.415
REMARK INTER + INTRA:          -9.105
REMARK INTER:                  -8.312
REMARK INTRA:                  -0.793
REMARK UNBOUND:                -0.329
REMARK  Name = 
REMARK  10 active torsions:
REMARK  status: ('A' for Active; 'I' for Inactive)
REMARK    1  A    between atoms: C_1  and  O_2
REMARK    2  A    between atoms: O_2  and  C_3
REMARK    3  A    between atoms: C_3  and  C_5
REMARK    4  A    between atoms: C_8  and  O_9
REMARK    5  A    between atoms: O_9  and  C_10
REMARK    6  A    between atoms: C_10  and  C_11
REMARK    7  A    between atoms: C_11  and  C_12
REMARK    8  A    between atoms: C_11  and  C_13
REMARK    9  A    between atoms: C_11  and  C_14
REMARK   10  A    between atoms: C_18  and  C_19
REMARK                            x       y       z     vdW  Elec       q    Type
REMARK                         _______ _______ _______ _____ _____    ______ ____
ROOT
ATOM      1  C   UNL     1      48.103   4.022  17.496  0.00  0.00    +0.000 C 
ATOM      2  C   UNL     1      47.813   5.090  18.571  0.00  0.00    +0.000 C 
ATOM      3  C   UNL     1      47.106   2.860  17.722  0.00  0.00    +0.000 C 
ENDROOT
BRANCH   1   4
ATOM      4  C   UNL     1      49.584   3.578  17.584  0.00  0.00    +0.000 A 
ATOM      5  C   UNL     1      49.991   2.257  17.332  0.00  0.00    +0.000 A 
ATOM      6  C   UNL     1      51.341   1.893  17.352  0.00  0.00    +0.000 A 
ATOM      7  C   UNL     1      52.321   2.847  17.606  0.00  0.00    +0.000 A 
ATOM      8  C   UNL     1      51.955   4.169  17.855  0.00  0.00    +0.000 A 
ATOM      9  C   UNL     1      50.594   4.520  17.879  0.00  0.00    +0.000 A 
BRANCH   8  10
ATOM     10  C   UNL     1      53.040   5.167  18.063  0.00  0.00    +0.000 C 
ATOM     11  N   UNL     1      54.316   4.785  17.753  0.00  0.00    +0.000 N 
ATOM     12  O   UNL     1      52.819   6.270  18.546  0.00  0.00    +0.000 OA
ATOM     13  H   UNL     1      54.573   3.821  17.600  0.00  0.00    +0.000 HD
ATOM     14  H   UNL     1      55.049   5.420  18.042  0.00  0.00    +0.000 HD
ENDBRANCH   8  10
ENDBRANCH   1   4
BRANCH   1  15
ATOM     15  C   UNL     1      47.843   4.611  16.077  0.00  0.00    +0.000 C 
BRANCH  15  16
ATOM     16  O   UNL     1      47.794   3.588  15.070  0.00  0.00    +0.000 OA
BRANCH  16  20
ATOM     17  C   UNL     1      45.423   4.736  11.893  0.00  0.00    +0.000 A 
ATOM     18  C   UNL     1      46.205   5.688  12.553  0.00  0.00    +0.000 A 
ATOM     19  C   UNL     1      47.006   5.290  13.627  0.00  0.00    +0.000 A 
ATOM     20  C   UNL     1      46.999   3.954  13.998  0.00  0.00    +0.000 A 
ATOM     21  N   UNL     1      46.259   3.013  13.374  0.00  0.00    +0.000 NA
ATOM     22  C   UNL     1      45.488   3.424  12.340  0.00  0.00    +0.000 A 
BRANCH  17  23
ATOM     23  C   UNL     1      44.528   5.027  10.753  0.00  0.00    +0.000 C 
ATOM     24  O   UNL     1      44.914   5.569   9.729  0.00  0.00    +0.000 OA
BRANCH  23  26
ATOM     25  C   UNL     1      42.488   5.580  11.724  0.00  0.00    +0.000 C 
ATOM     26  O   UNL     1      43.264   4.616  11.008  0.00  0.00    +0.000 OA
ENDBRANCH  23  26
ENDBRANCH  17  23
ENDBRANCH  16  20
ENDBRANCH  15  16
ENDBRANCH   1  15
TORSDOF 7
ENDMDL
