MODEL 1
REMARK VINA RESULT:    -6.421      0.000      0.000
REMARK INTER + INTRA:          -8.438
REMARK INTER:                  -7.922
REMARK INTRA:                  -0.516
REMARK UNBOUND:                -0.516
REMARK  Name = 
REMARK  7 active torsions:
REMARK  status: ('A' for Active; 'I' for Inactive)
REMARK    1  A    between atoms: C_1  and  C_2
REMARK    2  A    between atoms: C_2  and  C_3
REMARK    3  A    between atoms: C_2  and  C_4
REMARK    4  A    between atoms: C_2  and  C_5
REMARK    5  A    between atoms: C_8  and  C_9
REMARK    6  A    between atoms: C_16  and  C_17
REMARK    7  A    between atoms: C_17  and  N_18
REMARK                            x       y       z     vdW  Elec       q    Type
REMARK                         _______ _______ _______ _____ _____    ______ ____
ROOT
ATOM      1  C   UNL     1      45.515   4.984  12.882  0.00  0.00    +0.000 A 
ATOM      2  N   UNL     1      45.839   4.188  14.006  0.00  0.00    +0.000 NA
ATOM      3  C   UNL     1      46.866   4.770  14.627  0.00  0.00    +0.000 A 
ATOM      4  C   UNL     1      47.633   4.516  15.807  0.00  0.00    +0.000 A 
ATOM      5  C   UNL     1      48.677   5.323  16.086  0.00  0.00    +0.000 A 
ATOM      6  N   UNL     1      49.117   6.372  15.298  0.00  0.00    +0.000 NA
ATOM      7  C   UNL     1      48.418   6.601  14.229  0.00  0.00    +0.000 A 
ATOM      8  N   UNL     1      47.270   5.870  13.904  0.00  0.00    +0.000 N 
ATOM      9  C   UNL     1      46.355   6.113  12.893  0.00  0.00    +0.000 A 
ENDROOT
BRANCH   4  10
ATOM     10  C   UNL     1      47.436   3.417  16.793  0.00  0.00    +0.000 C 
ATOM     11  N   UNL     1      48.506   2.620  17.028  0.00  0.00    +0.000 N 
ATOM     12  O   UNL     1      46.382   3.218  17.389  0.00  0.00    +0.000 OA
ATOM     13  H   UNL     1      49.398   2.770  16.567  0.00  0.00    +0.000 HD
ATOM     14  H   UNL     1      48.403   1.888  17.720  0.00  0.00    +0.000 HD
ENDBRANCH   4  10
BRANCH   1  16
ATOM     15  C   UNL     1      44.871   4.411  10.433  0.00  0.00    +0.000 C 
ATOM     16  C   UNL     1      44.385   4.496  11.901  0.00  0.00    +0.000 C 
ATOM     17  C   UNL     1      43.174   5.471  11.915  0.00  0.00    +0.000 C 
ATOM     18  C   UNL     1      43.793   3.103  12.222  0.00  0.00    +0.000 C 
ENDBRANCH   1  16
BRANCH   9  19
ATOM     19  C   UNL     1      46.482   7.370  12.077  0.00  0.00    +0.000 C 
BRANCH  19  20
ATOM     20  N   UNL     1      46.253   8.601  12.847  0.00  0.00    +0.000 NA
ATOM     21  C   UNL     1      44.930   9.198  12.558  0.00  0.00    +0.000 C 
ATOM     22  C   UNL     1      44.895  10.171  11.366  0.00  0.00    +0.000 C 
ATOM     23  O   UNL     1      45.834  11.234  11.534  0.00  0.00    +0.000 OA
ATOM     24  C   UNL     1      47.161  10.732  11.691  0.00  0.00    +0.000 C 
ATOM     25  C   UNL     1      47.265   9.682  12.821  0.00  0.00    +0.000 C 
ENDBRANCH  19  20
ENDBRANCH   9  19
TORSDOF 4
ENDMDL
MODEL 2
REMARK VINA RESULT:    -6.230      2.656      5.155
REMARK INTER + INTRA:          -8.202
REMARK INTER:                  -7.383
REMARK INTRA:                  -0.820
REMARK UNBOUND:                -0.516
REMARK  Name = 
REMARK  7 active torsions:
REMARK  status: ('A' for Active; 'I' for Inactive)
REMARK    1  A    between atoms: C_1  and  C_2
REMARK    2  A    between atoms: C_2  and  C_3
REMARK    3  A    between atoms: C_2  and  C_4
REMARK    4  A    between atoms: C_2  and  C_5
REMARK    5  A    between atoms: C_8  and  C_9
REMARK    6  A    between atoms: C_16  and  C_17
REMARK    7  A    between atoms: C_17  and  N_18
REMARK                            x       y       z     vdW  Elec       q    Type
REMARK                         _______ _______ _______ _____ _____    ______ ____
ROOT
ATOM      1  C   UNL     1      47.526   4.748  15.639  0.00  0.00    +0.000 A 
ATOM      2  N   UNL     1      46.574   4.027  14.882  0.00  0.00    +0.000 NA
ATOM      3  C   UNL     1      46.391   4.685  13.736  0.00  0.00    +0.000 A 
ATOM      4  C   UNL     1      45.618   4.490  12.548  0.00  0.00    +0.000 A 
ATOM      5  C   UNL     1      45.645   5.444  11.595  0.00  0.00    +0.000 A 
ATOM      6  N   UNL     1      46.331   6.644  11.675  0.00  0.00    +0.000 NA
ATOM      7  C   UNL     1      47.031   6.817  12.753  0.00  0.00    +0.000 A 
ATOM      8  N   UNL     1      47.130   5.847  13.756  0.00  0.00    +0.000 N 
ATOM      9  C   UNL     1      47.962   5.839  14.865  0.00  0.00    +0.000 A 
ENDROOT
BRANCH   4  10
ATOM     10  C   UNL     1      44.732   3.337  12.226  0.00  0.00    +0.000 C 
ATOM     11  N   UNL     1      44.939   2.734  11.031  0.00  0.00    +0.000 N 
ATOM     12  O   UNL     1      43.858   2.920  12.980  0.00  0.00    +0.000 OA
ATOM     13  H   UNL     1      45.666   3.043  10.393  0.00  0.00    +0.000 HD
ATOM     14  H   UNL     1      44.369   1.927  10.808  0.00  0.00    +0.000 HD
ENDBRANCH   4  10
BRANCH   1  16
ATOM     15  C   UNL     1      47.325   2.836  17.385  0.00  0.00    +0.000 C 
ATOM     16  C   UNL     1      47.882   4.250  17.090  0.00  0.00    +0.000 C 
ATOM     17  C   UNL     1      47.286   5.200  18.167  0.00  0.00    +0.000 C 
ATOM     18  C   UNL     1      49.395   4.173  17.403  0.00  0.00    +0.000 C 
ENDBRANCH   1  16
BRANCH   9  19
ATOM     19  C   UNL     1      48.997   6.920  15.010  0.00  0.00    +0.000 C 
BRANCH  19  20
ATOM     20  N   UNL     1      48.761   7.817  16.149  0.00  0.00    +0.000 NA
ATOM     21  C   UNL     1      48.281   9.149  15.717  0.00  0.00    +0.000 C 
ATOM     22  C   UNL     1      49.384  10.172  15.394  0.00  0.00    +0.000 C 
ATOM     23  O   UNL     1      50.264  10.356  16.503  0.00  0.00    +0.000 OA
ATOM     24  C   UNL     1      50.868   9.123  16.896  0.00  0.00    +0.000 C 
ATOM     25  C   UNL     1      49.823   8.014  17.161  0.00  0.00    +0.000 C 
ENDBRANCH  19  20
ENDBRANCH   9  19
TORSDOF 4
ENDMDL
MODEL 3
REMARK VINA RESULT:    -6.022      2.402      6.049
REMARK INTER + INTRA:          -7.946
REMARK INTER:                  -7.061
REMARK INTRA:                  -0.885
REMARK UNBOUND:                -0.516
REMARK  Name = 
REMARK  7 active torsions:
REMARK  status: ('A' for Active; 'I' for Inactive)
REMARK    1  A    between atoms: C_1  and  C_2
REMARK    2  A    between atoms: C_2  and  C_3
REMARK    3  A    between atoms: C_2  and  C_4
REMARK    4  A    between atoms: C_2  and  C_5
REMARK    5  A    between atoms: C_8  and  C_9
REMARK    6  A    between atoms: C_16  and  C_17
REMARK    7  A    between atoms: C_17  and  N_18
REMARK                            x       y       z     vdW  Elec       q    Type
REMARK                         _______ _______ _______ _____ _____    ______ ____
ROOT
ATOM      1  C   UNL     1      47.241   8.093  12.788  0.00  0.00    +0.000 A 
ATOM      2  N   UNL     1      45.957   7.819  12.263  0.00  0.00    +0.000 NA
ATOM      3  C   UNL     1      45.644   6.568  12.602  0.00  0.00    +0.000 A 
ATOM      4  C   UNL     1      44.517   5.705  12.428  0.00  0.00    +0.000 A 
ATOM      5  C   UNL     1      44.600   4.434  12.873  0.00  0.00    +0.000 A 
ATOM      6  N   UNL     1      45.713   3.856  13.456  0.00  0.00    +0.000 NA
ATOM      7  C   UNL     1      46.734   4.641  13.613  0.00  0.00    +0.000 A 
ATOM      8  N   UNL     1      46.710   5.995  13.260  0.00  0.00    +0.000 N 
ATOM      9  C   UNL     1      47.661   6.968  13.521  0.00  0.00    +0.000 A 
ENDROOT
BRANCH   4  10
ATOM     10  C   UNL     1      43.221   6.033  11.771  0.00  0.00    +0.000 C 
ATOM     11  N   UNL     1      43.157   7.223  11.126  0.00  0.00    +0.000 N 
ATOM     12  O   UNL     1      42.245   5.290  11.781  0.00  0.00    +0.000 OA
ATOM     13  H   UNL     1      43.952   7.853  11.083  0.00  0.00    +0.000 HD
ATOM     14  H   UNL     1      42.296   7.450  10.645  0.00  0.00    +0.000 HD
ENDBRANCH   4  10
BRANCH   1  16
ATOM     15  C   UNL     1      48.456  10.181  13.742  0.00  0.00    +0.000 C 
ATOM     16  C   UNL     1      47.915   9.481  12.471  0.00  0.00    +0.000 C 
ATOM     17  C   UNL     1      46.897  10.460  11.820  0.00  0.00    +0.000 C 
ATOM     18  C   UNL     1      49.110   9.421  11.491  0.00  0.00    +0.000 C 
ENDBRANCH   1  16
BRANCH   9  19
ATOM     19  C   UNL     1      48.839   6.625  14.390  0.00  0.00    +0.000 C 
BRANCH  19  20
ATOM     20  N   UNL     1      48.567   6.743  15.829  0.00  0.00    +0.000 NA
ATOM     21  C   UNL     1      49.374   7.810  16.461  0.00  0.00    +0.000 C 
ATOM     22  C   UNL     1      50.764   7.376  16.960  0.00  0.00    +0.000 C 
ATOM     23  O   UNL     1      50.670   6.288  17.880  0.00  0.00    +0.000 OA
ATOM     24  C   UNL     1      50.011   5.166  17.291  0.00  0.00    +0.000 C 
ATOM     25  C   UNL     1      48.636   5.540  16.690  0.00  0.00    +0.000 C 
ENDBRANCH  19  20
ENDBRANCH   9  19
TORSDOF 4
ENDMDL
MODEL 4
REMARK VINA RESULT:    -5.978      2.278      6.448
REMARK INTER + INTRA:          -7.892
REMARK INTER:                  -7.002
REMARK INTRA:                  -0.890
REMARK UNBOUND:                -0.516
REMARK  Name = 
REMARK  7 active torsions:
REMARK  status: ('A' for Active; 'I' for Inactive)
REMARK    1  A    between atoms: C_1  and  C_2
REMARK    2  A    between atoms: C_2  and  C_3
REMARK    3  A    between atoms: C_2  and  C_4
REMARK    4  A    between atoms: C_2  and  C_5
REMARK    5  A    between atoms: C_8  and  C_9
REMARK    6  A    between atoms: C_16  and  C_17
REMARK    7  A    between atoms: C_17  and  N_18
REMARK                            x       y       z     vdW  Elec       q    Type
REMARK                         _______ _______ _______ _____ _____    ______ ____
ROOT
ATOM      1  C   UNL     1      47.315   7.133  13.461  0.00  0.00    +0.000 A 
ATOM      2  N   UNL     1      46.243   7.002  12.548  0.00  0.00    +0.000 NA
ATOM      3  C   UNL     1      45.861   5.724  12.558  0.00  0.00    +0.000 A 
ATOM      4  C   UNL     1      44.845   4.948  11.918  0.00  0.00    +0.000 A 
ATOM      5  C   UNL     1      44.812   3.618  12.138  0.00  0.00    +0.000 A 
ATOM      6  N   UNL     1      45.716   2.905  12.907  0.00  0.00    +0.000 NA
ATOM      7  C   UNL     1      46.636   3.613  13.487  0.00  0.00    +0.000 A 
ATOM      8  N   UNL     1      46.697   5.007  13.385  0.00  0.00    +0.000 N 
ATOM      9  C   UNL     1      47.519   5.883  14.075  0.00  0.00    +0.000 A 
ENDROOT
BRANCH   4  10
ATOM     10  C   UNL     1      43.792   5.434  10.982  0.00  0.00    +0.000 C 
ATOM     11  N   UNL     1      43.244   6.639  11.266  0.00  0.00    +0.000 N 
ATOM     12  O   UNL     1      43.421   4.810   9.993  0.00  0.00    +0.000 OA
ATOM     13  H   UNL     1      43.542   7.189  12.066  0.00  0.00    +0.000 HD
ATOM     14  H   UNL     1      42.550   7.002  10.624  0.00  0.00    +0.000 HD
ENDBRANCH   4  10
BRANCH   1  16
ATOM     15  C   UNL     1      47.342   9.636  12.769  0.00  0.00    +0.000 C 
ATOM     16  C   UNL     1      48.033   8.527  13.600  0.00  0.00    +0.000 C 
ATOM     17  C   UNL     1      49.505   8.448  13.103  0.00  0.00    +0.000 C 
ATOM     18  C   UNL     1      48.116   9.081  15.042  0.00  0.00    +0.000 C 
ENDBRANCH   1  16
BRANCH   9  19
ATOM     19  C   UNL     1      48.398   5.351  15.173  0.00  0.00    +0.000 C 
BRANCH  19  20
ATOM     20  N   UNL     1      47.760   5.357  16.497  0.00  0.00    +0.000 NA
ATOM     21  C   UNL     1      48.647   5.920  17.539  0.00  0.00    +0.000 C 
ATOM     22  C   UNL     1      49.590   4.909  18.215  0.00  0.00    +0.000 C 
ATOM     23  O   UNL     1      48.863   3.824  18.792  0.00  0.00    +0.000 OA
ATOM     24  C   UNL     1      48.076   3.148  17.810  0.00  0.00    +0.000 C 
ATOM     25  C   UNL     1      47.157   4.112  17.026  0.00  0.00    +0.000 C 
ENDBRANCH  19  20
ENDBRANCH   9  19
TORSDOF 4
ENDMDL
MODEL 5
REMARK VINA RESULT:    -5.746      2.741      6.197
REMARK INTER + INTRA:          -7.606
REMARK INTER:                  -6.888
REMARK INTRA:                  -0.718
REMARK UNBOUND:                -0.516
REMARK  Name = 
REMARK  7 active torsions:
REMARK  status: ('A' for Active; 'I' for Inactive)
REMARK    1  A    between atoms: C_1  and  C_2
REMARK    2  A    between atoms: C_2  and  C_3
REMARK    3  A    between atoms: C_2  and  C_4
REMARK    4  A    between atoms: C_2  and  C_5
REMARK    5  A    between atoms: C_8  and  C_9
REMARK    6  A    between atoms: C_16  and  C_17
REMARK    7  A    between atoms: C_17  and  N_18
REMARK                            x       y       z     vdW  Elec       q    Type
REMARK                         _______ _______ _______ _____ _____    ______ ____
ROOT
ATOM      1  C   UNL     1      48.253   7.680  12.705  0.00  0.00    +0.000 A 
ATOM      2  N   UNL     1      47.401   7.145  11.711  0.00  0.00    +0.000 NA
ATOM      3  C   UNL     1      46.722   6.139  12.263  0.00  0.00    +0.000 A 
ATOM      4  C   UNL     1      45.705   5.228  11.839  0.00  0.00    +0.000 A 
ATOM      5  C   UNL     1      45.298   4.268  12.695  0.00  0.00    +0.000 A 
ATOM      6  N   UNL     1      45.813   4.045  13.960  0.00  0.00    +0.000 NA
ATOM      7  C   UNL     1      46.735   4.874  14.342  0.00  0.00    +0.000 A 
ATOM      8  N   UNL     1      47.160   5.951  13.556  0.00  0.00    +0.000 N 
ATOM      9  C   UNL     1      48.006   6.990  13.907  0.00  0.00    +0.000 A 
ENDROOT
BRANCH   4  10
ATOM     10  C   UNL     1      45.028   5.183  10.513  0.00  0.00    +0.000 C 
ATOM     11  N   UNL     1      45.778   5.538   9.442  0.00  0.00    +0.000 N 
ATOM     12  O   UNL     1      43.861   4.839  10.356  0.00  0.00    +0.000 OA
ATOM     13  H   UNL     1      46.752   5.810   9.535  0.00  0.00    +0.000 HD
ATOM     14  H   UNL     1      45.346   5.483   8.528  0.00  0.00    +0.000 HD
ENDBRANCH   4  10
BRANCH   1  16
ATOM     15  C   UNL     1      48.589   9.904  11.407  0.00  0.00    +0.000 C 
ATOM     16  C   UNL     1      49.248   8.837  12.317  0.00  0.00    +0.000 C 
ATOM     17  C   UNL     1      50.474   8.281  11.538  0.00  0.00    +0.000 C 
ATOM     18  C   UNL     1      49.841   9.620  13.511  0.00  0.00    +0.000 C 
ENDBRANCH   1  16
BRANCH   9  19
ATOM     19  C   UNL     1      48.473   7.104  15.332  0.00  0.00    +0.000 C 
BRANCH  19  20
ATOM     20  N   UNL     1      49.681   6.321  15.624  0.00  0.00    +0.000 NA
ATOM     21  C   UNL     1      49.490   5.415  16.778  0.00  0.00    +0.000 C 
ATOM     22  C   UNL     1      49.796   6.031  18.155  0.00  0.00    +0.000 C 
ATOM     23  O   UNL     1      51.127   6.545  18.210  0.00  0.00    +0.000 OA
ATOM     24  C   UNL     1      51.346   7.527  17.197  0.00  0.00    +0.000 C 
ATOM     25  C   UNL     1      50.981   7.010  15.786  0.00  0.00    +0.000 C 
ENDBRANCH  19  20
ENDBRANCH   9  19
TORSDOF 4
ENDMDL
MODEL 6
REMARK VINA RESULT:    -5.549      1.816      2.474
REMARK INTER + INTRA:          -7.363
REMARK INTER:                  -6.654
REMARK INTRA:                  -0.709
REMARK UNBOUND:                -0.516
REMARK  Name = 
REMARK  7 active torsions:
REMARK  status: ('A' for Active; 'I' for Inactive)
REMARK    1  A    between atoms: C_1  and  C_2
REMARK    2  A    between atoms: C_2  and  C_3
REMARK    3  A    between atoms: C_2  and  C_4
REMARK    4  A    between atoms: C_2  and  C_5
REMARK    5  A    between atoms: C_8  and  C_9
REMARK    6  A    between atoms: C_16  and  C_17
REMARK    7  A    between atoms: C_17  and  N_18
REMARK                            x       y       z     vdW  Elec       q    Type
REMARK                         _______ _______ _______ _____ _____    ______ ____
ROOT
ATOM      1  C   UNL     1      46.357   5.719  13.197  0.00  0.00    +0.000 A 
ATOM      2  N   UNL     1      46.540   4.658  14.113  0.00  0.00    +0.000 NA
ATOM      3  C   UNL     1      47.420   5.065  15.029  0.00  0.00    +0.000 A 
ATOM      4  C   UNL     1      48.002   4.516  16.214  0.00  0.00    +0.000 A 
ATOM      5  C   UNL     1      48.942   5.231  16.865  0.00  0.00    +0.000 A 
ATOM      6  N   UNL     1      49.443   6.457  16.463  0.00  0.00    +0.000 NA
ATOM      7  C   UNL     1      48.913   6.952  15.388  0.00  0.00    +0.000 A 
ATOM      8  N   UNL     1      47.874   6.321  14.695  0.00  0.00    +0.000 N 
ATOM      9  C   UNL     1      47.120   6.814  13.642  0.00  0.00    +0.000 A 
ENDROOT
BRANCH   4  10
ATOM     10  C   UNL     1      47.711   3.192  16.833  0.00  0.00    +0.000 C 
ATOM     11  N   UNL     1      48.689   2.259  16.746  0.00  0.00    +0.000 N 
ATOM     12  O   UNL     1      46.660   2.926  17.408  0.00  0.00    +0.000 OA
ATOM     13  H   UNL     1      49.577   2.453  16.294  0.00  0.00    +0.000 HD
ATOM     14  H   UNL     1      48.524   1.364  17.190  0.00  0.00    +0.000 HD
ENDBRANCH   4  10
BRANCH   1  16
ATOM     15  C   UNL     1      44.103   6.294  12.043  0.00  0.00    +0.000 C 
ATOM     16  C   UNL     1      45.427   5.496  11.946  0.00  0.00    +0.000 C 
ATOM     17  C   UNL     1      45.036   3.998  11.801  0.00  0.00    +0.000 C 
ATOM     18  C   UNL     1      46.050   5.891  10.587  0.00  0.00    +0.000 C 
ENDBRANCH   1  16
BRANCH   9  19
ATOM     19  C   UNL     1      47.306   8.244  13.215  0.00  0.00    +0.000 C 
BRANCH  19  20
ATOM     20  N   UNL     1      47.971   8.390  11.913  0.00  0.00    +0.000 NA
ATOM     21  C   UNL     1      49.189   7.556  11.814  0.00  0.00    +0.000 C 
ATOM     22  C   UNL     1      50.481   8.215  12.327  0.00  0.00    +0.000 C 
ATOM     23  O   UNL     1      50.736   9.451  11.657  0.00  0.00    +0.000 OA
ATOM     24  C   UNL     1      49.647  10.361  11.820  0.00  0.00    +0.000 C 
ATOM     25  C   UNL     1      48.294   9.742  11.402  0.00  0.00    +0.000 C 
ENDBRANCH  19  20
ENDBRANCH   9  19
TORSDOF 4
ENDMDL
MODEL 7
REMARK VINA RESULT:    -5.220      2.597      5.174
REMARK INTER + INTRA:          -6.957
REMARK INTER:                  -5.906
REMARK INTRA:                  -1.050
REMARK UNBOUND:                -0.516
REMARK  Name = 
REMARK  7 active torsions:
REMARK  status: ('A' for Active; 'I' for Inactive)
REMARK    1  A    between atoms: C_1  and  C_2
REMARK    2  A    between atoms: C_2  and  C_3
REMARK    3  A    between atoms: C_2  and  C_4
REMARK    4  A    between atoms: C_2  and  C_5
REMARK    5  A    between atoms: C_8  and  C_9
REMARK    6  A    between atoms: C_16  and  C_17
REMARK    7  A    between atoms: C_17  and  N_18
REMARK                            x       y       z     vdW  Elec       q    Type
REMARK                         _______ _______ _______ _____ _____    ______ ____
ROOT
ATOM      1  C   UNL     1      48.969   6.669  15.515  0.00  0.00    +0.000 A 
ATOM      2  N   UNL     1      48.228   5.578  15.004  0.00  0.00    +0.000 NA
ATOM      3  C   UNL     1      47.447   6.045  14.029  0.00  0.00    +0.000 A 
ATOM      4  C   UNL     1      46.509   5.488  13.105  0.00  0.00    +0.000 A 
ATOM      5  C   UNL     1      45.842   6.319  12.279  0.00  0.00    +0.000 A 
ATOM      6  N   UNL     1      45.947   7.699  12.268  0.00  0.00    +0.000 NA
ATOM      7  C   UNL     1      46.800   8.202  13.106  0.00  0.00    +0.000 A 
ATOM      8  N   UNL     1      47.597   7.411  13.941  0.00  0.00    +0.000 N 
ATOM      9  C   UNL     1      48.647   7.808  14.754  0.00  0.00    +0.000 A 
ENDROOT
BRANCH   4  10
ATOM     10  C   UNL     1      46.138   4.053  12.949  0.00  0.00    +0.000 C 
ATOM     11  N   UNL     1      46.826   3.167  13.708  0.00  0.00    +0.000 N 
ATOM     12  O   UNL     1      45.258   3.657  12.192  0.00  0.00    +0.000 OA
ATOM     13  H   UNL     1      47.548   3.464  14.358  0.00  0.00    +0.000 HD
ATOM     14  H   UNL     1      46.567   2.191  13.641  0.00  0.00    +0.000 HD
ENDBRANCH   4  10
BRANCH   1  16
ATOM     15  C   UNL     1      49.821   4.995  17.308  0.00  0.00    +0.000 C 
ATOM     16  C   UNL     1      49.923   6.435  16.746  0.00  0.00    +0.000 C 
ATOM     17  C   UNL     1      49.571   7.397  17.915  0.00  0.00    +0.000 C 
ATOM     18  C   UNL     1      51.426   6.664  16.463  0.00  0.00    +0.000 C 
ENDBRANCH   1  16
BRANCH   9  19
ATOM     19  C   UNL     1      49.122   9.233  14.692  0.00  0.00    +0.000 C 
BRANCH  19  20
ATOM     20  N   UNL     1      50.387   9.405  13.964  0.00  0.00    +0.000 NA
ATOM     21  C   UNL     1      50.434  10.686  13.226  0.00  0.00    +0.000 C 
ATOM     22  C   UNL     1      49.849  10.647  11.803  0.00  0.00    +0.000 C 
ATOM     23  O   UNL     1      50.489   9.652  11.004  0.00  0.00    +0.000 OA
ATOM     24  C   UNL     1      50.372   8.358  11.596  0.00  0.00    +0.000 C 
ATOM     25  C   UNL     1      50.865   8.333  13.061  0.00  0.00    +0.000 C 
ENDBRANCH  19  20
ENDBRANCH   9  19
TORSDOF 4
ENDMDL
MODEL 8
REMARK VINA RESULT:    -4.966      2.765      6.073
REMARK INTER + INTRA:          -6.643
REMARK INTER:                  -6.148
REMARK INTRA:                  -0.495
REMARK UNBOUND:                -0.516
REMARK  Name = 
REMARK  7 active torsions:
REMARK  status: ('A' for Active; 'I' for Inactive)
REMARK    1  A    between atoms: C_1  and  C_2
REMARK    2  A    between atoms: C_2  and  C_3
REMARK    3  A    between atoms: C_2  and  C_4
REMARK    4  A    between atoms: C_2  and  C_5
REMARK    5  A    between atoms: C_8  and  C_9
REMARK    6  A    between atoms: C_16  and  C_17
REMARK    7  A    between atoms: C_17  and  N_18
REMARK                            x       y       z     vdW  Elec       q    Type
REMARK                         _______ _______ _______ _____ _____    ______ ____
ROOT
ATOM      1  C   UNL     1      45.057   6.865  12.024  0.00  0.00    +0.000 A 
ATOM      2  N   UNL     1      43.955   7.585  11.508  0.00  0.00    +0.000 NA
ATOM      3  C   UNL     1      44.318   8.865  11.417  0.00  0.00    +0.000 A 
ATOM      4  C   UNL     1      43.715  10.077  10.956  0.00  0.00    +0.000 A 
ATOM      5  C   UNL     1      44.398  11.232  11.090  0.00  0.00    +0.000 A 
ATOM      6  N   UNL     1      45.640  11.369  11.685  0.00  0.00    +0.000 NA
ATOM      7  C   UNL     1      46.185  10.268  12.100  0.00  0.00    +0.000 A 
ATOM      8  N   UNL     1      45.588   9.014  11.928  0.00  0.00    +0.000 N 
ATOM      9  C   UNL     1      46.130   7.763  12.176  0.00  0.00    +0.000 A 
ENDROOT
BRANCH   4  10
ATOM     10  C   UNL     1      42.364  10.239  10.347  0.00  0.00    +0.000 C 
ATOM     11  N   UNL     1      41.348   9.580  10.953  0.00  0.00    +0.000 N 
ATOM     12  O   UNL     1      42.143  10.930   9.358  0.00  0.00    +0.000 OA
ATOM     13  H   UNL     1      41.494   9.015  11.784  0.00  0.00    +0.000 HD
ATOM     14  H   UNL     1      40.417   9.704  10.575  0.00  0.00    +0.000 HD
ENDBRANCH   4  10
BRANCH   1  16
ATOM     15  C   UNL     1      45.830   4.842  13.456  0.00  0.00    +0.000 C 
ATOM     16  C   UNL     1      44.893   5.328  12.323  0.00  0.00    +0.000 C 
ATOM     17  C   UNL     1      45.232   4.477  11.066  0.00  0.00    +0.000 C 
ATOM     18  C   UNL     1      43.471   4.890  12.744  0.00  0.00    +0.000 C 
ENDBRANCH   1  16
BRANCH   9  19
ATOM     19  C   UNL     1      47.577   7.658  12.570  0.00  0.00    +0.000 C 
BRANCH  19  20
ATOM     20  N   UNL     1      47.796   7.653  14.023  0.00  0.00    +0.000 NA
ATOM     21  C   UNL     1      47.968   9.021  14.563  0.00  0.00    +0.000 C 
ATOM     22  C   UNL     1      49.409   9.558  14.546  0.00  0.00    +0.000 C 
ATOM     23  O   UNL     1      50.297   8.690  15.250  0.00  0.00    +0.000 OA
ATOM     24  C   UNL     1      50.280   7.373  14.697  0.00  0.00    +0.000 C 
ATOM     25  C   UNL     1      48.851   6.791  14.604  0.00  0.00    +0.000 C 
ENDBRANCH  19  20
ENDBRANCH   9  19
TORSDOF 4
ENDMDL
MODEL 9
REMARK VINA RESULT:    -4.880      3.070      4.547
REMARK INTER + INTRA:          -6.537
REMARK INTER:                  -5.693
REMARK INTRA:                  -0.844
REMARK UNBOUND:                -0.516
REMARK  Name = 
REMARK  7 active torsions:
REMARK  status: ('A' for Active; 'I' for Inactive)
REMARK    1  A    between atoms: C_1  and  C_2
REMARK    2  A    between atoms: C_2  and  C_3
REMARK    3  A    between atoms: C_2  and  C_4
REMARK    4  A    between atoms: C_2  and  C_5
REMARK    5  A    between atoms: C_8  and  C_9
REMARK    6  A    between atoms: C_16  and  C_17
REMARK    7  A    between atoms: C_17  and  N_18
REMARK                            x       y       z     vdW  Elec       q    Type
REMARK                         _______ _______ _______ _____ _____    ______ ____
ROOT
ATOM      1  C   UNL     1      48.127   7.219  13.982  0.00  0.00    +0.000 A 
ATOM      2  N   UNL     1      47.889   5.882  14.374  0.00  0.00    +0.000 NA
ATOM      3  C   UNL     1      48.299   5.755  15.637  0.00  0.00    +0.000 A 
ATOM      4  C   UNL     1      48.313   4.713  16.616  0.00  0.00    +0.000 A 
ATOM      5  C   UNL     1      48.893   4.953  17.809  0.00  0.00    +0.000 A 
ATOM      6  N   UNL     1      49.532   6.126  18.173  0.00  0.00    +0.000 NA
ATOM      7  C   UNL     1      49.517   7.070  17.283  0.00  0.00    +0.000 A 
ATOM      8  N   UNL     1      48.866   6.940  16.052  0.00  0.00    +0.000 N 
ATOM      9  C   UNL     1      48.639   7.914  15.093  0.00  0.00    +0.000 A 
ENDROOT
BRANCH   4  10
ATOM     10  C   UNL     1      47.770   3.332  16.473  0.00  0.00    +0.000 C 
ATOM     11  N   UNL     1      46.971   2.893  17.475  0.00  0.00    +0.000 N 
ATOM     12  O   UNL     1      48.003   2.606  15.512  0.00  0.00    +0.000 OA
ATOM     13  H   UNL     1      46.744   3.476  18.275  0.00  0.00    +0.000 HD
ATOM     14  H   UNL     1      46.566   1.970  17.381  0.00  0.00    +0.000 HD
ENDBRANCH   4  10
BRANCH   1  16
ATOM     15  C   UNL     1      46.915   6.624  11.763  0.00  0.00    +0.000 C 
ATOM     16  C   UNL     1      47.817   7.646  12.498  0.00  0.00    +0.000 C 
ATOM     17  C   UNL     1      49.127   7.764  11.667  0.00  0.00    +0.000 C 
ATOM     18  C   UNL     1      47.109   9.012  12.343  0.00  0.00    +0.000 C 
ENDBRANCH   1  16
BRANCH   9  19
ATOM     19  C   UNL     1      49.007   9.340  15.398  0.00  0.00    +0.000 C 
BRANCH  19  20
ATOM     20  N   UNL     1      50.073   9.873  14.539  0.00  0.00    +0.000 NA
ATOM     21  C   UNL     1      51.260   8.989  14.513  0.00  0.00    +0.000 C 
ATOM     22  C   UNL     1      52.295   9.247  15.622  0.00  0.00    +0.000 C 
ATOM     23  O   UNL     1      52.750  10.601  15.605  0.00  0.00    +0.000 OA
ATOM     24  C   UNL     1      51.663  11.515  15.755  0.00  0.00    +0.000 C 
ATOM     25  C   UNL     1      50.538  11.267  14.725  0.00  0.00    +0.000 C 
ENDBRANCH  19  20
ENDBRANCH   9  19
TORSDOF 4
ENDMDL
