MODEL 1
REMARK VINA RESULT:    -8.250      0.000      0.000
REMARK INTER + INTRA:         -12.346
REMARK INTER:                 -11.627
REMARK INTRA:                  -0.719
REMARK UNBOUND:                -0.719
REMARK  Name = 
REMARK  7 active torsions:
REMARK  status: ('A' for Active; 'I' for Inactive)
REMARK    1  A    between atoms: C_2  and  C_3
REMARK    2  A    between atoms: C_7  and  N_8
REMARK    3  A    between atoms: N_8  and  C_9
REMARK    4  A    between atoms: C_9  and  C_10
REMARK    5  A    between atoms: C_13  and  C_14
REMARK    6  A    between atoms: C_14  and  N_15
REMARK    7  A    between atoms: C_16  and  C_18
REMARK                            x       y       z     vdW  Elec       q    Type
REMARK                         _______ _______ _______ _____ _____    ______ ____
ROOT
ATOM      1  C   UNL     1      45.075   5.276  11.585  0.00  0.00    +0.000 A 
ATOM      2  C   UNL     1      45.838   6.360  11.129  0.00  0.00    +0.000 A 
ATOM      3  C   UNL     1      46.948   6.806  11.855  0.00  0.00    +0.000 A 
ATOM      4  C   UNL     1      47.333   6.161  13.038  0.00  0.00    +0.000 A 
ATOM      5  C   UNL     1      46.571   5.077  13.492  0.00  0.00    +0.000 A 
ATOM      6  C   UNL     1      45.461   4.632  12.767  0.00  0.00    +0.000 A 
ENDROOT
BRANCH   1   7
ATOM      7  C   UNL     1      43.855   4.814  10.823  0.00  0.00    +0.000 C 
BRANCH   7   8
ATOM      8  N   UNL     1      44.098   3.551  10.174  0.00  0.00    +0.000 N 
ATOM      9  H   UNL     1      43.558   2.738  10.443  0.00  0.00    +0.000 HD
BRANCH   8  14
ATOM     10  C   UNL     1      46.244   1.790   7.972  0.00  0.00    +0.000 A 
ATOM     11  C   UNL     1      46.809   2.760   7.156  0.00  0.00    +0.000 A 
ATOM     12  C   UNL     1      46.432   4.077   7.366  0.00  0.00    +0.000 A 
ATOM     13  C   UNL     1      45.515   4.369   8.375  0.00  0.00    +0.000 A 
ATOM     14  C   UNL     1      44.993   3.344   9.161  0.00  0.00    +0.000 A 
ATOM     15  N   UNL     1      45.354   2.063   8.961  0.00  0.00    +0.000 NA
BRANCH  10  17
ATOM     16  N   UNL     1      46.824  -0.718   7.607  0.00  0.00    +0.000 NA
ATOM     17  C   UNL     1      46.584   0.406   7.793  0.00  0.00    +0.000 C 
ENDBRANCH  10  17
ENDBRANCH   8  14
ENDBRANCH   7   8
ENDBRANCH   1   7
BRANCH   4  18
ATOM     18  C   UNL     1      48.521   6.641  13.832  0.00  0.00    +0.000 C 
BRANCH  18  19
ATOM     19  N   UNL     1      48.184   6.824  15.221  0.00  0.00    +0.000 N 
ATOM     20  C   UNL     1      49.108   6.591  16.209  0.00  0.00    +0.000 C 
ATOM     21  O   UNL     1      50.263   6.261  15.953  0.00  0.00    +0.000 OA
ATOM     22  H   UNL     1      47.198   6.870  15.458  0.00  0.00    +0.000 HD
BRANCH  20  23
ATOM     23  C   UNL     1      48.666   6.820  17.592  0.00  0.00    +0.000 A 
ATOM     24  C   UNL     1      48.259   8.089  17.979  0.00  0.00    +0.000 A 
ATOM     25  S   UNL     1      47.728   8.175  19.597  0.00  0.00    +0.000 S 
ATOM     26  C   UNL     1      48.074   6.530  19.854  0.00  0.00    +0.000 A 
ATOM     27  N   UNL     1      47.868   5.955  21.069  0.00  0.00    +0.000 NA
ATOM     28  C   UNL     1      48.205   4.710  21.134  0.00  0.00    +0.000 A 
ATOM     29  N   UNL     1      48.725   3.987  20.092  0.00  0.00    +0.000 N 
ATOM     30  C   UNL     1      48.919   4.517  18.838  0.00  0.00    +0.000 A 
ATOM     31  O   UNL     1      49.341   3.828  17.915  0.00  0.00    +0.000 OA
ATOM     32  C   UNL     1      48.570   5.919  18.715  0.00  0.00    +0.000 A 
ATOM     33  H   UNL     1      48.961   3.013  20.206  0.00  0.00    +0.000 HD
ENDBRANCH  20  23
ENDBRANCH  18  19
ENDBRANCH   4  18
TORSDOF 7
ENDMDL
MODEL 2
REMARK VINA RESULT:    -7.991      1.488      2.174
REMARK INTER + INTRA:         -11.981
REMARK INTER:                 -11.046
REMARK INTRA:                  -0.935
REMARK UNBOUND:                -0.719
REMARK  Name = 
REMARK  7 active torsions:
REMARK  status: ('A' for Active; 'I' for Inactive)
REMARK    1  A    between atoms: C_2  and  C_3
REMARK    2  A    between atoms: C_7  and  N_8
REMARK    3  A    between atoms: N_8  and  C_9
REMARK    4  A    between atoms: C_9  and  C_10
REMARK    5  A    between atoms: C_13  and  C_14
REMARK    6  A    between atoms: C_14  and  N_15
REMARK    7  A    between atoms: C_16  and  C_18
REMARK                            x       y       z     vdW  Elec       q    Type
REMARK                         _______ _______ _______ _____ _____    ______ ____
ROOT
ATOM      1  C   UNL     1      44.735   4.859  12.264  0.00  0.00    +0.000 A 
ATOM      2  C   UNL     1      45.045   6.226  12.267  0.00  0.00    +0.000 A 
ATOM      3  C   UNL     1      46.176   6.699  12.940  0.00  0.00    +0.000 A 
ATOM      4  C   UNL     1      47.033   5.813  13.606  0.00  0.00    +0.000 A 
ATOM      5  C   UNL     1      46.723   4.447  13.603  0.00  0.00    +0.000 A 
ATOM      6  C   UNL     1      45.593   3.973  12.929  0.00  0.00    +0.000 A 
ENDROOT
BRANCH   1   7
ATOM      7  C   UNL     1      43.496   4.348  11.567  0.00  0.00    +0.000 C 
BRANCH   7   8
ATOM      8  N   UNL     1      43.805   3.224  10.720  0.00  0.00    +0.000 N 
ATOM      9  H   UNL     1      43.342   2.337  10.875  0.00  0.00    +0.000 HD
BRANCH   8  14
ATOM     10  C   UNL     1      46.016   2.013   8.229  0.00  0.00    +0.000 A 
ATOM     11  C   UNL     1      46.433   3.137   7.531  0.00  0.00    +0.000 A 
ATOM     12  C   UNL     1      45.929   4.366   7.927  0.00  0.00    +0.000 A 
ATOM     13  C   UNL     1      45.036   4.420   8.998  0.00  0.00    +0.000 A 
ATOM     14  C   UNL     1      44.667   3.251   9.657  0.00  0.00    +0.000 A 
ATOM     15  N   UNL     1      45.152   2.055   9.276  0.00  0.00    +0.000 NA
BRANCH  10  17
ATOM     16  N   UNL     1      46.882  -0.358   7.608  0.00  0.00    +0.000 NA
ATOM     17  C   UNL     1      46.493   0.711   7.857  0.00  0.00    +0.000 C 
ENDBRANCH  10  17
ENDBRANCH   8  14
ENDBRANCH   7   8
ENDBRANCH   1   7
BRANCH   4  18
ATOM     18  C   UNL     1      48.247   6.315  14.345  0.00  0.00    +0.000 C 
BRANCH  18  19
ATOM     19  N   UNL     1      47.990   6.432  15.758  0.00  0.00    +0.000 N 
ATOM     20  C   UNL     1      48.919   6.022  16.682  0.00  0.00    +0.000 C 
ATOM     21  O   UNL     1      50.015   5.580  16.348  0.00  0.00    +0.000 OA
ATOM     22  H   UNL     1      47.027   6.575  16.045  0.00  0.00    +0.000 HD
BRANCH  20  23
ATOM     23  C   UNL     1      48.563   6.196  18.097  0.00  0.00    +0.000 A 
ATOM     24  C   UNL     1      48.624   5.108  18.956  0.00  0.00    +0.000 A 
ATOM     25  S   UNL     1      48.232   5.487  20.571  0.00  0.00    +0.000 S 
ATOM     26  C   UNL     1      47.915   7.109  20.170  0.00  0.00    +0.000 A 
ATOM     27  N   UNL     1      47.500   7.994  21.116  0.00  0.00    +0.000 NA
ATOM     28  C   UNL     1      47.262   9.182  20.667  0.00  0.00    +0.000 A 
ATOM     29  N   UNL     1      47.409   9.566  19.359  0.00  0.00    +0.000 N 
ATOM     30  C   UNL     1      47.857   8.715  18.376  0.00  0.00    +0.000 A 
ATOM     31  O   UNL     1      48.023   9.105  17.224  0.00  0.00    +0.000 OA
ATOM     32  C   UNL     1      48.124   7.362  18.825  0.00  0.00    +0.000 A 
ATOM     33  H   UNL     1      47.214  10.514  19.074  0.00  0.00    +0.000 HD
ENDBRANCH  20  23
ENDBRANCH  18  19
ENDBRANCH   4  18
TORSDOF 7
ENDMDL
MODEL 3
REMARK VINA RESULT:    -7.713      2.171      2.509
REMARK INTER + INTRA:         -11.589
REMARK INTER:                 -10.530
REMARK INTRA:                  -1.059
REMARK UNBOUND:                -0.719
REMARK  Name = 
REMARK  7 active torsions:
REMARK  status: ('A' for Active; 'I' for Inactive)
REMARK    1  A    between atoms: C_2  and  C_3
REMARK    2  A    between atoms: C_7  and  N_8
REMARK    3  A    between atoms: N_8  and  C_9
REMARK    4  A    between atoms: C_9  and  C_10
REMARK    5  A    between atoms: C_13  and  C_14
REMARK    6  A    between atoms: C_14  and  N_15
REMARK    7  A    between atoms: C_16  and  C_18
REMARK                            x       y       z     vdW  Elec       q    Type
REMARK                         _______ _______ _______ _____ _____    ______ ____
ROOT
ATOM      1  C   UNL     1      44.954   4.431  12.480  0.00  0.00    +0.000 A 
ATOM      2  C   UNL     1      44.558   5.772  12.384  0.00  0.00    +0.000 A 
ATOM      3  C   UNL     1      45.422   6.800  12.779  0.00  0.00    +0.000 A 
ATOM      4  C   UNL     1      46.707   6.509  13.256  0.00  0.00    +0.000 A 
ATOM      5  C   UNL     1      47.102   5.168  13.351  0.00  0.00    +0.000 A 
ATOM      6  C   UNL     1      46.239   4.141  12.956  0.00  0.00    +0.000 A 
ENDROOT
BRANCH   1   7
ATOM      7  C   UNL     1      44.012   3.317  12.087  0.00  0.00    +0.000 C 
BRANCH   7   8
ATOM      8  N   UNL     1      43.690   3.382  10.684  0.00  0.00    +0.000 N 
ATOM      9  H   UNL     1      42.723   3.464  10.395  0.00  0.00    +0.000 HD
BRANCH   8  14
ATOM     10  C   UNL     1      45.970   2.111   8.289  0.00  0.00    +0.000 A 
ATOM     11  C   UNL     1      46.465   3.224   7.625  0.00  0.00    +0.000 A 
ATOM     12  C   UNL     1      45.990   4.468   8.012  0.00  0.00    +0.000 A 
ATOM     13  C   UNL     1      45.050   4.546   9.038  0.00  0.00    +0.000 A 
ATOM     14  C   UNL     1      44.603   3.387   9.665  0.00  0.00    +0.000 A 
ATOM     15  N   UNL     1      45.058   2.175   9.294  0.00  0.00    +0.000 NA
BRANCH  10  17
ATOM     16  N   UNL     1      46.815  -0.267   7.663  0.00  0.00    +0.000 NA
ATOM     17  C   UNL     1      46.414   0.794   7.924  0.00  0.00    +0.000 C 
ENDBRANCH  10  17
ENDBRANCH   8  14
ENDBRANCH   7   8
ENDBRANCH   1   7
BRANCH   4  18
ATOM     18  C   UNL     1      47.638   7.609  13.695  0.00  0.00    +0.000 C 
BRANCH  18  19
ATOM     19  N   UNL     1      48.840   7.075  14.284  0.00  0.00    +0.000 N 
ATOM     20  C   UNL     1      49.222   7.429  15.554  0.00  0.00    +0.000 C 
ATOM     21  O   UNL     1      48.543   8.177  16.252  0.00  0.00    +0.000 OA
ATOM     22  H   UNL     1      49.515   6.649  13.658  0.00  0.00    +0.000 HD
BRANCH  20  23
ATOM     23  C   UNL     1      50.457   6.817  16.066  0.00  0.00    +0.000 A 
ATOM     24  C   UNL     1      51.683   7.388  15.754  0.00  0.00    +0.000 A 
ATOM     25  S   UNL     1      53.011   6.591  16.466  0.00  0.00    +0.000 S 
ATOM     26  C   UNL     1      51.999   5.422  17.173  0.00  0.00    +0.000 A 
ATOM     27  N   UNL     1      52.517   4.407  17.917  0.00  0.00    +0.000 NA
ATOM     28  C   UNL     1      51.639   3.572  18.365  0.00  0.00    +0.000 A 
ATOM     29  N   UNL     1      50.289   3.664  18.142  0.00  0.00    +0.000 N 
ATOM     30  C   UNL     1      49.718   4.690  17.426  0.00  0.00    +0.000 A 
ATOM     31  O   UNL     1      48.502   4.768  17.286  0.00  0.00    +0.000 OA
ATOM     32  C   UNL     1      50.664   5.648  16.886  0.00  0.00    +0.000 A 
ATOM     33  H   UNL     1      49.655   2.981  18.528  0.00  0.00    +0.000 HD
ENDBRANCH  20  23
ENDBRANCH  18  19
ENDBRANCH   4  18
TORSDOF 7
ENDMDL
MODEL 4
REMARK VINA RESULT:    -7.687      3.369      8.804
REMARK INTER + INTRA:         -11.552
REMARK INTER:                 -10.081
REMARK INTRA:                  -1.470
REMARK UNBOUND:                -0.719
REMARK  Name = 
REMARK  7 active torsions:
REMARK  status: ('A' for Active; 'I' for Inactive)
REMARK    1  A    between atoms: C_2  and  C_3
REMARK    2  A    between atoms: C_7  and  N_8
REMARK    3  A    between atoms: N_8  and  C_9
REMARK    4  A    between atoms: C_9  and  C_10
REMARK    5  A    between atoms: C_13  and  C_14
REMARK    6  A    between atoms: C_14  and  N_15
REMARK    7  A    between atoms: C_16  and  C_18
REMARK                            x       y       z     vdW  Elec       q    Type
REMARK                         _______ _______ _______ _____ _____    ______ ____
ROOT
ATOM      1  C   UNL     1      49.583   8.266  15.696  0.00  0.00    +0.000 A 
ATOM      2  C   UNL     1      50.203   7.591  14.636  0.00  0.00    +0.000 A 
ATOM      3  C   UNL     1      49.582   7.504  13.385  0.00  0.00    +0.000 A 
ATOM      4  C   UNL     1      48.338   8.110  13.163  0.00  0.00    +0.000 A 
ATOM      5  C   UNL     1      47.719   8.784  14.223  0.00  0.00    +0.000 A 
ATOM      6  C   UNL     1      48.340   8.872  15.472  0.00  0.00    +0.000 A 
ENDROOT
BRANCH   1   7
ATOM      7  C   UNL     1      50.234   8.332  17.057  0.00  0.00    +0.000 C 
BRANCH   7   8
ATOM      8  N   UNL     1      50.414   7.014  17.610  0.00  0.00    +0.000 N 
ATOM      9  H   UNL     1      51.319   6.740  17.971  0.00  0.00    +0.000 HD
BRANCH   8  14
ATOM     10  C   UNL     1      48.743   3.912  17.237  0.00  0.00    +0.000 A 
ATOM     11  C   UNL     1      47.532   4.065  17.895  0.00  0.00    +0.000 A 
ATOM     12  C   UNL     1      47.278   5.286  18.501  0.00  0.00    +0.000 A 
ATOM     13  C   UNL     1      48.238   6.295  18.423  0.00  0.00    +0.000 A 
ATOM     14  C   UNL     1      49.429   6.073  17.738  0.00  0.00    +0.000 A 
ATOM     15  N   UNL     1      49.682   4.889  17.149  0.00  0.00    +0.000 NA
BRANCH  10  17
ATOM     16  N   UNL     1      49.313   1.675  16.039  0.00  0.00    +0.000 NA
ATOM     17  C   UNL     1      49.069   2.665  16.602  0.00  0.00    +0.000 C 
ENDBRANCH  10  17
ENDBRANCH   8  14
ENDBRANCH   7   8
ENDBRANCH   1   7
BRANCH   4  18
ATOM     18  C   UNL     1      47.656   8.011  11.822  0.00  0.00    +0.000 C 
BRANCH  18  19
ATOM     19  N   UNL     1      46.952   6.761  11.683  0.00  0.00    +0.000 N 
ATOM     20  C   UNL     1      45.586   6.701  11.804  0.00  0.00    +0.000 C 
ATOM     21  O   UNL     1      44.907   7.706  11.994  0.00  0.00    +0.000 OA
ATOM     22  H   UNL     1      47.500   5.909  11.755  0.00  0.00    +0.000 HD
BRANCH  20  23
ATOM     23  C   UNL     1      44.966   5.380  11.632  0.00  0.00    +0.000 A 
ATOM     24  C   UNL     1      44.268   4.809  12.687  0.00  0.00    +0.000 A 
ATOM     25  S   UNL     1      43.567   3.302  12.310  0.00  0.00    +0.000 S 
ATOM     26  C   UNL     1      44.215   3.333  10.739  0.00  0.00    +0.000 A 
ATOM     27  N   UNL     1      44.007   2.301   9.876  0.00  0.00    +0.000 NA
ATOM     28  C   UNL     1      44.585   2.439   8.730  0.00  0.00    +0.000 A 
ATOM     29  N   UNL     1      45.348   3.519   8.365  0.00  0.00    +0.000 N 
ATOM     30  C   UNL     1      45.558   4.599   9.190  0.00  0.00    +0.000 A 
ATOM     31  O   UNL     1      46.206   5.570   8.814  0.00  0.00    +0.000 OA
ATOM     32  C   UNL     1      44.942   4.487  10.499  0.00  0.00    +0.000 A 
ATOM     33  H   UNL     1      45.767   3.569   7.449  0.00  0.00    +0.000 HD
ENDBRANCH  20  23
ENDBRANCH  18  19
ENDBRANCH   4  18
TORSDOF 7
ENDMDL
MODEL 5
REMARK VINA RESULT:    -7.514      5.003      9.629
REMARK INTER + INTRA:         -11.309
REMARK INTER:                 -10.475
REMARK INTRA:                  -0.834
REMARK UNBOUND:                -0.719
REMARK  Name = 
REMARK  7 active torsions:
REMARK  status: ('A' for Active; 'I' for Inactive)
REMARK    1  A    between atoms: C_2  and  C_3
REMARK    2  A    between atoms: C_7  and  N_8
REMARK    3  A    between atoms: N_8  and  C_9
REMARK    4  A    between atoms: C_9  and  C_10
REMARK    5  A    between atoms: C_13  and  C_14
REMARK    6  A    between atoms: C_14  and  N_15
REMARK    7  A    between atoms: C_16  and  C_18
REMARK                            x       y       z     vdW  Elec       q    Type
REMARK                         _______ _______ _______ _____ _____    ______ ____
ROOT
ATOM      1  C   UNL     1      51.398   3.255  17.848  0.00  0.00    +0.000 A 
ATOM      2  C   UNL     1      50.764   2.167  17.233  0.00  0.00    +0.000 A 
ATOM      3  C   UNL     1      49.395   2.208  16.946  0.00  0.00    +0.000 A 
ATOM      4  C   UNL     1      48.637   3.347  17.248  0.00  0.00    +0.000 A 
ATOM      5  C   UNL     1      49.271   4.434  17.862  0.00  0.00    +0.000 A 
ATOM      6  C   UNL     1      50.639   4.394  18.148  0.00  0.00    +0.000 A 
ENDROOT
BRANCH   1   7
ATOM      7  C   UNL     1      52.868   3.201  18.190  0.00  0.00    +0.000 C 
BRANCH   7   8
ATOM      8  N   UNL     1      53.206   1.953  18.828  0.00  0.00    +0.000 N 
ATOM      9  H   UNL     1      52.950   1.799  19.795  0.00  0.00    +0.000 HD
BRANCH   8  14
ATOM     10  C   UNL     1      54.367  -1.357  18.328  0.00  0.00    +0.000 A 
ATOM     11  C   UNL     1      55.049  -1.329  17.120  0.00  0.00    +0.000 A 
ATOM     12  C   UNL     1      55.108  -0.121  16.442  0.00  0.00    +0.000 A 
ATOM     13  C   UNL     1      54.489   1.000  16.996  0.00  0.00    +0.000 A 
ATOM     14  C   UNL     1      53.828   0.899  18.217  0.00  0.00    +0.000 A 
ATOM     15  N   UNL     1      53.766  -0.271  18.879  0.00  0.00    +0.000 NA
BRANCH  10  17
ATOM     16  N   UNL     1      54.146  -3.597  19.628  0.00  0.00    +0.000 NA
ATOM     17  C   UNL     1      54.259  -2.582  19.070  0.00  0.00    +0.000 C 
ENDBRANCH  10  17
ENDBRANCH   8  14
ENDBRANCH   7   8
ENDBRANCH   1   7
BRANCH   4  18
ATOM     18  C   UNL     1      47.160   3.395  16.954  0.00  0.00    +0.000 C 
BRANCH  18  19
ATOM     19  N   UNL     1      46.855   4.397  15.963  0.00  0.00    +0.000 N 
ATOM     20  C   UNL     1      46.966   4.122  14.622  0.00  0.00    +0.000 C 
ATOM     21  O   UNL     1      47.286   3.009  14.213  0.00  0.00    +0.000 OA
ATOM     22  H   UNL     1      46.814   5.362  16.275  0.00  0.00    +0.000 HD
BRANCH  20  23
ATOM     23  C   UNL     1      46.619   5.208  13.696  0.00  0.00    +0.000 A 
ATOM     24  C   UNL     1      47.551   6.202  13.429  0.00  0.00    +0.000 A 
ATOM     25  S   UNL     1      47.014   7.357  12.296  0.00  0.00    +0.000 S 
ATOM     26  C   UNL     1      45.498   6.600  12.162  0.00  0.00    +0.000 A 
ATOM     27  N   UNL     1      44.531   7.111  11.351  0.00  0.00    +0.000 NA
ATOM     28  C   UNL     1      43.418   6.457  11.372  0.00  0.00    +0.000 A 
ATOM     29  N   UNL     1      43.186   5.335  12.124  0.00  0.00    +0.000 N 
ATOM     30  C   UNL     1      44.142   4.764  12.931  0.00  0.00    +0.000 A 
ATOM     31  O   UNL     1      43.915   3.732  13.554  0.00  0.00    +0.000 OA
ATOM     32  C   UNL     1      45.408   5.471  12.956  0.00  0.00    +0.000 A 
ATOM     33  H   UNL     1      42.293   4.865  12.088  0.00  0.00    +0.000 HD
ENDBRANCH  20  23
ENDBRANCH  18  19
ENDBRANCH   4  18
TORSDOF 7
ENDMDL
MODEL 6
REMARK VINA RESULT:    -7.411      5.020      9.423
REMARK INTER + INTRA:         -11.163
REMARK INTER:                 -10.152
REMARK INTRA:                  -1.011
REMARK UNBOUND:                -0.719
REMARK  Name = 
REMARK  7 active torsions:
REMARK  status: ('A' for Active; 'I' for Inactive)
REMARK    1  A    between atoms: C_2  and  C_3
REMARK    2  A    between atoms: C_7  and  N_8
REMARK    3  A    between atoms: N_8  and  C_9
REMARK    4  A    between atoms: C_9  and  C_10
REMARK    5  A    between atoms: C_13  and  C_14
REMARK    6  A    between atoms: C_14  and  N_15
REMARK    7  A    between atoms: C_16  and  C_18
REMARK                            x       y       z     vdW  Elec       q    Type
REMARK                         _______ _______ _______ _____ _____    ______ ____
ROOT
ATOM      1  C   UNL     1      50.686   2.385  17.522  0.00  0.00    +0.000 A 
ATOM      2  C   UNL     1      51.481   3.539  17.536  0.00  0.00    +0.000 A 
ATOM      3  C   UNL     1      50.915   4.797  17.300  0.00  0.00    +0.000 A 
ATOM      4  C   UNL     1      49.540   4.929  17.068  0.00  0.00    +0.000 A 
ATOM      5  C   UNL     1      48.746   3.775  17.055  0.00  0.00    +0.000 A 
ATOM      6  C   UNL     1      49.310   2.518  17.291  0.00  0.00    +0.000 A 
ENDROOT
BRANCH   1   7
ATOM      7  C   UNL     1      51.298   1.021  17.742  0.00  0.00    +0.000 C 
BRANCH   7   8
ATOM      8  N   UNL     1      52.631   1.133  18.277  0.00  0.00    +0.000 N 
ATOM      9  H   UNL     1      52.851   1.879  18.923  0.00  0.00    +0.000 HD
BRANCH   8  14
ATOM     10  C   UNL     1      54.693  -1.733  18.583  0.00  0.00    +0.000 A 
ATOM     11  C   UNL     1      55.684  -1.576  17.626  0.00  0.00    +0.000 A 
ATOM     12  C   UNL     1      55.641  -0.439  16.834  0.00  0.00    +0.000 A 
ATOM     13  C   UNL     1      54.618   0.487  17.031  0.00  0.00    +0.000 A 
ATOM     14  C   UNL     1      53.659   0.268  18.017  0.00  0.00    +0.000 A 
ATOM     15  N   UNL     1      53.694  -0.835  18.788  0.00  0.00    +0.000 NA
BRANCH  10  17
ATOM     16  N   UNL     1      54.686  -3.870  20.064  0.00  0.00    +0.000 NA
ATOM     17  C   UNL     1      54.676  -2.897  19.424  0.00  0.00    +0.000 C 
ENDBRANCH  10  17
ENDBRANCH   8  14
ENDBRANCH   7   8
ENDBRANCH   1   7
BRANCH   4  18
ATOM     18  C   UNL     1      48.925   6.279  16.802  0.00  0.00    +0.000 C 
BRANCH  18  19
ATOM     19  N   UNL     1      47.913   6.201  15.778  0.00  0.00    +0.000 N 
ATOM     20  C   UNL     1      48.221   6.430  14.460  0.00  0.00    +0.000 C 
ATOM     21  O   UNL     1      49.368   6.669  14.094  0.00  0.00    +0.000 OA
ATOM     22  H   UNL     1      46.944   6.232  16.080  0.00  0.00    +0.000 HD
BRANCH  20  23
ATOM     23  C   UNL     1      47.119   6.313  13.496  0.00  0.00    +0.000 A 
ATOM     24  C   UNL     1      46.604   7.458  12.902  0.00  0.00    +0.000 A 
ATOM     25  S   UNL     1      45.368   7.148  11.770  0.00  0.00    +0.000 S 
ATOM     26  C   UNL     1      45.439   5.475  12.072  0.00  0.00    +0.000 A 
ATOM     27  N   UNL     1      44.603   4.614  11.431  0.00  0.00    +0.000 NA
ATOM     28  C   UNL     1      44.740   3.379  11.780  0.00  0.00    +0.000 A 
ATOM     29  N   UNL     1      45.642   2.925  12.708  0.00  0.00    +0.000 N 
ATOM     30  C   UNL     1      46.529   3.753  13.355  0.00  0.00    +0.000 A 
ATOM     31  O   UNL     1      47.356   3.307  14.144  0.00  0.00    +0.000 OA
ATOM     32  C   UNL     1      46.405   5.156  13.010  0.00  0.00    +0.000 A 
ATOM     33  H   UNL     1      45.705   1.943  12.930  0.00  0.00    +0.000 HD
ENDBRANCH  20  23
ENDBRANCH  18  19
ENDBRANCH   4  18
TORSDOF 7
ENDMDL
MODEL 7
REMARK VINA RESULT:    -7.143      3.625      5.308
REMARK INTER + INTRA:         -10.786
REMARK INTER:                  -9.951
REMARK INTRA:                  -0.835
REMARK UNBOUND:                -0.719
REMARK  Name = 
REMARK  7 active torsions:
REMARK  status: ('A' for Active; 'I' for Inactive)
REMARK    1  A    between atoms: C_2  and  C_3
REMARK    2  A    between atoms: C_7  and  N_8
REMARK    3  A    between atoms: N_8  and  C_9
REMARK    4  A    between atoms: C_9  and  C_10
REMARK    5  A    between atoms: C_13  and  C_14
REMARK    6  A    between atoms: C_14  and  N_15
REMARK    7  A    between atoms: C_16  and  C_18
REMARK                            x       y       z     vdW  Elec       q    Type
REMARK                         _______ _______ _______ _____ _____    ______ ____
ROOT
ATOM      1  C   UNL     1      47.531   5.801  14.298  0.00  0.00    +0.000 A 
ATOM      2  C   UNL     1      46.937   4.533  14.357  0.00  0.00    +0.000 A 
ATOM      3  C   UNL     1      47.119   3.711  15.475  0.00  0.00    +0.000 A 
ATOM      4  C   UNL     1      47.880   4.151  16.567  0.00  0.00    +0.000 A 
ATOM      5  C   UNL     1      48.473   5.419  16.507  0.00  0.00    +0.000 A 
ATOM      6  C   UNL     1      48.290   6.240  15.390  0.00  0.00    +0.000 A 
ENDROOT
BRANCH   1   7
ATOM      7  C   UNL     1      47.365   6.676  13.078  0.00  0.00    +0.000 C 
BRANCH   7   8
ATOM      8  N   UNL     1      45.972   6.880  12.773  0.00  0.00    +0.000 N 
ATOM      9  H   UNL     1      45.494   7.697  13.132  0.00  0.00    +0.000 HD
BRANCH   8  14
ATOM     10  C   UNL     1      45.054   4.940   9.953  0.00  0.00    +0.000 A 
ATOM     11  C   UNL     1      43.797   4.435  10.248  0.00  0.00    +0.000 A 
ATOM     12  C   UNL     1      43.239   4.769  11.472  0.00  0.00    +0.000 A 
ATOM     13  C   UNL     1      43.956   5.589  12.343  0.00  0.00    +0.000 A 
ATOM     14  C   UNL     1      45.212   6.066  11.978  0.00  0.00    +0.000 A 
ATOM     15  N   UNL     1      45.760   5.744  10.791  0.00  0.00    +0.000 NA
BRANCH  10  17
ATOM     16  N   UNL     1      46.251   4.380   7.714  0.00  0.00    +0.000 NA
ATOM     17  C   UNL     1      45.690   4.618   8.706  0.00  0.00    +0.000 C 
ENDBRANCH  10  17
ENDBRANCH   8  14
ENDBRANCH   7   8
ENDBRANCH   1   7
BRANCH   4  18
ATOM     18  C   UNL     1      48.091   3.268  17.770  0.00  0.00    +0.000 C 
BRANCH  18  19
ATOM     19  N   UNL     1      49.493   3.048  18.019  0.00  0.00    +0.000 N 
ATOM     20  C   UNL     1      50.238   2.237  17.199  0.00  0.00    +0.000 C 
ATOM     21  O   UNL     1      49.756   1.702  16.204  0.00  0.00    +0.000 OA
ATOM     22  H   UNL     1      49.845   3.288  18.940  0.00  0.00    +0.000 HD
BRANCH  20  23
ATOM     23  C   UNL     1      51.661   2.089  17.533  0.00  0.00    +0.000 A 
ATOM     24  C   UNL     1      52.197   0.818  17.695  0.00  0.00    +0.000 A 
ATOM     25  S   UNL     1      53.869   0.817  18.029  0.00  0.00    +0.000 S 
ATOM     26  C   UNL     1      53.926   2.517  18.021  0.00  0.00    +0.000 A 
ATOM     27  N   UNL     1      55.089   3.178  18.270  0.00  0.00    +0.000 NA
ATOM     28  C   UNL     1      54.981   4.465  18.268  0.00  0.00    +0.000 A 
ATOM     29  N   UNL     1      53.818   5.151  18.033  0.00  0.00    +0.000 N 
ATOM     30  C   UNL     1      52.627   4.527  17.744  0.00  0.00    +0.000 A 
ATOM     31  O   UNL     1      51.615   5.172  17.491  0.00  0.00    +0.000 OA
ATOM     32  C   UNL     1      52.690   3.077  17.749  0.00  0.00    +0.000 A 
ATOM     33  H   UNL     1      53.803   6.160  18.037  0.00  0.00    +0.000 HD
ENDBRANCH  20  23
ENDBRANCH  18  19
ENDBRANCH   4  18
TORSDOF 7
ENDMDL
MODEL 8
REMARK VINA RESULT:    -7.072      3.122      4.101
REMARK INTER + INTRA:         -10.685
REMARK INTER:                 -10.070
REMARK INTRA:                  -0.615
REMARK UNBOUND:                -0.719
REMARK  Name = 
REMARK  7 active torsions:
REMARK  status: ('A' for Active; 'I' for Inactive)
REMARK    1  A    between atoms: C_2  and  C_3
REMARK    2  A    between atoms: C_7  and  N_8
REMARK    3  A    between atoms: N_8  and  C_9
REMARK    4  A    between atoms: C_9  and  C_10
REMARK    5  A    between atoms: C_13  and  C_14
REMARK    6  A    between atoms: C_14  and  N_15
REMARK    7  A    between atoms: C_16  and  C_18
REMARK                            x       y       z     vdW  Elec       q    Type
REMARK                         _______ _______ _______ _____ _____    ______ ____
ROOT
ATOM      1  C   UNL     1      46.989   6.094  12.516  0.00  0.00    +0.000 A 
ATOM      2  C   UNL     1      46.280   5.003  13.037  0.00  0.00    +0.000 A 
ATOM      3  C   UNL     1      46.513   4.560  14.344  0.00  0.00    +0.000 A 
ATOM      4  C   UNL     1      47.444   5.212  15.163  0.00  0.00    +0.000 A 
ATOM      5  C   UNL     1      48.152   6.302  14.641  0.00  0.00    +0.000 A 
ATOM      6  C   UNL     1      47.918   6.746  13.336  0.00  0.00    +0.000 A 
ENDROOT
BRANCH   1   7
ATOM      7  C   UNL     1      46.765   6.553  11.094  0.00  0.00    +0.000 C 
BRANCH   7   8
ATOM      8  N   UNL     1      45.482   6.117  10.605  0.00  0.00    +0.000 N 
ATOM      9  H   UNL     1      44.681   6.732  10.678  0.00  0.00    +0.000 HD
BRANCH   8  14
ATOM     10  C   UNL     1      45.634   3.587   8.129  0.00  0.00    +0.000 A 
ATOM     11  C   UNL     1      44.840   2.555   8.608  0.00  0.00    +0.000 A 
ATOM     12  C   UNL     1      44.229   2.732   9.840  0.00  0.00    +0.000 A 
ATOM     13  C   UNL     1      44.434   3.923  10.535  0.00  0.00    +0.000 A 
ATOM     14  C   UNL     1      45.240   4.919   9.989  0.00  0.00    +0.000 A 
ATOM     15  N   UNL     1      45.837   4.753   8.794  0.00  0.00    +0.000 NA
BRANCH  10  17
ATOM     16  N   UNL     1      46.811   3.314   5.826  0.00  0.00    +0.000 NA
ATOM     17  C   UNL     1      46.305   3.457   6.865  0.00  0.00    +0.000 C 
ENDBRANCH  10  17
ENDBRANCH   8  14
ENDBRANCH   7   8
ENDBRANCH   1   7
BRANCH   4  18
ATOM     18  C   UNL     1      47.710   4.734  16.567  0.00  0.00    +0.000 C 
BRANCH  18  19
ATOM     19  N   UNL     1      49.096   4.383  16.747  0.00  0.00    +0.000 N 
ATOM     20  C   UNL     1      49.701   4.498  17.974  0.00  0.00    +0.000 C 
ATOM     21  O   UNL     1      49.082   4.862  18.971  0.00  0.00    +0.000 OA
ATOM     22  H   UNL     1      49.667   4.303  15.912  0.00  0.00    +0.000 HD
BRANCH  20  23
ATOM     23  C   UNL     1      51.113   4.101  18.053  0.00  0.00    +0.000 A 
ATOM     24  C   UNL     1      52.060   5.023  18.480  0.00  0.00    +0.000 A 
ATOM     25  S   UNL     1      53.641   4.392  18.566  0.00  0.00    +0.000 S 
ATOM     26  C   UNL     1      53.127   2.879  17.983  0.00  0.00    +0.000 A 
ATOM     27  N   UNL     1      54.014   1.866  17.793  0.00  0.00    +0.000 NA
ATOM     28  C   UNL     1      53.495   0.785  17.314  0.00  0.00    +0.000 A 
ATOM     29  N   UNL     1      52.166   0.624  17.015  0.00  0.00    +0.000 N 
ATOM     30  C   UNL     1      51.228   1.608  17.222  0.00  0.00    +0.000 A 
ATOM     31  O   UNL     1      50.040   1.413  16.989  0.00  0.00    +0.000 OA
ATOM     32  C   UNL     1      51.764   2.850  17.745  0.00  0.00    +0.000 A 
ATOM     33  H   UNL     1      51.822  -0.252  16.649  0.00  0.00    +0.000 HD
ENDBRANCH  20  23
ENDBRANCH  18  19
ENDBRANCH   4  18
TORSDOF 7
ENDMDL
MODEL 9
REMARK VINA RESULT:    -6.896      4.098      9.104
REMARK INTER + INTRA:         -10.437
REMARK INTER:                  -9.286
REMARK INTRA:                  -1.151
REMARK UNBOUND:                -0.719
REMARK  Name = 
REMARK  7 active torsions:
REMARK  status: ('A' for Active; 'I' for Inactive)
REMARK    1  A    between atoms: C_2  and  C_3
REMARK    2  A    between atoms: C_7  and  N_8
REMARK    3  A    between atoms: N_8  and  C_9
REMARK    4  A    between atoms: C_9  and  C_10
REMARK    5  A    between atoms: C_13  and  C_14
REMARK    6  A    between atoms: C_14  and  N_15
REMARK    7  A    between atoms: C_16  and  C_18
REMARK                            x       y       z     vdW  Elec       q    Type
REMARK                         _______ _______ _______ _____ _____    ______ ____
ROOT
ATOM      1  C   UNL     1      51.318   3.591  18.130  0.00  0.00    +0.000 A 
ATOM      2  C   UNL     1      50.411   4.583  18.527  0.00  0.00    +0.000 A 
ATOM      3  C   UNL     1      49.063   4.505  18.158  0.00  0.00    +0.000 A 
ATOM      4  C   UNL     1      48.592   3.424  17.403  0.00  0.00    +0.000 A 
ATOM      5  C   UNL     1      49.499   2.433  17.006  0.00  0.00    +0.000 A 
ATOM      6  C   UNL     1      50.845   2.509  17.376  0.00  0.00    +0.000 A 
ENDROOT
BRANCH   1   7
ATOM      7  C   UNL     1      52.780   3.689  18.498  0.00  0.00    +0.000 C 
BRANCH   7   8
ATOM      8  N   UNL     1      53.268   5.033  18.327  0.00  0.00    +0.000 N 
ATOM      9  H   UNL     1      53.284   5.665  19.117  0.00  0.00    +0.000 HD
BRANCH   8  14
ATOM     10  C   UNL     1      53.453   7.035  15.409  0.00  0.00    +0.000 A 
ATOM     11  C   UNL     1      54.642   6.677  14.792  0.00  0.00    +0.000 A 
ATOM     12  C   UNL     1      55.421   5.709  15.407  0.00  0.00    +0.000 A 
ATOM     13  C   UNL     1      54.981   5.144  16.603  0.00  0.00    +0.000 A 
ATOM     14  C   UNL     1      53.771   5.547  17.162  0.00  0.00    +0.000 A 
ATOM     15  N   UNL     1      53.011   6.487  16.571  0.00  0.00    +0.000 NA
BRANCH  10  17
ATOM     16  N   UNL     1      51.907   8.869  14.405  0.00  0.00    +0.000 NA
ATOM     17  C   UNL     1      52.610   8.042  14.826  0.00  0.00    +0.000 C 
ENDBRANCH  10  17
ENDBRANCH   8  14
ENDBRANCH   7   8
ENDBRANCH   1   7
BRANCH   4  18
ATOM     18  C   UNL     1      47.144   3.339  16.990  0.00  0.00    +0.000 C 
BRANCH  18  19
ATOM     19  N   UNL     1      46.819   4.343  16.009  0.00  0.00    +0.000 N 
ATOM     20  C   UNL     1      46.959   4.091  14.667  0.00  0.00    +0.000 C 
ATOM     21  O   UNL     1      47.325   2.997  14.246  0.00  0.00    +0.000 OA
ATOM     22  H   UNL     1      46.739   5.301  16.334  0.00  0.00    +0.000 HD
BRANCH  20  23
ATOM     23  C   UNL     1      46.588   5.178  13.750  0.00  0.00    +0.000 A 
ATOM     24  C   UNL     1      47.482   6.215  13.521  0.00  0.00    +0.000 A 
ATOM     25  S   UNL     1      46.923   7.366  12.395  0.00  0.00    +0.000 S 
ATOM     26  C   UNL     1      45.444   6.548  12.213  0.00  0.00    +0.000 A 
ATOM     27  N   UNL     1      44.475   7.032  11.388  0.00  0.00    +0.000 NA
ATOM     28  C   UNL     1      43.391   6.331  11.371  0.00  0.00    +0.000 A 
ATOM     29  N   UNL     1      43.189   5.187  12.099  0.00  0.00    +0.000 N 
ATOM     30  C   UNL     1      44.150   4.643  12.919  0.00  0.00    +0.000 A 
ATOM     31  O   UNL     1      43.953   3.592  13.519  0.00  0.00    +0.000 OA
ATOM     32  C   UNL     1      45.384   5.402  12.986  0.00  0.00    +0.000 A 
ATOM     33  H   UNL     1      42.319   4.680  12.035  0.00  0.00    +0.000 HD
ENDBRANCH  20  23
ENDBRANCH  18  19
ENDBRANCH   4  18
TORSDOF 7
ENDMDL
