MODEL 1
REMARK VINA RESULT:    -7.155      0.000      0.000
REMARK INTER + INTRA:         -12.704
REMARK INTER:                 -11.128
REMARK INTRA:                  -1.575
REMARK UNBOUND:                -1.575
REMARK  Name = 
REMARK  10 active torsions:
REMARK  status: ('A' for Active; 'I' for Inactive)
REMARK    1  A    between atoms: N_1  and  C_2
REMARK    2  A    between atoms: C_2  and  C_3
REMARK    3  A    between atoms: C_3  and  N_4
REMARK    4  A    between atoms: N_4  and  C_5
REMARK    5  A    between atoms: C_5  and  C_6
REMARK    6  A    between atoms: C_9  and  C_10
REMARK    7  A    between atoms: C_10  and  N_11
REMARK    8  A    between atoms: N_11  and  C_12
REMARK    9  A    between atoms: C_12  and  C_13
REMARK   10  A    between atoms: C_20  and  C_22
REMARK                            x       y       z     vdW  Elec       q    Type
REMARK                         _______ _______ _______ _____ _____    ______ ____
ROOT
ATOM      1  N   UNL     1      46.267   6.980  12.197  0.00  0.00    +0.000 N 
ATOM      2  C   UNL     1      45.051   6.583  11.581  0.00  0.00    +0.000 C 
ATOM      3  O   UNL     1      44.260   7.435  11.164  0.00  0.00    +0.000 OA
ENDROOT
BRANCH   2   4
ATOM      4  C   UNL     1      44.668   5.151  11.478  0.00  0.00    +0.000 A 
ATOM      5  C   UNL     1      44.022   4.403  12.440  0.00  0.00    +0.000 A 
ATOM      6  S   UNL     1      43.536   2.844  11.959  0.00  0.00    +0.000 S 
ATOM      7  C   UNL     1      44.211   3.076  10.427  0.00  0.00    +0.000 A 
ATOM      8  N   UNL     1      44.126   2.091   9.497  0.00  0.00    +0.000 NA
ATOM      9  C   UNL     1      44.688   2.380   8.374  0.00  0.00    +0.000 A 
ATOM     10  N   UNL     1      45.329   3.573   8.102  0.00  0.00    +0.000 N 
ATOM     11  C   UNL     1      45.512   4.557   9.047  0.00  0.00    +0.000 A 
ATOM     12  O   UNL     1      46.277   5.494   8.828  0.00  0.00    +0.000 OA
ATOM     13  C   UNL     1      44.824   4.313  10.300  0.00  0.00    +0.000 A 
ATOM     14  H   UNL     1      45.814   3.699   7.227  0.00  0.00    +0.000 HD
ENDBRANCH   2   4
BRANCH   1  15
ATOM     15  C   UNL     1      46.566   8.432  12.096  0.00  0.00    +0.000 C 
BRANCH  15  16
ATOM     16  C   UNL     1      45.904   9.430  13.076  0.00  0.00    +0.000 C 
BRANCH  16  17
ATOM     17  N   UNL     1      44.639  10.015  12.614  0.00  0.00    +0.000 NA
ATOM     18  H   UNL     1      44.742  10.296  11.638  0.00  0.00    +0.000 HD
ATOM     19  H   UNL     1      44.437  10.866  13.138  0.00  0.00    +0.000 HD
ENDBRANCH  16  17
ENDBRANCH  15  16
ENDBRANCH   1  15
BRANCH   1  20
ATOM     20  C   UNL     1      47.384   6.075  12.481  0.00  0.00    +0.000 C 
BRANCH  20  21
ATOM     21  C   UNL     1      47.615   5.801  13.960  0.00  0.00    +0.000 A 
ATOM     22  C   UNL     1      47.071   4.692  14.624  0.00  0.00    +0.000 A 
ATOM     23  C   UNL     1      47.401   4.403  15.948  0.00  0.00    +0.000 A 
ATOM     24  C   UNL     1      48.185   5.287  16.695  0.00  0.00    +0.000 A 
ATOM     25  C   UNL     1      48.701   6.419  16.061  0.00  0.00    +0.000 A 
ATOM     26  C   UNL     1      48.449   6.649  14.702  0.00  0.00    +0.000 A 
BRANCH  24  27
ATOM     27  C   UNL     1      48.437   5.004  18.156  0.00  0.00    +0.000 C 
BRANCH  27  28
ATOM     28  N   UNL     1      49.384   3.905  18.283  0.00  0.00    +0.000 NA
ATOM     29  H   UNL     1      49.072   3.134  17.692  0.00  0.00    +0.000 HD
BRANCH  28  30
ATOM     30  C   UNL     1      50.754   4.279  17.957  0.00  0.00    +0.000 C 
BRANCH  30  31
ATOM     31  C   UNL     1      51.449   3.048  17.376  0.00  0.00    +0.000 C 
ATOM     32  C   UNL     1      52.651   2.567  18.173  0.00  0.00    +0.000 C 
ATOM     33  C   UNL     1      52.765   1.128  17.711  0.00  0.00    +0.000 C 
ATOM     34  N   UNL     1      51.380   0.653  17.683  0.00  0.00    +0.000 NA
ATOM     35  C   UNL     1      50.552   1.809  17.292  0.00  0.00    +0.000 C 
ATOM     36  H   UNL     1      51.110   0.383  18.630  0.00  0.00    +0.000 HD
ENDBRANCH  30  31
ENDBRANCH  28  30
ENDBRANCH  27  28
ENDBRANCH  24  27
ENDBRANCH  20  21
ENDBRANCH   1  20
TORSDOF 10
ENDMDL
MODEL 2
REMARK VINA RESULT:    -6.938      3.451      8.339
REMARK INTER + INTRA:         -12.366
REMARK INTER:                 -10.818
REMARK INTRA:                  -1.548
REMARK UNBOUND:                -1.575
REMARK  Name = 
REMARK  10 active torsions:
REMARK  status: ('A' for Active; 'I' for Inactive)
REMARK    1  A    between atoms: N_1  and  C_2
REMARK    2  A    between atoms: C_2  and  C_3
REMARK    3  A    between atoms: C_3  and  N_4
REMARK    4  A    between atoms: N_4  and  C_5
REMARK    5  A    between atoms: C_5  and  C_6
REMARK    6  A    between atoms: C_9  and  C_10
REMARK    7  A    between atoms: C_10  and  N_11
REMARK    8  A    between atoms: N_11  and  C_12
REMARK    9  A    between atoms: C_12  and  C_13
REMARK   10  A    between atoms: C_20  and  C_22
REMARK                            x       y       z     vdW  Elec       q    Type
REMARK                         _______ _______ _______ _____ _____    ______ ____
ROOT
ATOM      1  N   UNL     1      48.255   7.451  13.571  0.00  0.00    +0.000 N 
ATOM      2  C   UNL     1      49.021   6.916  14.640  0.00  0.00    +0.000 C 
ATOM      3  O   UNL     1      50.245   7.071  14.664  0.00  0.00    +0.000 OA
ENDROOT
BRANCH   2   4
ATOM      4  C   UNL     1      48.388   6.110  15.716  0.00  0.00    +0.000 A 
ATOM      5  C   UNL     1      47.849   4.847  15.586  0.00  0.00    +0.000 A 
ATOM      6  S   UNL     1      47.376   4.094  17.038  0.00  0.00    +0.000 S 
ATOM      7  C   UNL     1      47.835   5.457  17.926  0.00  0.00    +0.000 A 
ATOM      8  N   UNL     1      47.695   5.459  19.277  0.00  0.00    +0.000 NA
ATOM      9  C   UNL     1      48.066   6.557  19.840  0.00  0.00    +0.000 A 
ATOM     10  N   UNL     1      48.566   7.654  19.167  0.00  0.00    +0.000 N 
ATOM     11  C   UNL     1      48.639   7.721  17.794  0.00  0.00    +0.000 A 
ATOM     12  O   UNL     1      48.875   8.790  17.236  0.00  0.00    +0.000 OA
ATOM     13  C   UNL     1      48.312   6.479  17.120  0.00  0.00    +0.000 A 
ATOM     14  H   UNL     1      48.764   8.507  19.665  0.00  0.00    +0.000 HD
ENDBRANCH   2   4
BRANCH   1  15
ATOM     15  C   UNL     1      49.012   8.346  12.656  0.00  0.00    +0.000 C 
BRANCH  15  16
ATOM     16  C   UNL     1      49.711   7.763  11.405  0.00  0.00    +0.000 C 
BRANCH  16  17
ATOM     17  N   UNL     1      51.099   7.330  11.607  0.00  0.00    +0.000 NA
ATOM     18  H   UNL     1      51.443   7.724  12.484  0.00  0.00    +0.000 HD
ATOM     19  H   UNL     1      51.693   7.708  10.870  0.00  0.00    +0.000 HD
ENDBRANCH  16  17
ENDBRANCH  15  16
ENDBRANCH   1  15
BRANCH   1  20
ATOM     20  C   UNL     1      46.794   7.562  13.573  0.00  0.00    +0.000 C 
BRANCH  20  21
ATOM     21  C   UNL     1      46.081   6.544  12.697  0.00  0.00    +0.000 A 
ATOM     22  C   UNL     1      46.204   6.521  11.300  0.00  0.00    +0.000 A 
ATOM     23  C   UNL     1      45.636   5.501  10.536  0.00  0.00    +0.000 A 
ATOM     24  C   UNL     1      44.816   4.539  11.132  0.00  0.00    +0.000 A 
ATOM     25  C   UNL     1      44.649   4.571  12.518  0.00  0.00    +0.000 A 
ATOM     26  C   UNL     1      45.305   5.538  13.290  0.00  0.00    +0.000 A 
BRANCH  24  27
ATOM     27  C   UNL     1      44.127   3.511  10.267  0.00  0.00    +0.000 C 
BRANCH  27  28
ATOM     28  N   UNL     1      44.998   2.356  10.097  0.00  0.00    +0.000 NA
ATOM     29  H   UNL     1      44.695   1.620  10.737  0.00  0.00    +0.000 HD
BRANCH  28  30
ATOM     30  C   UNL     1      45.041   1.858   8.729  0.00  0.00    +0.000 C 
BRANCH  30  31
ATOM     31  C   UNL     1      46.336   2.358   8.089  0.00  0.00    +0.000 C 
ATOM     32  C   UNL     1      47.066   1.323   7.249  0.00  0.00    +0.000 C 
ATOM     33  C   UNL     1      47.925   2.202   6.362  0.00  0.00    +0.000 C 
ATOM     34  N   UNL     1      47.030   3.296   5.974  0.00  0.00    +0.000 NA
ATOM     35  C   UNL     1      46.140   3.533   7.126  0.00  0.00    +0.000 C 
ATOM     36  H   UNL     1      46.453   2.982   5.193  0.00  0.00    +0.000 HD
ENDBRANCH  30  31
ENDBRANCH  28  30
ENDBRANCH  27  28
ENDBRANCH  24  27
ENDBRANCH  20  21
ENDBRANCH   1  20
TORSDOF 10
ENDMDL
MODEL 3
REMARK VINA RESULT:    -6.854      3.657      8.352
REMARK INTER + INTRA:         -12.236
REMARK INTER:                 -10.643
REMARK INTRA:                  -1.593
REMARK UNBOUND:                -1.575
REMARK  Name = 
REMARK  10 active torsions:
REMARK  status: ('A' for Active; 'I' for Inactive)
REMARK    1  A    between atoms: N_1  and  C_2
REMARK    2  A    between atoms: C_2  and  C_3
REMARK    3  A    between atoms: C_3  and  N_4
REMARK    4  A    between atoms: N_4  and  C_5
REMARK    5  A    between atoms: C_5  and  C_6
REMARK    6  A    between atoms: C_9  and  C_10
REMARK    7  A    between atoms: C_10  and  N_11
REMARK    8  A    between atoms: N_11  and  C_12
REMARK    9  A    between atoms: C_12  and  C_13
REMARK   10  A    between atoms: C_20  and  C_22
REMARK                            x       y       z     vdW  Elec       q    Type
REMARK                         _______ _______ _______ _____ _____    ______ ____
ROOT
ATOM      1  N   UNL     1      48.701   7.240  13.738  0.00  0.00    +0.000 N 
ATOM      2  C   UNL     1      49.565   7.589  14.809  0.00  0.00    +0.000 C 
ATOM      3  O   UNL     1      50.790   7.539  14.660  0.00  0.00    +0.000 OA
ENDROOT
BRANCH   2   4
ATOM      4  C   UNL     1      49.030   7.961  16.144  0.00  0.00    +0.000 A 
ATOM      5  C   UNL     1      48.707   9.232  16.574  0.00  0.00    +0.000 A 
ATOM      6  S   UNL     1      47.926   9.323  18.084  0.00  0.00    +0.000 S 
ATOM      7  C   UNL     1      48.019   7.645  18.265  0.00  0.00    +0.000 A 
ATOM      8  N   UNL     1      47.504   7.058  19.375  0.00  0.00    +0.000 NA
ATOM      9  C   UNL     1      47.646   5.777  19.405  0.00  0.00    +0.000 A 
ATOM     10  N   UNL     1      48.261   5.034  18.416  0.00  0.00    +0.000 N 
ATOM     11  C   UNL     1      48.871   5.602  17.322  0.00  0.00    +0.000 A 
ATOM     12  O   UNL     1      49.593   4.927  16.593  0.00  0.00    +0.000 OA
ATOM     13  C   UNL     1      48.664   7.033  17.202  0.00  0.00    +0.000 A 
ATOM     14  H   UNL     1      48.405   4.044  18.543  0.00  0.00    +0.000 HD
ENDBRANCH   2   4
BRANCH   1  15
ATOM     15  C   UNL     1      49.385   7.030  12.435  0.00  0.00    +0.000 C 
BRANCH  15  16
ATOM     16  C   UNL     1      49.728   8.241  11.536  0.00  0.00    +0.000 C 
BRANCH  16  17
ATOM     17  N   UNL     1      51.049   8.839  11.767  0.00  0.00    +0.000 NA
ATOM     18  H   UNL     1      50.926   9.815  12.040  0.00  0.00    +0.000 HD
ATOM     19  H   UNL     1      51.584   8.849  10.899  0.00  0.00    +0.000 HD
ENDBRANCH  16  17
ENDBRANCH  15  16
ENDBRANCH   1  15
BRANCH   1  20
ATOM     20  C   UNL     1      47.263   7.516  13.712  0.00  0.00    +0.000 C 
BRANCH  20  21
ATOM     21  C   UNL     1      46.436   6.486  12.958  0.00  0.00    +0.000 A 
ATOM     22  C   UNL     1      46.203   5.191  13.443  0.00  0.00    +0.000 A 
ATOM     23  C   UNL     1      45.341   4.312  12.786  0.00  0.00    +0.000 A 
ATOM     24  C   UNL     1      44.783   4.653  11.551  0.00  0.00    +0.000 A 
ATOM     25  C   UNL     1      45.037   5.925  11.032  0.00  0.00    +0.000 A 
ATOM     26  C   UNL     1      45.821   6.839  11.747  0.00  0.00    +0.000 A 
BRANCH  24  27
ATOM     27  C   UNL     1      43.940   3.642  10.811  0.00  0.00    +0.000 C 
BRANCH  27  28
ATOM     28  N   UNL     1      44.741   2.461  10.519  0.00  0.00    +0.000 NA
ATOM     29  H   UNL     1      44.395   1.683  11.080  0.00  0.00    +0.000 HD
BRANCH  28  30
ATOM     30  C   UNL     1      44.758   2.107   9.106  0.00  0.00    +0.000 C 
BRANCH  30  31
ATOM     31  C   UNL     1      46.064   2.627   8.508  0.00  0.00    +0.000 C 
ATOM     32  C   UNL     1      46.764   1.653   7.574  0.00  0.00    +0.000 C 
ATOM     33  C   UNL     1      47.644   2.585   6.765  0.00  0.00    +0.000 C 
ATOM     34  N   UNL     1      46.779   3.733   6.481  0.00  0.00    +0.000 NA
ATOM     35  C   UNL     1      45.898   3.889   7.654  0.00  0.00    +0.000 C 
ATOM     36  H   UNL     1      46.191   3.506   5.679  0.00  0.00    +0.000 HD
ENDBRANCH  30  31
ENDBRANCH  28  30
ENDBRANCH  27  28
ENDBRANCH  24  27
ENDBRANCH  20  21
ENDBRANCH   1  20
TORSDOF 10
ENDMDL
MODEL 4
REMARK VINA RESULT:    -6.709      3.084      8.179
REMARK INTER + INTRA:         -12.011
REMARK INTER:                 -10.720
REMARK INTRA:                  -1.290
REMARK UNBOUND:                -1.575
REMARK  Name = 
REMARK  10 active torsions:
REMARK  status: ('A' for Active; 'I' for Inactive)
REMARK    1  A    between atoms: N_1  and  C_2
REMARK    2  A    between atoms: C_2  and  C_3
REMARK    3  A    between atoms: C_3  and  N_4
REMARK    4  A    between atoms: N_4  and  C_5
REMARK    5  A    between atoms: C_5  and  C_6
REMARK    6  A    between atoms: C_9  and  C_10
REMARK    7  A    between atoms: C_10  and  N_11
REMARK    8  A    between atoms: N_11  and  C_12
REMARK    9  A    between atoms: C_12  and  C_13
REMARK   10  A    between atoms: C_20  and  C_22
REMARK                            x       y       z     vdW  Elec       q    Type
REMARK                         _______ _______ _______ _____ _____    ______ ____
ROOT
ATOM      1  N   UNL     1      48.073   7.780  13.940  0.00  0.00    +0.000 N 
ATOM      2  C   UNL     1      48.637   8.029  15.219  0.00  0.00    +0.000 C 
ATOM      3  O   UNL     1      48.171   8.916  15.941  0.00  0.00    +0.000 OA
ENDROOT
BRANCH   2   4
ATOM      4  C   UNL     1      49.829   7.282  15.697  0.00  0.00    +0.000 A 
ATOM      5  C   UNL     1      51.147   7.668  15.564  0.00  0.00    +0.000 A 
ATOM      6  S   UNL     1      52.284   6.705  16.388  0.00  0.00    +0.000 S 
ATOM      7  C   UNL     1      51.058   5.681  16.941  0.00  0.00    +0.000 A 
ATOM      8  N   UNL     1      51.369   4.625  17.735  0.00  0.00    +0.000 NA
ATOM      9  C   UNL     1      50.352   3.911  18.081  0.00  0.00    +0.000 A 
ATOM     10  N   UNL     1      49.050   4.166  17.699  0.00  0.00    +0.000 N 
ATOM     11  C   UNL     1      48.709   5.172  16.825  0.00  0.00    +0.000 A 
ATOM     12  O   UNL     1      47.580   5.219  16.342  0.00  0.00    +0.000 OA
ATOM     13  C   UNL     1      49.806   6.054  16.475  0.00  0.00    +0.000 A 
ATOM     14  H   UNL     1      48.316   3.520  17.944  0.00  0.00    +0.000 HD
ENDBRANCH   2   4
BRANCH   1  15
ATOM     15  C   UNL     1      46.806   8.509  13.670  0.00  0.00    +0.000 C 
BRANCH  15  16
ATOM     16  C   UNL     1      46.781   9.662  12.640  0.00  0.00    +0.000 C 
BRANCH  16  17
ATOM     17  N   UNL     1      45.450  10.208  12.341  0.00  0.00    +0.000 NA
ATOM     18  H   UNL     1      45.170  10.829  13.101  0.00  0.00    +0.000 HD
ATOM     19  H   UNL     1      44.763   9.455  12.317  0.00  0.00    +0.000 HD
ENDBRANCH  16  17
ENDBRANCH  15  16
ENDBRANCH   1  15
BRANCH   1  20
ATOM     20  C   UNL     1      48.363   6.598  13.124  0.00  0.00    +0.000 C 
BRANCH  20  21
ATOM     21  C   UNL     1      47.142   5.970  12.468  0.00  0.00    +0.000 A 
ATOM     22  C   UNL     1      46.664   6.365  11.210  0.00  0.00    +0.000 A 
ATOM     23  C   UNL     1      45.618   5.686  10.584  0.00  0.00    +0.000 A 
ATOM     24  C   UNL     1      44.929   4.670  11.251  0.00  0.00    +0.000 A 
ATOM     25  C   UNL     1      45.366   4.291  12.522  0.00  0.00    +0.000 A 
ATOM     26  C   UNL     1      46.481   4.908  13.103  0.00  0.00    +0.000 A 
BRANCH  24  27
ATOM     27  C   UNL     1      43.733   4.026  10.592  0.00  0.00    +0.000 C 
BRANCH  27  28
ATOM     28  N   UNL     1      44.061   3.687   9.214  0.00  0.00    +0.000 NA
ATOM     29  H   UNL     1      44.693   4.397   8.843  0.00  0.00    +0.000 HD
BRANCH  28  30
ATOM     30  C   UNL     1      44.640   2.359   9.065  0.00  0.00    +0.000 C 
BRANCH  30  31
ATOM     31  C   UNL     1      46.054   2.524   8.509  0.00  0.00    +0.000 C 
ATOM     32  C   UNL     1      46.587   1.309   7.768  0.00  0.00    +0.000 C 
ATOM     33  C   UNL     1      47.679   1.926   6.917  0.00  0.00    +0.000 C 
ATOM     34  N   UNL     1      47.082   3.168   6.419  0.00  0.00    +0.000 NA
ATOM     35  C   UNL     1      46.192   3.659   7.489  0.00  0.00    +0.000 C 
ATOM     36  H   UNL     1      46.502   2.948   5.609  0.00  0.00    +0.000 HD
ENDBRANCH  30  31
ENDBRANCH  28  30
ENDBRANCH  27  28
ENDBRANCH  24  27
ENDBRANCH  20  21
ENDBRANCH   1  20
TORSDOF 10
ENDMDL
MODEL 5
REMARK VINA RESULT:    -6.498      3.316      7.832
REMARK INTER + INTRA:         -11.682
REMARK INTER:                 -10.050
REMARK INTRA:                  -1.632
REMARK UNBOUND:                -1.575
REMARK  Name = 
REMARK  10 active torsions:
REMARK  status: ('A' for Active; 'I' for Inactive)
REMARK    1  A    between atoms: N_1  and  C_2
REMARK    2  A    between atoms: C_2  and  C_3
REMARK    3  A    between atoms: C_3  and  N_4
REMARK    4  A    between atoms: N_4  and  C_5
REMARK    5  A    between atoms: C_5  and  C_6
REMARK    6  A    between atoms: C_9  and  C_10
REMARK    7  A    between atoms: C_10  and  N_11
REMARK    8  A    between atoms: N_11  and  C_12
REMARK    9  A    between atoms: C_12  and  C_13
REMARK   10  A    between atoms: C_20  and  C_22
REMARK                            x       y       z     vdW  Elec       q    Type
REMARK                         _______ _______ _______ _____ _____    ______ ____
ROOT
ATOM      1  N   UNL     1      48.314   7.024  14.508  0.00  0.00    +0.000 N 
ATOM      2  C   UNL     1      48.014   8.410  14.568  0.00  0.00    +0.000 C 
ATOM      3  O   UNL     1      48.144   9.028  15.630  0.00  0.00    +0.000 OA
ENDROOT
BRANCH   2   4
ATOM      4  C   UNL     1      47.483   9.138  13.387  0.00  0.00    +0.000 A 
ATOM      5  C   UNL     1      46.154   9.322  13.066  0.00  0.00    +0.000 A 
ATOM      6  S   UNL     1      45.849  10.370  11.760  0.00  0.00    +0.000 S 
ATOM      7  C   UNL     1      47.506  10.603  11.524  0.00  0.00    +0.000 A 
ATOM      8  N   UNL     1      47.937  11.428  10.535  0.00  0.00    +0.000 NA
ATOM      9  C   UNL     1      49.220  11.515  10.446  0.00  0.00    +0.000 A 
ATOM     10  N   UNL     1      50.109  10.845  11.263  0.00  0.00    +0.000 N 
ATOM     11  C   UNL     1      49.712   9.935  12.216  0.00  0.00    +0.000 A 
ATOM     12  O   UNL     1      50.537   9.204  12.758  0.00  0.00    +0.000 OA
ATOM     13  C   UNL     1      48.277   9.867  12.410  0.00  0.00    +0.000 A 
ATOM     14  H   UNL     1      51.100  10.901  11.085  0.00  0.00    +0.000 HD
ENDBRANCH   2   4
BRANCH   1  15
ATOM     15  C   UNL     1      48.966   6.479  15.728  0.00  0.00    +0.000 C 
BRANCH  15  16
ATOM     16  C   UNL     1      48.262   5.377  16.555  0.00  0.00    +0.000 C 
BRANCH  16  17
ATOM     17  N   UNL     1      48.670   4.001  16.243  0.00  0.00    +0.000 NA
ATOM     18  H   UNL     1      49.401   4.028  15.531  0.00  0.00    +0.000 HD
ATOM     19  H   UNL     1      47.888   3.491  15.832  0.00  0.00    +0.000 HD
ENDBRANCH  16  17
ENDBRANCH  15  16
ENDBRANCH   1  15
BRANCH   1  20
ATOM     20  C   UNL     1      48.455   6.261  13.266  0.00  0.00    +0.000 C 
BRANCH  20  21
ATOM     21  C   UNL     1      47.153   5.696  12.720  0.00  0.00    +0.000 A 
ATOM     22  C   UNL     1      46.495   6.235  11.605  0.00  0.00    +0.000 A 
ATOM     23  C   UNL     1      45.369   5.620  11.056  0.00  0.00    +0.000 A 
ATOM     24  C   UNL     1      44.786   4.516  11.683  0.00  0.00    +0.000 A 
ATOM     25  C   UNL     1      45.405   3.989  12.819  0.00  0.00    +0.000 A 
ATOM     26  C   UNL     1      46.592   4.551  13.305  0.00  0.00    +0.000 A 
BRANCH  24  27
ATOM     27  C   UNL     1      43.507   3.936  11.129  0.00  0.00    +0.000 C 
BRANCH  27  28
ATOM     28  N   UNL     1      43.736   3.460   9.772  0.00  0.00    +0.000 NA
ATOM     29  H   UNL     1      43.987   4.255   9.183  0.00  0.00    +0.000 HD
BRANCH  28  30
ATOM     30  C   UNL     1      44.751   2.419   9.686  0.00  0.00    +0.000 C 
BRANCH  30  31
ATOM     31  C   UNL     1      45.292   2.408   8.256  0.00  0.00    +0.000 C 
ATOM     32  C   UNL     1      45.942   3.710   7.817  0.00  0.00    +0.000 C 
ATOM     33  C   UNL     1      46.812   3.243   6.668  0.00  0.00    +0.000 C 
ATOM     34  N   UNL     1      47.402   1.992   7.154  0.00  0.00    +0.000 NA
ATOM     35  C   UNL     1      46.382   1.360   8.013  0.00  0.00    +0.000 C 
ATOM     36  H   UNL     1      48.206   2.218   7.740  0.00  0.00    +0.000 HD
ENDBRANCH  30  31
ENDBRANCH  28  30
ENDBRANCH  27  28
ENDBRANCH  24  27
ENDBRANCH  20  21
ENDBRANCH   1  20
TORSDOF 10
ENDMDL
MODEL 6
REMARK VINA RESULT:    -6.497      3.114      8.192
REMARK INTER + INTRA:         -11.681
REMARK INTER:                 -10.154
REMARK INTRA:                  -1.527
REMARK UNBOUND:                -1.575
REMARK  Name = 
REMARK  10 active torsions:
REMARK  status: ('A' for Active; 'I' for Inactive)
REMARK    1  A    between atoms: N_1  and  C_2
REMARK    2  A    between atoms: C_2  and  C_3
REMARK    3  A    between atoms: C_3  and  N_4
REMARK    4  A    between atoms: N_4  and  C_5
REMARK    5  A    between atoms: C_5  and  C_6
REMARK    6  A    between atoms: C_9  and  C_10
REMARK    7  A    between atoms: C_10  and  N_11
REMARK    8  A    between atoms: N_11  and  C_12
REMARK    9  A    between atoms: C_12  and  C_13
REMARK   10  A    between atoms: C_20  and  C_22
REMARK                            x       y       z     vdW  Elec       q    Type
REMARK                         _______ _______ _______ _____ _____    ______ ____
ROOT
ATOM      1  N   UNL     1      48.704   7.371  14.686  0.00  0.00    +0.000 N 
ATOM      2  C   UNL     1      48.560   7.164  16.083  0.00  0.00    +0.000 C 
ATOM      3  O   UNL     1      48.373   8.123  16.837  0.00  0.00    +0.000 OA
ENDROOT
BRANCH   2   4
ATOM      4  C   UNL     1      48.690   5.810  16.680  0.00  0.00    +0.000 A 
ATOM      5  C   UNL     1      47.675   4.894  16.867  0.00  0.00    +0.000 A 
ATOM      6  S   UNL     1      48.163   3.349  17.390  0.00  0.00    +0.000 S 
ATOM      7  C   UNL     1      49.778   3.844  17.436  0.00  0.00    +0.000 A 
ATOM      8  N   UNL     1      50.743   2.963  17.805  0.00  0.00    +0.000 NA
ATOM      9  C   UNL     1      51.932   3.460  17.813  0.00  0.00    +0.000 A 
ATOM     10  N   UNL     1      52.238   4.765  17.484  0.00  0.00    +0.000 N 
ATOM     11  C   UNL     1      51.280   5.709  17.191  0.00  0.00    +0.000 A 
ATOM     12  O   UNL     1      51.578   6.899  17.126  0.00  0.00    +0.000 OA
ATOM     13  C   UNL     1      49.934   5.177  17.086  0.00  0.00    +0.000 A 
ATOM     14  H   UNL     1      53.181   5.106  17.588  0.00  0.00    +0.000 HD
ENDBRANCH   2   4
BRANCH   1  15
ATOM     15  C   UNL     1      48.407   8.756  14.233  0.00  0.00    +0.000 C 
BRANCH  15  16
ATOM     16  C   UNL     1      49.465   9.552  13.432  0.00  0.00    +0.000 C 
BRANCH  16  17
ATOM     17  N   UNL     1      50.804   9.598  14.035  0.00  0.00    +0.000 NA
ATOM     18  H   UNL     1      50.820  10.330  14.746  0.00  0.00    +0.000 HD
ATOM     19  H   UNL     1      51.493   9.864  13.332  0.00  0.00    +0.000 HD
ENDBRANCH  16  17
ENDBRANCH  15  16
ENDBRANCH   1  15
BRANCH   1  20
ATOM     20  C   UNL     1      48.659   6.306  13.682  0.00  0.00    +0.000 C 
BRANCH  20  21
ATOM     21  C   UNL     1      47.301   6.113  13.025  0.00  0.00    +0.000 A 
ATOM     22  C   UNL     1      46.975   6.654  11.772  0.00  0.00    +0.000 A 
ATOM     23  C   UNL     1      45.766   6.358  11.144  0.00  0.00    +0.000 A 
ATOM     24  C   UNL     1      44.784   5.613  11.804  0.00  0.00    +0.000 A 
ATOM     25  C   UNL     1      45.076   5.100  13.070  0.00  0.00    +0.000 A 
ATOM     26  C   UNL     1      46.331   5.317  13.652  0.00  0.00    +0.000 A 
BRANCH  24  27
ATOM     27  C   UNL     1      43.444   5.399  11.143  0.00  0.00    +0.000 C 
BRANCH  27  28
ATOM     28  N   UNL     1      43.637   4.774   9.842  0.00  0.00    +0.000 NA
ATOM     29  H   UNL     1      44.290   5.340   9.300  0.00  0.00    +0.000 HD
BRANCH  28  30
ATOM     30  C   UNL     1      44.101   3.395   9.923  0.00  0.00    +0.000 C 
BRANCH  30  31
ATOM     31  C   UNL     1      44.756   3.042   8.588  0.00  0.00    +0.000 C 
ATOM     32  C   UNL     1      45.774   4.057   8.096  0.00  0.00    +0.000 C 
ATOM     33  C   UNL     1      46.594   3.223   7.132  0.00  0.00    +0.000 C 
ATOM     34  N   UNL     1      46.772   1.947   7.829  0.00  0.00    +0.000 NA
ATOM     35  C   UNL     1      45.540   1.725   8.611  0.00  0.00    +0.000 C 
ATOM     36  H   UNL     1      47.546   2.041   8.488  0.00  0.00    +0.000 HD
ENDBRANCH  30  31
ENDBRANCH  28  30
ENDBRANCH  27  28
ENDBRANCH  24  27
ENDBRANCH  20  21
ENDBRANCH   1  20
TORSDOF 10
ENDMDL
MODEL 7
REMARK VINA RESULT:    -6.225      3.094      4.292
REMARK INTER + INTRA:         -11.258
REMARK INTER:                 -10.672
REMARK INTRA:                  -0.586
REMARK UNBOUND:                -1.575
REMARK  Name = 
REMARK  10 active torsions:
REMARK  status: ('A' for Active; 'I' for Inactive)
REMARK    1  A    between atoms: N_1  and  C_2
REMARK    2  A    between atoms: C_2  and  C_3
REMARK    3  A    between atoms: C_3  and  N_4
REMARK    4  A    between atoms: N_4  and  C_5
REMARK    5  A    between atoms: C_5  and  C_6
REMARK    6  A    between atoms: C_9  and  C_10
REMARK    7  A    between atoms: C_10  and  N_11
REMARK    8  A    between atoms: N_11  and  C_12
REMARK    9  A    between atoms: C_12  and  C_13
REMARK   10  A    between atoms: C_20  and  C_22
REMARK                            x       y       z     vdW  Elec       q    Type
REMARK                         _______ _______ _______ _____ _____    ______ ____
ROOT
ATOM      1  N   UNL     1      44.141   4.094  10.621  0.00  0.00    +0.000 N 
ATOM      2  C   UNL     1      44.299   3.833   9.234  0.00  0.00    +0.000 C 
ATOM      3  O   UNL     1      43.715   4.532   8.401  0.00  0.00    +0.000 OA
ENDROOT
BRANCH   2   4
ATOM      4  C   UNL     1      45.110   2.686   8.751  0.00  0.00    +0.000 A 
ATOM      5  C   UNL     1      44.865   1.349   8.988  0.00  0.00    +0.000 A 
ATOM      6  S   UNL     1      45.854   0.256   8.137  0.00  0.00    +0.000 S 
ATOM      7  C   UNL     1      46.703   1.533   7.428  0.00  0.00    +0.000 A 
ATOM      8  N   UNL     1      47.710   1.271   6.555  0.00  0.00    +0.000 NA
ATOM      9  C   UNL     1      48.290   2.324   6.091  0.00  0.00    +0.000 A 
ATOM     10  N   UNL     1      47.948   3.619   6.427  0.00  0.00    +0.000 N 
ATOM     11  C   UNL     1      46.995   3.921   7.373  0.00  0.00    +0.000 A 
ATOM     12  O   UNL     1      46.884   5.068   7.799  0.00  0.00    +0.000 OA
ATOM     13  C   UNL     1      46.256   2.772   7.860  0.00  0.00    +0.000 A 
ATOM     14  H   UNL     1      48.496   4.392   6.084  0.00  0.00    +0.000 HD
ENDBRANCH   2   4
BRANCH   1  15
ATOM     15  C   UNL     1      43.417   5.354  10.934  0.00  0.00    +0.000 C 
BRANCH  15  16
ATOM     16  C   UNL     1      42.249   5.344  11.948  0.00  0.00    +0.000 C 
BRANCH  16  17
ATOM     17  N   UNL     1      42.643   5.442  13.359  0.00  0.00    +0.000 NA
ATOM     18  H   UNL     1      42.261   6.305  13.749  0.00  0.00    +0.000 HD
ATOM     19  H   UNL     1      43.657   5.517  13.434  0.00  0.00    +0.000 HD
ENDBRANCH  16  17
ENDBRANCH  15  16
ENDBRANCH   1  15
BRANCH   1  20
ATOM     20  C   UNL     1      44.981   3.514  11.672  0.00  0.00    +0.000 C 
BRANCH  20  21
ATOM     21  C   UNL     1      45.877   4.514  12.388  0.00  0.00    +0.000 A 
ATOM     22  C   UNL     1      46.356   4.312  13.691  0.00  0.00    +0.000 A 
ATOM     23  C   UNL     1      47.273   5.188  14.272  0.00  0.00    +0.000 A 
ATOM     24  C   UNL     1      47.643   6.367  13.619  0.00  0.00    +0.000 A 
ATOM     25  C   UNL     1      47.143   6.604  12.336  0.00  0.00    +0.000 A 
ATOM     26  C   UNL     1      46.303   5.670  11.718  0.00  0.00    +0.000 A 
BRANCH  24  27
ATOM     27  C   UNL     1      48.554   7.349  14.316  0.00  0.00    +0.000 C 
BRANCH  27  28
ATOM     28  N   UNL     1      48.310   7.303  15.752  0.00  0.00    +0.000 NA
ATOM     29  H   UNL     1      47.409   6.856  15.917  0.00  0.00    +0.000 HD
BRANCH  28  30
ATOM     30  C   UNL     1      49.362   6.625  16.497  0.00  0.00    +0.000 C 
BRANCH  30  31
ATOM     31  C   UNL     1      48.765   6.147  17.821  0.00  0.00    +0.000 C 
ATOM     32  C   UNL     1      47.969   7.202  18.572  0.00  0.00    +0.000 C 
ATOM     33  C   UNL     1      47.103   6.345  19.472  0.00  0.00    +0.000 C 
ATOM     34  N   UNL     1      46.664   5.248  18.605  0.00  0.00    +0.000 NA
ATOM     35  C   UNL     1      47.778   4.986  17.673  0.00  0.00    +0.000 C 
ATOM     36  H   UNL     1      45.867   5.569  18.054  0.00  0.00    +0.000 HD
ENDBRANCH  30  31
ENDBRANCH  28  30
ENDBRANCH  27  28
ENDBRANCH  24  27
ENDBRANCH  20  21
ENDBRANCH   1  20
TORSDOF 10
ENDMDL
MODEL 8
REMARK VINA RESULT:    -5.926      3.809      8.549
REMARK INTER + INTRA:         -10.792
REMARK INTER:                  -9.317
REMARK INTRA:                  -1.475
REMARK UNBOUND:                -1.575
REMARK  Name = 
REMARK  10 active torsions:
REMARK  status: ('A' for Active; 'I' for Inactive)
REMARK    1  A    between atoms: N_1  and  C_2
REMARK    2  A    between atoms: C_2  and  C_3
REMARK    3  A    between atoms: C_3  and  N_4
REMARK    4  A    between atoms: N_4  and  C_5
REMARK    5  A    between atoms: C_5  and  C_6
REMARK    6  A    between atoms: C_9  and  C_10
REMARK    7  A    between atoms: C_10  and  N_11
REMARK    8  A    between atoms: N_11  and  C_12
REMARK    9  A    between atoms: C_12  and  C_13
REMARK   10  A    between atoms: C_20  and  C_22
REMARK                            x       y       z     vdW  Elec       q    Type
REMARK                         _______ _______ _______ _____ _____    ______ ____
ROOT
ATOM      1  N   UNL     1      49.877   7.635  14.931  0.00  0.00    +0.000 N 
ATOM      2  C   UNL     1      50.155   6.698  15.961  0.00  0.00    +0.000 C 
ATOM      3  O   UNL     1      51.301   6.266  16.113  0.00  0.00    +0.000 OA
ENDROOT
BRANCH   2   4
ATOM      4  C   UNL     1      49.077   6.168  16.835  0.00  0.00    +0.000 A 
ATOM      5  C   UNL     1      48.334   5.025  16.621  0.00  0.00    +0.000 A 
ATOM      6  S   UNL     1      47.308   4.563  17.899  0.00  0.00    +0.000 S 
ATOM      7  C   UNL     1      47.780   5.911  18.802  0.00  0.00    +0.000 A 
ATOM      8  N   UNL     1      47.260   6.107  20.041  0.00  0.00    +0.000 NA
ATOM      9  C   UNL     1      47.686   7.175  20.626  0.00  0.00    +0.000 A 
ATOM     10  N   UNL     1      48.588   8.063  20.074  0.00  0.00    +0.000 N 
ATOM     11  C   UNL     1      49.066   7.945  18.789  0.00  0.00    +0.000 A 
ATOM     12  O   UNL     1      49.683   8.871  18.268  0.00  0.00    +0.000 OA
ATOM     13  C   UNL     1      48.682   6.715  18.123  0.00  0.00    +0.000 A 
ATOM     14  H   UNL     1      48.816   8.918  20.558  0.00  0.00    +0.000 HD
ENDBRANCH   2   4
BRANCH   1  15
ATOM     15  C   UNL     1      51.080   8.169  14.239  0.00  0.00    +0.000 C 
BRANCH  15  16
ATOM     16  C   UNL     1      51.029   8.476  12.724  0.00  0.00    +0.000 C 
BRANCH  16  17
ATOM     17  N   UNL     1      50.866   9.893  12.376  0.00  0.00    +0.000 NA
ATOM     18  H   UNL     1      50.271   9.964  11.550  0.00  0.00    +0.000 HD
ATOM     19  H   UNL     1      51.767  10.294  12.118  0.00  0.00    +0.000 HD
ENDBRANCH  16  17
ENDBRANCH  15  16
ENDBRANCH   1  15
BRANCH   1  20
ATOM     20  C   UNL     1      48.636   8.407  14.828  0.00  0.00    +0.000 C 
BRANCH  20  21
ATOM     21  C   UNL     1      47.607   7.825  13.871  0.00  0.00    +0.000 A 
ATOM     22  C   UNL     1      46.466   8.529  13.458  0.00  0.00    +0.000 A 
ATOM     23  C   UNL     1      45.606   8.015  12.487  0.00  0.00    +0.000 A 
ATOM     24  C   UNL     1      45.788   6.722  11.989  0.00  0.00    +0.000 A 
ATOM     25  C   UNL     1      46.897   5.991  12.420  0.00  0.00    +0.000 A 
ATOM     26  C   UNL     1      47.812   6.553  13.319  0.00  0.00    +0.000 A 
BRANCH  24  27
ATOM     27  C   UNL     1      44.782   6.151  11.019  0.00  0.00    +0.000 C 
BRANCH  27  28
ATOM     28  N   UNL     1      45.189   4.808  10.628  0.00  0.00    +0.000 NA
ATOM     29  H   UNL     1      45.603   4.343  11.436  0.00  0.00    +0.000 HD
BRANCH  28  30
ATOM     30  C   UNL     1      44.102   4.009  10.079  0.00  0.00    +0.000 C 
BRANCH  30  31
ATOM     31  C   UNL     1      44.608   3.348   8.796  0.00  0.00    +0.000 C 
ATOM     32  C   UNL     1      45.813   4.030   8.168  0.00  0.00    +0.000 C 
ATOM     33  C   UNL     1      46.382   2.915   7.315  0.00  0.00    +0.000 C 
ATOM     34  N   UNL     1      46.289   1.729   8.171  0.00  0.00    +0.000 NA
ATOM     35  C   UNL     1      45.070   1.900   8.984  0.00  0.00    +0.000 C 
ATOM     36  H   UNL     1      47.088   1.723   8.806  0.00  0.00    +0.000 HD
ENDBRANCH  30  31
ENDBRANCH  28  30
ENDBRANCH  27  28
ENDBRANCH  24  27
ENDBRANCH  20  21
ENDBRANCH   1  20
TORSDOF 10
ENDMDL
MODEL 9
REMARK VINA RESULT:    -5.719      3.484      8.208
REMARK INTER + INTRA:         -10.470
REMARK INTER:                  -8.794
REMARK INTRA:                  -1.676
REMARK UNBOUND:                -1.575
REMARK  Name = 
REMARK  10 active torsions:
REMARK  status: ('A' for Active; 'I' for Inactive)
REMARK    1  A    between atoms: N_1  and  C_2
REMARK    2  A    between atoms: C_2  and  C_3
REMARK    3  A    between atoms: C_3  and  N_4
REMARK    4  A    between atoms: N_4  and  C_5
REMARK    5  A    between atoms: C_5  and  C_6
REMARK    6  A    between atoms: C_9  and  C_10
REMARK    7  A    between atoms: C_10  and  N_11
REMARK    8  A    between atoms: N_11  and  C_12
REMARK    9  A    between atoms: C_12  and  C_13
REMARK   10  A    between atoms: C_20  and  C_22
REMARK                            x       y       z     vdW  Elec       q    Type
REMARK                         _______ _______ _______ _____ _____    ______ ____
ROOT
ATOM      1  N   UNL     1      49.000   7.469  18.222  0.00  0.00    +0.000 N 
ATOM      2  C   UNL     1      48.215   6.381  18.686  0.00  0.00    +0.000 C 
ATOM      3  O   UNL     1      47.453   6.531  19.646  0.00  0.00    +0.000 OA
ENDROOT
BRANCH   2   4
ATOM      4  C   UNL     1      48.329   5.030  18.079  0.00  0.00    +0.000 A 
ATOM      5  C   UNL     1      47.362   4.376  17.343  0.00  0.00    +0.000 A 
ATOM      6  S   UNL     1      47.854   2.923  16.605  0.00  0.00    +0.000 S 
ATOM      7  C   UNL     1      49.398   3.073  17.276  0.00  0.00    +0.000 A 
ATOM      8  N   UNL     1      50.340   2.130  17.016  0.00  0.00    +0.000 NA
ATOM      9  C   UNL     1      51.473   2.347  17.592  0.00  0.00    +0.000 A 
ATOM     10  N   UNL     1      51.742   3.427  18.409  0.00  0.00    +0.000 N 
ATOM     11  C   UNL     1      50.788   4.353  18.766  0.00  0.00    +0.000 A 
ATOM     12  O   UNL     1      51.012   5.160  19.665  0.00  0.00    +0.000 OA
ATOM     13  C   UNL     1      49.522   4.199  18.075  0.00  0.00    +0.000 A 
ATOM     14  H   UNL     1      52.626   3.491  18.889  0.00  0.00    +0.000 HD
ENDBRANCH   2   4
BRANCH   1  15
ATOM     15  C   UNL     1      48.667   8.780  18.840  0.00  0.00    +0.000 C 
BRANCH  15  16
ATOM     16  C   UNL     1      49.556   9.352  19.969  0.00  0.00    +0.000 C 
BRANCH  16  17
ATOM     17  N   UNL     1      50.465   8.387  20.602  0.00  0.00    +0.000 NA
ATOM     18  H   UNL     1      49.929   7.800  21.242  0.00  0.00    +0.000 HD
ATOM     19  H   UNL     1      51.154   8.879  21.170  0.00  0.00    +0.000 HD
ENDBRANCH  16  17
ENDBRANCH  15  16
ENDBRANCH   1  15
BRANCH   1  20
ATOM     20  C   UNL     1      49.723   7.483  16.948  0.00  0.00    +0.000 C 
BRANCH  20  21
ATOM     21  C   UNL     1      48.834   7.593  15.719  0.00  0.00    +0.000 A 
ATOM     22  C   UNL     1      48.217   8.791  15.328  0.00  0.00    +0.000 A 
ATOM     23  C   UNL     1      47.509   8.887  14.130  0.00  0.00    +0.000 A 
ATOM     24  C   UNL     1      47.282   7.753  13.345  0.00  0.00    +0.000 A 
ATOM     25  C   UNL     1      47.854   6.542  13.741  0.00  0.00    +0.000 A 
ATOM     26  C   UNL     1      48.650   6.476  14.891  0.00  0.00    +0.000 A 
BRANCH  24  27
ATOM     27  C   UNL     1      46.421   7.865  12.110  0.00  0.00    +0.000 C 
BRANCH  27  28
ATOM     28  N   UNL     1      45.886   6.553  11.769  0.00  0.00    +0.000 NA
ATOM     29  H   UNL     1      46.287   5.861  12.402  0.00  0.00    +0.000 HD
BRANCH  28  30
ATOM     30  C   UNL     1      44.431   6.494  11.800  0.00  0.00    +0.000 C 
BRANCH  30  31
ATOM     31  C   UNL     1      44.030   5.150  12.408  0.00  0.00    +0.000 C 
ATOM     32  C   UNL     1      43.241   4.245  11.477  0.00  0.00    +0.000 C 
ATOM     33  C   UNL     1      43.468   2.886  12.108  0.00  0.00    +0.000 C 
ATOM     34  N   UNL     1      44.890   2.893  12.463  0.00  0.00    +0.000 NA
ATOM     35  C   UNL     1      45.218   4.282  12.834  0.00  0.00    +0.000 C 
ATOM     36  H   UNL     1      45.433   2.656  11.632  0.00  0.00    +0.000 HD
ENDBRANCH  30  31
ENDBRANCH  28  30
ENDBRANCH  27  28
ENDBRANCH  24  27
ENDBRANCH  20  21
ENDBRANCH   1  20
TORSDOF 10
ENDMDL
