MODEL 1
REMARK VINA RESULT:    -7.599      0.000      0.000
REMARK INTER + INTRA:          -9.945
REMARK INTER:                  -9.376
REMARK INTRA:                  -0.568
REMARK UNBOUND:                -0.568
REMARK  Name = 
REMARK  5 active torsions:
REMARK  status: ('A' for Active; 'I' for Inactive)
REMARK    1  A    between atoms: C_1  and  C_2
REMARK    2  A    between atoms: C_2  and  C_3
REMARK    3  A    between atoms: C_2  and  C_14
REMARK    4  A    between atoms: C_3  and  N_4
REMARK    5  A    between atoms: C_8  and  C_9
REMARK                            x       y       z     vdW  Elec       q    Type
REMARK                         _______ _______ _______ _____ _____    ______ ____
ROOT
ATOM      1  N   UNL     1      43.887   3.235  10.377  0.00  0.00    +0.000 N 
ATOM      2  C   UNL     1      44.815   3.057   9.339  0.00  0.00    +0.000 A 
ATOM      3  C   UNL     1      45.252   1.763   9.010  0.00  0.00    +0.000 A 
ATOM      4  N   UNL     1      46.141   1.484   8.019  0.00  0.00    +0.000 NA
ATOM      5  C   UNL     1      46.603   2.581   7.360  0.00  0.00    +0.000 A 
ATOM      6  C   UNL     1      46.197   3.865   7.683  0.00  0.00    +0.000 A 
ATOM      7  N   UNL     1      45.309   4.123   8.675  0.00  0.00    +0.000 NA
ATOM      8  H   UNL     1      43.064   2.668  10.188  0.00  0.00    +0.000 HD
ENDROOT
BRANCH   5   9
ATOM      9  C   UNL     1      47.570   2.379   6.248  0.00  0.00    +0.000 C 
ATOM     10  N   UNL     1      47.446   3.227   5.185  0.00  0.00    +0.000 N 
ATOM     11  O   UNL     1      48.429   1.506   6.279  0.00  0.00    +0.000 OA
ATOM     12  H   UNL     1      46.725   3.941   5.185  0.00  0.00    +0.000 HD
ATOM     13  H   UNL     1      48.077   3.139   4.401  0.00  0.00    +0.000 HD
ENDBRANCH   5   9
BRANCH   1  14
ATOM     14  C   UNL     1      43.514   4.625  10.609  0.00  0.00    +0.000 C 
BRANCH  14  16
ATOM     15  C   UNL     1      42.853   5.223  13.023  0.00  0.00    +0.000 C 
ATOM     16  C   UNL     1      43.927   4.958  12.014  0.00  0.00    +0.000 C 
BRANCH  16  17
ATOM     17  C   UNL     1      45.287   5.466  12.245  0.00  0.00    +0.000 A 
ATOM     18  C   UNL     1      45.884   6.363  11.350  0.00  0.00    +0.000 A 
ATOM     19  C   UNL     1      47.159   6.875  11.607  0.00  0.00    +0.000 A 
ATOM     20  C   UNL     1      47.843   6.500  12.763  0.00  0.00    +0.000 A 
ATOM     21  C   UNL     1      47.260   5.604  13.654  0.00  0.00    +0.000 A 
ATOM     22  C   UNL     1      45.993   5.084  13.391  0.00  0.00    +0.000 A 
ENDBRANCH  16  17
ENDBRANCH  14  16
ENDBRANCH   1  14
TORSDOF 4
ENDMDL
MODEL 2
REMARK VINA RESULT:    -7.099      1.190      1.786
REMARK INTER + INTRA:          -9.327
REMARK INTER:                  -9.159
REMARK INTRA:                  -0.168
REMARK UNBOUND:                -0.568
REMARK  Name = 
REMARK  5 active torsions:
REMARK  status: ('A' for Active; 'I' for Inactive)
REMARK    1  A    between atoms: C_1  and  C_2
REMARK    2  A    between atoms: C_2  and  C_3
REMARK    3  A    between atoms: C_2  and  C_14
REMARK    4  A    between atoms: C_3  and  N_4
REMARK    5  A    between atoms: C_8  and  C_9
REMARK                            x       y       z     vdW  Elec       q    Type
REMARK                         _______ _______ _______ _____ _____    ______ ____
ROOT
ATOM      1  N   UNL     1      44.335   5.174   9.731  0.00  0.00    +0.000 N 
ATOM      2  C   UNL     1      45.009   4.102   9.125  0.00  0.00    +0.000 A 
ATOM      3  C   UNL     1      45.996   4.357   8.160  0.00  0.00    +0.000 A 
ATOM      4  N   UNL     1      46.710   3.391   7.520  0.00  0.00    +0.000 NA
ATOM      5  C   UNL     1      46.378   2.122   7.882  0.00  0.00    +0.000 A 
ATOM      6  C   UNL     1      45.395   1.852   8.819  0.00  0.00    +0.000 A 
ATOM      7  N   UNL     1      44.694   2.830   9.446  0.00  0.00    +0.000 NA
ATOM      8  H   UNL     1      45.018   5.805  10.144  0.00  0.00    +0.000 HD
ENDROOT
BRANCH   5   9
ATOM      9  C   UNL     1      47.114   0.994   7.250  0.00  0.00    +0.000 C 
ATOM     10  N   UNL     1      46.766  -0.258   7.669  0.00  0.00    +0.000 N 
ATOM     11  O   UNL     1      47.979   1.173   6.401  0.00  0.00    +0.000 OA
ATOM     12  H   UNL     1      46.046  -0.377   8.374  0.00  0.00    +0.000 HD
ATOM     13  H   UNL     1      47.230  -1.063   7.273  0.00  0.00    +0.000 HD
ENDBRANCH   5   9
BRANCH   1  14
ATOM     14  C   UNL     1      43.343   4.770  10.720  0.00  0.00    +0.000 C 
BRANCH  14  16
ATOM     15  C   UNL     1      43.074   4.835  13.278  0.00  0.00    +0.000 C 
ATOM     16  C   UNL     1      43.927   5.071  12.071  0.00  0.00    +0.000 C 
BRANCH  16  17
ATOM     17  C   UNL     1      45.070   5.991  12.152  0.00  0.00    +0.000 A 
ATOM     18  C   UNL     1      44.902   7.370  11.966  0.00  0.00    +0.000 A 
ATOM     19  C   UNL     1      45.989   8.238  12.095  0.00  0.00    +0.000 A 
ATOM     20  C   UNL     1      47.250   7.737  12.416  0.00  0.00    +0.000 A 
ATOM     21  C   UNL     1      47.428   6.369  12.596  0.00  0.00    +0.000 A 
ATOM     22  C   UNL     1      46.345   5.501  12.456  0.00  0.00    +0.000 A 
ENDBRANCH  16  17
ENDBRANCH  14  16
ENDBRANCH   1  14
TORSDOF 4
ENDMDL
MODEL 3
REMARK VINA RESULT:    -7.019      3.197      6.356
REMARK INTER + INTRA:          -9.229
REMARK INTER:                  -8.886
REMARK INTRA:                  -0.343
REMARK UNBOUND:                -0.568
REMARK  Name = 
REMARK  5 active torsions:
REMARK  status: ('A' for Active; 'I' for Inactive)
REMARK    1  A    between atoms: C_1  and  C_2
REMARK    2  A    between atoms: C_2  and  C_3
REMARK    3  A    between atoms: C_2  and  C_14
REMARK    4  A    between atoms: C_3  and  N_4
REMARK    5  A    between atoms: C_8  and  C_9
REMARK                            x       y       z     vdW  Elec       q    Type
REMARK                         _______ _______ _______ _____ _____    ______ ____
ROOT
ATOM      1  N   UNL     1      43.759   4.986  10.382  0.00  0.00    +0.000 N 
ATOM      2  C   UNL     1      44.723   5.693  11.116  0.00  0.00    +0.000 A 
ATOM      3  C   UNL     1      44.432   6.113  12.424  0.00  0.00    +0.000 A 
ATOM      4  N   UNL     1      45.298   6.797  13.220  0.00  0.00    +0.000 NA
ATOM      5  C   UNL     1      46.497   7.066  12.636  0.00  0.00    +0.000 A 
ATOM      6  C   UNL     1      46.795   6.675  11.341  0.00  0.00    +0.000 A 
ATOM      7  N   UNL     1      45.917   5.994  10.564  0.00  0.00    +0.000 NA
ATOM      8  H   UNL     1      43.469   4.169  10.913  0.00  0.00    +0.000 HD
ENDROOT
BRANCH   5   9
ATOM      9  C   UNL     1      47.520   7.797  13.432  0.00  0.00    +0.000 C 
ATOM     10  N   UNL     1      47.041   8.664  14.371  0.00  0.00    +0.000 N 
ATOM     11  O   UNL     1      48.722   7.632  13.258  0.00  0.00    +0.000 OA
ATOM     12  H   UNL     1      46.041   8.780  14.494  0.00  0.00    +0.000 HD
ATOM     13  H   UNL     1      47.690   9.186  14.944  0.00  0.00    +0.000 HD
ENDBRANCH   5   9
BRANCH   1  14
ATOM     14  C   UNL     1      44.194   4.604   9.043  0.00  0.00    +0.000 C 
BRANCH  14  16
ATOM     15  C   UNL     1      44.202   2.381  10.340  0.00  0.00    +0.000 C 
ATOM     16  C   UNL     1      44.555   3.147   9.103  0.00  0.00    +0.000 C 
BRANCH  16  17
ATOM     17  C   UNL     1      45.614   2.649   8.213  0.00  0.00    +0.000 A 
ATOM     18  C   UNL     1      46.055   1.321   8.288  0.00  0.00    +0.000 A 
ATOM     19  C   UNL     1      47.028   0.848   7.404  0.00  0.00    +0.000 A 
ATOM     20  C   UNL     1      47.562   1.695   6.434  0.00  0.00    +0.000 A 
ATOM     21  C   UNL     1      47.135   3.018   6.357  0.00  0.00    +0.000 A 
ATOM     22  C   UNL     1      46.173   3.493   7.248  0.00  0.00    +0.000 A 
ENDBRANCH  16  17
ENDBRANCH  14  16
ENDBRANCH   1  14
TORSDOF 4
ENDMDL
MODEL 4
REMARK VINA RESULT:    -6.839      3.462      5.914
REMARK INTER + INTRA:          -9.006
REMARK INTER:                  -8.438
REMARK INTRA:                  -0.568
REMARK UNBOUND:                -0.568
REMARK  Name = 
REMARK  5 active torsions:
REMARK  status: ('A' for Active; 'I' for Inactive)
REMARK    1  A    between atoms: C_1  and  C_2
REMARK    2  A    between atoms: C_2  and  C_3
REMARK    3  A    between atoms: C_2  and  C_14
REMARK    4  A    between atoms: C_3  and  N_4
REMARK    5  A    between atoms: C_8  and  C_9
REMARK                            x       y       z     vdW  Elec       q    Type
REMARK                         _______ _______ _______ _____ _____    ______ ____
ROOT
ATOM      1  N   UNL     1      44.980   4.724  12.583  0.00  0.00    +0.000 N 
ATOM      2  C   UNL     1      46.170   5.466  12.635  0.00  0.00    +0.000 A 
ATOM      3  C   UNL     1      47.042   5.307  13.725  0.00  0.00    +0.000 A 
ATOM      4  N   UNL     1      48.220   5.972  13.867  0.00  0.00    +0.000 NA
ATOM      5  C   UNL     1      48.496   6.839  12.855  0.00  0.00    +0.000 A 
ATOM      6  C   UNL     1      47.640   7.021  11.782  0.00  0.00    +0.000 A 
ATOM      7  N   UNL     1      46.468   6.348  11.659  0.00  0.00    +0.000 NA
ATOM      8  H   UNL     1      45.201   3.735  12.663  0.00  0.00    +0.000 HD
ENDROOT
BRANCH   5   9
ATOM      9  C   UNL     1      49.770   7.604  12.910  0.00  0.00    +0.000 C 
ATOM     10  N   UNL     1      50.490   7.487  14.064  0.00  0.00    +0.000 N 
ATOM     11  O   UNL     1      50.156   8.297  11.977  0.00  0.00    +0.000 OA
ATOM     12  H   UNL     1      50.147   6.905  14.822  0.00  0.00    +0.000 HD
ATOM     13  H   UNL     1      51.367   7.981  14.157  0.00  0.00    +0.000 HD
ENDBRANCH   5   9
BRANCH   1  14
ATOM     14  C   UNL     1      44.173   4.979  11.396  0.00  0.00    +0.000 C 
BRANCH  14  16
ATOM     15  C   UNL     1      43.334   2.546  11.469  0.00  0.00    +0.000 C 
ATOM     16  C   UNL     1      43.986   3.657  10.706  0.00  0.00    +0.000 C 
BRANCH  16  17
ATOM     17  C   UNL     1      44.830   3.347   9.542  0.00  0.00    +0.000 A 
ATOM     18  C   UNL     1      45.360   4.367   8.742  0.00  0.00    +0.000 A 
ATOM     19  C   UNL     1      46.200   4.059   7.668  0.00  0.00    +0.000 A 
ATOM     20  C   UNL     1      46.522   2.731   7.391  0.00  0.00    +0.000 A 
ATOM     21  C   UNL     1      45.995   1.710   8.177  0.00  0.00    +0.000 A 
ATOM     22  C   UNL     1      45.147   2.017   9.241  0.00  0.00    +0.000 A 
ENDBRANCH  16  17
ENDBRANCH  14  16
ENDBRANCH   1  14
TORSDOF 4
ENDMDL
MODEL 5
REMARK VINA RESULT:    -6.795      1.560      2.089
REMARK INTER + INTRA:          -8.952
REMARK INTER:                  -8.649
REMARK INTRA:                  -0.303
REMARK UNBOUND:                -0.568
REMARK  Name = 
REMARK  5 active torsions:
REMARK  status: ('A' for Active; 'I' for Inactive)
REMARK    1  A    between atoms: C_1  and  C_2
REMARK    2  A    between atoms: C_2  and  C_3
REMARK    3  A    between atoms: C_2  and  C_14
REMARK    4  A    between atoms: C_3  and  N_4
REMARK    5  A    between atoms: C_8  and  C_9
REMARK                            x       y       z     vdW  Elec       q    Type
REMARK                         _______ _______ _______ _____ _____    ______ ____
ROOT
ATOM      1  N   UNL     1      43.753   3.671  10.683  0.00  0.00    +0.000 N 
ATOM      2  C   UNL     1      44.639   3.367   9.638  0.00  0.00    +0.000 A 
ATOM      3  C   UNL     1      44.947   2.026   9.355  0.00  0.00    +0.000 A 
ATOM      4  N   UNL     1      45.786   1.625   8.362  0.00  0.00    +0.000 NA
ATOM      5  C   UNL     1      46.333   2.647   7.649  0.00  0.00    +0.000 A 
ATOM      6  C   UNL     1      46.055   3.975   7.925  0.00  0.00    +0.000 A 
ATOM      7  N   UNL     1      45.215   4.354   8.921  0.00  0.00    +0.000 NA
ATOM      8  H   UNL     1      42.878   3.177  10.532  0.00  0.00    +0.000 HD
ENDROOT
BRANCH   5   9
ATOM      9  C   UNL     1      47.253   2.311   6.530  0.00  0.00    +0.000 C 
ATOM     10  N   UNL     1      47.205   3.140   5.446  0.00  0.00    +0.000 N 
ATOM     11  O   UNL     1      48.012   1.351   6.574  0.00  0.00    +0.000 OA
ATOM     12  H   UNL     1      46.566   3.929   5.436  0.00  0.00    +0.000 HD
ATOM     13  H   UNL     1      47.810   2.963   4.656  0.00  0.00    +0.000 HD
ENDBRANCH   5   9
BRANCH   1  14
ATOM     14  C   UNL     1      43.515   5.099  10.862  0.00  0.00    +0.000 C 
BRANCH  14  16
ATOM     15  C   UNL     1      44.785   4.681  13.062  0.00  0.00    +0.000 C 
ATOM     16  C   UNL     1      44.494   5.576  11.897  0.00  0.00    +0.000 C 
BRANCH  16  17
ATOM     17  C   UNL     1      44.759   7.018  12.002  0.00  0.00    +0.000 A 
ATOM     18  C   UNL     1      45.672   7.519  12.939  0.00  0.00    +0.000 A 
ATOM     19  C   UNL     1      45.950   8.887  12.995  0.00  0.00    +0.000 A 
ATOM     20  C   UNL     1      45.324   9.764  12.110  0.00  0.00    +0.000 A 
ATOM     21  C   UNL     1      44.410   9.277  11.180  0.00  0.00    +0.000 A 
ATOM     22  C   UNL     1      44.124   7.913  11.133  0.00  0.00    +0.000 A 
ENDBRANCH  16  17
ENDBRANCH  14  16
ENDBRANCH   1  14
TORSDOF 4
ENDMDL
MODEL 6
REMARK VINA RESULT:    -6.499      4.576      7.201
REMARK INTER + INTRA:          -8.587
REMARK INTER:                  -8.222
REMARK INTRA:                  -0.364
REMARK UNBOUND:                -0.568
REMARK  Name = 
REMARK  5 active torsions:
REMARK  status: ('A' for Active; 'I' for Inactive)
REMARK    1  A    between atoms: C_1  and  C_2
REMARK    2  A    between atoms: C_2  and  C_3
REMARK    3  A    between atoms: C_2  and  C_14
REMARK    4  A    between atoms: C_3  and  N_4
REMARK    5  A    between atoms: C_8  and  C_9
REMARK                            x       y       z     vdW  Elec       q    Type
REMARK                         _______ _______ _______ _____ _____    ______ ____
ROOT
ATOM      1  N   UNL     1      46.126   5.298  12.727  0.00  0.00    +0.000 N 
ATOM      2  C   UNL     1      46.820   5.158  13.939  0.00  0.00    +0.000 A 
ATOM      3  C   UNL     1      47.871   6.037  14.245  0.00  0.00    +0.000 A 
ATOM      4  N   UNL     1      48.600   5.991  15.393  0.00  0.00    +0.000 NA
ATOM      5  C   UNL     1      48.237   4.992  16.242  0.00  0.00    +0.000 A 
ATOM      6  C   UNL     1      47.215   4.105  15.949  0.00  0.00    +0.000 A 
ATOM      7  N   UNL     1      46.500   4.168  14.798  0.00  0.00    +0.000 NA
ATOM      8  H   UNL     1      45.767   6.246  12.656  0.00  0.00    +0.000 HD
ENDROOT
BRANCH   5   9
ATOM      9  C   UNL     1      48.964   4.867  17.534  0.00  0.00    +0.000 C 
ATOM     10  N   UNL     1      50.326   4.940  17.464  0.00  0.00    +0.000 N 
ATOM     11  O   UNL     1      48.381   4.709  18.599  0.00  0.00    +0.000 OA
ATOM     12  H   UNL     1      50.784   5.070  16.568  0.00  0.00    +0.000 HD
ATOM     13  H   UNL     1      50.873   4.864  18.311  0.00  0.00    +0.000 HD
ENDBRANCH   5   9
BRANCH   1  14
ATOM     14  C   UNL     1      45.055   4.325  12.540  0.00  0.00    +0.000 C 
BRANCH  14  16
ATOM     15  C   UNL     1      43.019   5.186  11.222  0.00  0.00    +0.000 C 
ATOM     16  C   UNL     1      44.412   4.636  11.218  0.00  0.00    +0.000 C 
BRANCH  16  17
ATOM     17  C   UNL     1      44.935   3.982  10.011  0.00  0.00    +0.000 A 
ATOM     18  C   UNL     1      45.536   4.727   8.988  0.00  0.00    +0.000 A 
ATOM     19  C   UNL     1      46.073   4.087   7.868  0.00  0.00    +0.000 A 
ATOM     20  C   UNL     1      46.019   2.698   7.764  0.00  0.00    +0.000 A 
ATOM     21  C   UNL     1      45.418   1.949   8.772  0.00  0.00    +0.000 A 
ATOM     22  C   UNL     1      44.872   2.590   9.884  0.00  0.00    +0.000 A 
ENDBRANCH  16  17
ENDBRANCH  14  16
ENDBRANCH   1  14
TORSDOF 4
ENDMDL
MODEL 7
REMARK VINA RESULT:    -6.252      4.503      6.429
REMARK INTER + INTRA:          -8.283
REMARK INTER:                  -7.929
REMARK INTRA:                  -0.354
REMARK UNBOUND:                -0.568
REMARK  Name = 
REMARK  5 active torsions:
REMARK  status: ('A' for Active; 'I' for Inactive)
REMARK    1  A    between atoms: C_1  and  C_2
REMARK    2  A    between atoms: C_2  and  C_3
REMARK    3  A    between atoms: C_2  and  C_14
REMARK    4  A    between atoms: C_3  and  N_4
REMARK    5  A    between atoms: C_8  and  C_9
REMARK                            x       y       z     vdW  Elec       q    Type
REMARK                         _______ _______ _______ _____ _____    ______ ____
ROOT
ATOM      1  N   UNL     1      47.147   4.966  15.279  0.00  0.00    +0.000 N 
ATOM      2  C   UNL     1      46.502   4.719  14.057  0.00  0.00    +0.000 A 
ATOM      3  C   UNL     1      46.087   5.798  13.260  0.00  0.00    +0.000 A 
ATOM      4  N   UNL     1      45.460   5.667  12.059  0.00  0.00    +0.000 NA
ATOM      5  C   UNL     1      45.245   4.377  11.681  0.00  0.00    +0.000 A 
ATOM      6  C   UNL     1      45.632   3.302  12.463  0.00  0.00    +0.000 A 
ATOM      7  N   UNL     1      46.256   3.454  13.658  0.00  0.00    +0.000 NA
ATOM      8  H   UNL     1      47.956   5.559  15.114  0.00  0.00    +0.000 HD
ENDROOT
BRANCH   5   9
ATOM      9  C   UNL     1      44.580   4.128  10.374  0.00  0.00    +0.000 C 
ATOM     10  N   UNL     1      44.964   4.935   9.343  0.00  0.00    +0.000 N 
ATOM     11  O   UNL     1      43.739   3.249  10.227  0.00  0.00    +0.000 OA
ATOM     12  H   UNL     1      45.663   5.655   9.493  0.00  0.00    +0.000 HD
ATOM     13  H   UNL     1      44.548   4.810   8.430  0.00  0.00    +0.000 HD
ENDBRANCH   5   9
BRANCH   1  14
ATOM     14  C   UNL     1      47.532   3.759  16.002  0.00  0.00    +0.000 C 
BRANCH  14  16
ATOM     15  C   UNL     1      48.136   5.543  17.755  0.00  0.00    +0.000 C 
ATOM     16  C   UNL     1      48.392   4.197  17.152  0.00  0.00    +0.000 C 
BRANCH  16  17
ATOM     17  C   UNL     1      49.701   3.551  17.337  0.00  0.00    +0.000 A 
ATOM     18  C   UNL     1      50.795   4.268  17.839  0.00  0.00    +0.000 A 
ATOM     19  C   UNL     1      52.019   3.630  18.055  0.00  0.00    +0.000 A 
ATOM     20  C   UNL     1      52.157   2.271  17.777  0.00  0.00    +0.000 A 
ATOM     21  C   UNL     1      51.078   1.552  17.271  0.00  0.00    +0.000 A 
ATOM     22  C   UNL     1      49.859   2.192  17.044  0.00  0.00    +0.000 A 
ENDBRANCH  16  17
ENDBRANCH  14  16
ENDBRANCH   1  14
TORSDOF 4
ENDMDL
MODEL 8
REMARK VINA RESULT:    -5.822      4.792      7.448
REMARK INTER + INTRA:          -7.752
REMARK INTER:                  -7.376
REMARK INTRA:                  -0.377
REMARK UNBOUND:                -0.568
REMARK  Name = 
REMARK  5 active torsions:
REMARK  status: ('A' for Active; 'I' for Inactive)
REMARK    1  A    between atoms: C_1  and  C_2
REMARK    2  A    between atoms: C_2  and  C_3
REMARK    3  A    between atoms: C_2  and  C_14
REMARK    4  A    between atoms: C_3  and  N_4
REMARK    5  A    between atoms: C_8  and  C_9
REMARK                            x       y       z     vdW  Elec       q    Type
REMARK                         _______ _______ _______ _____ _____    ______ ____
ROOT
ATOM      1  N   UNL     1      48.258   7.009  13.626  0.00  0.00    +0.000 N 
ATOM      2  C   UNL     1      48.072   6.049  14.633  0.00  0.00    +0.000 A 
ATOM      3  C   UNL     1      48.541   6.305  15.932  0.00  0.00    +0.000 A 
ATOM      4  N   UNL     1      48.406   5.446  16.979  0.00  0.00    +0.000 NA
ATOM      5  C   UNL     1      47.779   4.280  16.664  0.00  0.00    +0.000 A 
ATOM      6  C   UNL     1      47.327   4.003  15.385  0.00  0.00    +0.000 A 
ATOM      7  N   UNL     1      47.471   4.873  14.355  0.00  0.00    +0.000 NA
ATOM      8  H   UNL     1      47.859   7.892  13.931  0.00  0.00    +0.000 HD
ENDROOT
BRANCH   5   9
ATOM      9  C   UNL     1      47.569   3.279  17.745  0.00  0.00    +0.000 C 
ATOM     10  N   UNL     1      48.480   3.294  18.761  0.00  0.00    +0.000 N 
ATOM     11  O   UNL     1      46.634   2.488  17.729  0.00  0.00    +0.000 OA
ATOM     12  H   UNL     1      49.246   3.961  18.749  0.00  0.00    +0.000 HD
ATOM     13  H   UNL     1      48.386   2.639  19.525  0.00  0.00    +0.000 HD
ENDBRANCH   5   9
BRANCH   1  14
ATOM     14  C   UNL     1      47.717   6.619  12.328  0.00  0.00    +0.000 C 
BRANCH  14  16
ATOM     15  C   UNL     1      45.985   8.404  12.991  0.00  0.00    +0.000 C 
ATOM     16  C   UNL     1      46.305   7.128  12.276  0.00  0.00    +0.000 C 
BRANCH  16  17
ATOM     17  C   UNL     1      45.227   6.179  11.960  0.00  0.00    +0.000 A 
ATOM     18  C   UNL     1      44.230   5.881  12.899  0.00  0.00    +0.000 A 
ATOM     19  C   UNL     1      43.185   5.014  12.568  0.00  0.00    +0.000 A 
ATOM     20  C   UNL     1      43.125   4.444  11.297  0.00  0.00    +0.000 A 
ATOM     21  C   UNL     1      44.114   4.730  10.361  0.00  0.00    +0.000 A 
ATOM     22  C   UNL     1      45.164   5.585  10.695  0.00  0.00    +0.000 A 
ENDBRANCH  16  17
ENDBRANCH  14  16
ENDBRANCH   1  14
TORSDOF 4
ENDMDL
MODEL 9
REMARK VINA RESULT:    -5.695      4.199      6.175
REMARK INTER + INTRA:          -7.596
REMARK INTER:                  -7.204
REMARK INTRA:                  -0.392
REMARK UNBOUND:                -0.568
REMARK  Name = 
REMARK  5 active torsions:
REMARK  status: ('A' for Active; 'I' for Inactive)
REMARK    1  A    between atoms: C_1  and  C_2
REMARK    2  A    between atoms: C_2  and  C_3
REMARK    3  A    between atoms: C_2  and  C_14
REMARK    4  A    between atoms: C_3  and  N_4
REMARK    5  A    between atoms: C_8  and  C_9
REMARK                            x       y       z     vdW  Elec       q    Type
REMARK                         _______ _______ _______ _____ _____    ______ ____
ROOT
ATOM      1  N   UNL     1      47.215   5.142  15.096  0.00  0.00    +0.000 N 
ATOM      2  C   UNL     1      46.534   4.868  13.899  0.00  0.00    +0.000 A 
ATOM      3  C   UNL     1      46.365   5.886  12.946  0.00  0.00    +0.000 A 
ATOM      4  N   UNL     1      45.728   5.722  11.755  0.00  0.00    +0.000 NA
ATOM      5  C   UNL     1      45.239   4.469  11.553  0.00  0.00    +0.000 A 
ATOM      6  C   UNL     1      45.381   3.458  12.489  0.00  0.00    +0.000 A 
ATOM      7  N   UNL     1      46.019   3.642  13.671  0.00  0.00    +0.000 NA
ATOM      8  H   UNL     1      48.133   5.518  14.877  0.00  0.00    +0.000 HD
ENDROOT
BRANCH   5   9
ATOM      9  C   UNL     1      44.539   4.185  10.272  0.00  0.00    +0.000 C 
ATOM     10  N   UNL     1      44.973   4.884   9.183  0.00  0.00    +0.000 N 
ATOM     11  O   UNL     1      43.627   3.370  10.193  0.00  0.00    +0.000 OA
ATOM     12  H   UNL     1      45.730   5.553   9.277  0.00  0.00    +0.000 HD
ATOM     13  H   UNL     1      44.536   4.730   8.285  0.00  0.00    +0.000 HD
ENDBRANCH   5   9
BRANCH   1  14
ATOM     14  C   UNL     1      47.326   3.996  15.991  0.00  0.00    +0.000 C 
BRANCH  14  16
ATOM     15  C   UNL     1      49.375   3.166  17.308  0.00  0.00    +0.000 C 
ATOM     16  C   UNL     1      48.458   4.289  16.933  0.00  0.00    +0.000 C 
BRANCH  16  17
ATOM     17  C   UNL     1      48.364   5.474  17.799  0.00  0.00    +0.000 A 
ATOM     18  C   UNL     1      47.330   5.602  18.736  0.00  0.00    +0.000 A 
ATOM     19  C   UNL     1      47.280   6.711  19.586  0.00  0.00    +0.000 A 
ATOM     20  C   UNL     1      48.265   7.695  19.509  0.00  0.00    +0.000 A 
ATOM     21  C   UNL     1      49.292   7.578  18.577  0.00  0.00    +0.000 A 
ATOM     22  C   UNL     1      49.335   6.478  17.721  0.00  0.00    +0.000 A 
ENDBRANCH  16  17
ENDBRANCH  14  16
ENDBRANCH   1  14
TORSDOF 4
ENDMDL
