MODEL 1
REMARK VINA RESULT:    -7.582      0.000      0.000
REMARK INTER + INTRA:         -12.262
REMARK INTER:                 -11.128
REMARK INTRA:                  -1.134
REMARK UNBOUND:                -1.134
REMARK  Name = 
REMARK  10 active torsions:
REMARK  status: ('A' for Active; 'I' for Inactive)
REMARK    1  A    between atoms: C_1  and  C_2
REMARK    2  A    between atoms: C_2  and  N_3
REMARK    3  A    between atoms: N_3  and  C_4
REMARK    4  A    between atoms: N_3  and  C_25
REMARK    5  A    between atoms: C_4  and  C_5
REMARK    6  A    between atoms: C_8  and  C_9
REMARK    7  A    between atoms: C_9  and  N_10
REMARK    8  A    between atoms: C_11  and  C_13
REMARK    9  A    between atoms: C_25  and  C_26
REMARK   10  A    between atoms: C_25  and  C_27
REMARK                            x       y       z     vdW  Elec       q    Type
REMARK                         _______ _______ _______ _____ _____    ______ ____
ROOT
ATOM      1  C   UNL     1      47.169   5.317  13.456  0.00  0.00    +0.000 A 
ATOM      2  C   UNL     1      47.568   6.003  14.605  0.00  0.00    +0.000 A 
ATOM      3  C   UNL     1      47.807   5.308  15.788  0.00  0.00    +0.000 A 
ATOM      4  C   UNL     1      47.524   3.949  15.831  0.00  0.00    +0.000 A 
ATOM      5  N   UNL     1      47.093   3.261  14.744  0.00  0.00    +0.000 NA
ATOM      6  C   UNL     1      46.940   3.954  13.592  0.00  0.00    +0.000 A 
ENDROOT
BRANCH   1   7
ATOM      7  C   UNL     1      47.011   6.028  12.137  0.00  0.00    +0.000 C 
BRANCH   7   8
ATOM      8  N   UNL     1      45.685   6.563  11.798  0.00  0.00    +0.000 NA
BRANCH   8  10
ATOM      9  C   UNL     1      45.524   9.089  11.994  0.00  0.00    +0.000 C 
ATOM     10  C   UNL     1      45.231   7.713  12.591  0.00  0.00    +0.000 C 
ENDBRANCH   8  10
BRANCH   8  11
ATOM     11  C   UNL     1      44.619   5.545  11.560  0.00  0.00    +0.000 C 
ATOM     12  C   UNL     1      43.191   6.059  11.279  0.00  0.00    +0.000 C 
BRANCH  11  13
ATOM     13  C   UNL     1      44.961   4.602  10.391  0.00  0.00    +0.000 A 
ATOM     14  C   UNL     1      44.733   3.228  10.472  0.00  0.00    +0.000 A 
ATOM     15  C   UNL     1      45.046   2.440   9.373  0.00  0.00    +0.000 A 
ATOM     16  C   UNL     1      45.596   3.018   8.235  0.00  0.00    +0.000 A 
ATOM     17  C   UNL     1      45.787   4.384   8.229  0.00  0.00    +0.000 A 
ATOM     18  N   UNL     1      45.490   5.177   9.274  0.00  0.00    +0.000 NA
ENDBRANCH  11  13
ENDBRANCH   8  11
ENDBRANCH   7   8
ENDBRANCH   1   7
BRANCH   4  19
ATOM     19  C   UNL     1      47.637   3.196  17.129  0.00  0.00    +0.000 C 
BRANCH  19  20
ATOM     20  N   UNL     1      48.997   3.034  17.579  0.00  0.00    +0.000 N 
ATOM     21  C   UNL     1      49.897   2.238  16.929  0.00  0.00    +0.000 C 
ATOM     22  O   UNL     1      49.579   1.541  15.969  0.00  0.00    +0.000 OA
ATOM     23  H   UNL     1      49.218   3.432  18.487  0.00  0.00    +0.000 HD
BRANCH  21  24
ATOM     24  C   UNL     1      51.292   2.327  17.381  0.00  0.00    +0.000 A 
ATOM     25  C   UNL     1      51.979   1.166  17.710  0.00  0.00    +0.000 A 
ATOM     26  S   UNL     1      53.603   1.432  18.156  0.00  0.00    +0.000 S 
ATOM     27  C   UNL     1      53.435   3.114  17.969  0.00  0.00    +0.000 A 
ATOM     28  N   UNL     1      54.477   3.951  18.220  0.00  0.00    +0.000 NA
ATOM     29  C   UNL     1      54.203   5.204  18.070  0.00  0.00    +0.000 A 
ATOM     30  N   UNL     1      52.984   5.695  17.683  0.00  0.00    +0.000 N 
ATOM     31  C   UNL     1      51.920   4.885  17.362  0.00  0.00    +0.000 A 
ATOM     32  O   UNL     1      50.876   5.353  16.924  0.00  0.00    +0.000 OA
ATOM     33  C   UNL     1      52.163   3.467  17.550  0.00  0.00    +0.000 A 
ATOM     34  H   UNL     1      52.836   6.686  17.564  0.00  0.00    +0.000 HD
ENDBRANCH  21  24
ENDBRANCH  19  20
ENDBRANCH   4  19
TORSDOF 8
ENDMDL
MODEL 2
REMARK VINA RESULT:    -7.354      3.943      8.716
REMARK INTER + INTRA:         -11.927
REMARK INTER:                 -10.261
REMARK INTRA:                  -1.666
REMARK UNBOUND:                -1.134
REMARK  Name = 
REMARK  10 active torsions:
REMARK  status: ('A' for Active; 'I' for Inactive)
REMARK    1  A    between atoms: C_1  and  C_2
REMARK    2  A    between atoms: C_2  and  N_3
REMARK    3  A    between atoms: N_3  and  C_4
REMARK    4  A    between atoms: N_3  and  C_25
REMARK    5  A    between atoms: C_4  and  C_5
REMARK    6  A    between atoms: C_8  and  C_9
REMARK    7  A    between atoms: C_9  and  N_10
REMARK    8  A    between atoms: C_11  and  C_13
REMARK    9  A    between atoms: C_25  and  C_26
REMARK   10  A    between atoms: C_25  and  C_27
REMARK                            x       y       z     vdW  Elec       q    Type
REMARK                         _______ _______ _______ _____ _____    ______ ____
ROOT
ATOM      1  C   UNL     1      49.033   7.852  16.498  0.00  0.00    +0.000 A 
ATOM      2  C   UNL     1      48.380   8.922  15.881  0.00  0.00    +0.000 A 
ATOM      3  C   UNL     1      48.098   8.878  14.518  0.00  0.00    +0.000 A 
ATOM      4  C   UNL     1      48.584   7.813  13.771  0.00  0.00    +0.000 A 
ATOM      5  N   UNL     1      49.260   6.780  14.332  0.00  0.00    +0.000 NA
ATOM      6  C   UNL     1      49.454   6.820  15.671  0.00  0.00    +0.000 A 
ENDROOT
BRANCH   1   7
ATOM      7  C   UNL     1      49.251   7.825  17.989  0.00  0.00    +0.000 C 
BRANCH   7   8
ATOM      8  N   UNL     1      48.405   6.930  18.792  0.00  0.00    +0.000 NA
BRANCH   8  10
ATOM      9  C   UNL     1      47.316   9.083  19.579  0.00  0.00    +0.000 C 
ATOM     10  C   UNL     1      47.523   7.581  19.768  0.00  0.00    +0.000 C 
ENDBRANCH   8  10
BRANCH   8  11
ATOM     11  C   UNL     1      49.079   5.707  19.319  0.00  0.00    +0.000 C 
ATOM     12  C   UNL     1      48.625   5.180  20.697  0.00  0.00    +0.000 C 
BRANCH  11  13
ATOM     13  C   UNL     1      48.957   4.511  18.355  0.00  0.00    +0.000 A 
ATOM     14  C   UNL     1      50.034   3.655  18.116  0.00  0.00    +0.000 A 
ATOM     15  C   UNL     1      49.848   2.586  17.251  0.00  0.00    +0.000 A 
ATOM     16  C   UNL     1      48.620   2.399  16.628  0.00  0.00    +0.000 A 
ATOM     17  C   UNL     1      47.602   3.284  16.919  0.00  0.00    +0.000 A 
ATOM     18  N   UNL     1      47.747   4.327  17.756  0.00  0.00    +0.000 NA
ENDBRANCH  11  13
ENDBRANCH   8  11
ENDBRANCH   7   8
ENDBRANCH   1   7
BRANCH   4  19
ATOM     19  C   UNL     1      48.420   7.804  12.275  0.00  0.00    +0.000 C 
BRANCH  19  20
ATOM     20  N   UNL     1      47.614   6.708  11.797  0.00  0.00    +0.000 N 
ATOM     21  C   UNL     1      46.282   6.839  11.523  0.00  0.00    +0.000 C 
ATOM     22  O   UNL     1      45.668   7.878  11.749  0.00  0.00    +0.000 OA
ATOM     23  H   UNL     1      48.054   5.792  11.807  0.00  0.00    +0.000 HD
BRANCH  21  24
ATOM     24  C   UNL     1      45.638   5.699  10.856  0.00  0.00    +0.000 A 
ATOM     25  C   UNL     1      45.768   5.548   9.483  0.00  0.00    +0.000 A 
ATOM     26  S   UNL     1      45.016   4.144   8.872  0.00  0.00    +0.000 S 
ATOM     27  C   UNL     1      44.451   3.711  10.417  0.00  0.00    +0.000 A 
ATOM     28  N   UNL     1      43.700   2.591  10.595  0.00  0.00    +0.000 NA
ATOM     29  C   UNL     1      43.310   2.398  11.811  0.00  0.00    +0.000 A 
ATOM     30  N   UNL     1      43.610   3.219  12.866  0.00  0.00    +0.000 N 
ATOM     31  C   UNL     1      44.413   4.329  12.744  0.00  0.00    +0.000 A 
ATOM     32  O   UNL     1      44.743   4.984  13.726  0.00  0.00    +0.000 OA
ATOM     33  C   UNL     1      44.848   4.612  11.389  0.00  0.00    +0.000 A 
ATOM     34  H   UNL     1      43.291   3.005  13.799  0.00  0.00    +0.000 HD
ENDBRANCH  21  24
ENDBRANCH  19  20
ENDBRANCH   4  19
TORSDOF 8
ENDMDL
MODEL 3
REMARK VINA RESULT:    -7.249      1.522      2.312
REMARK INTER + INTRA:         -11.773
REMARK INTER:                 -10.695
REMARK INTRA:                  -1.077
REMARK UNBOUND:                -1.134
REMARK  Name = 
REMARK  10 active torsions:
REMARK  status: ('A' for Active; 'I' for Inactive)
REMARK    1  A    between atoms: C_1  and  C_2
REMARK    2  A    between atoms: C_2  and  N_3
REMARK    3  A    between atoms: N_3  and  C_4
REMARK    4  A    between atoms: N_3  and  C_25
REMARK    5  A    between atoms: C_4  and  C_5
REMARK    6  A    between atoms: C_8  and  C_9
REMARK    7  A    between atoms: C_9  and  N_10
REMARK    8  A    between atoms: C_11  and  C_13
REMARK    9  A    between atoms: C_25  and  C_26
REMARK   10  A    between atoms: C_25  and  C_27
REMARK                            x       y       z     vdW  Elec       q    Type
REMARK                         _______ _______ _______ _____ _____    ______ ____
ROOT
ATOM      1  C   UNL     1      47.148   5.627  13.171  0.00  0.00    +0.000 A 
ATOM      2  C   UNL     1      46.593   4.462  13.707  0.00  0.00    +0.000 A 
ATOM      3  C   UNL     1      46.840   4.115  15.032  0.00  0.00    +0.000 A 
ATOM      4  C   UNL     1      47.738   4.879  15.765  0.00  0.00    +0.000 A 
ATOM      5  N   UNL     1      48.328   5.991  15.260  0.00  0.00    +0.000 NA
ATOM      6  C   UNL     1      48.011   6.340  13.992  0.00  0.00    +0.000 A 
ENDROOT
BRANCH   1   7
ATOM      7  C   UNL     1      46.809   6.083  11.775  0.00  0.00    +0.000 C 
BRANCH   7   8
ATOM      8  N   UNL     1      45.406   6.407  11.480  0.00  0.00    +0.000 NA
BRANCH   8  10
ATOM      9  C   UNL     1      45.567   8.836  12.200  0.00  0.00    +0.000 C 
ATOM     10  C   UNL     1      44.820   7.504  12.260  0.00  0.00    +0.000 C 
ENDBRANCH   8  10
BRANCH   8  11
ATOM     11  C   UNL     1      44.493   5.238  11.316  0.00  0.00    +0.000 C 
ATOM     12  C   UNL     1      42.995   5.528  11.085  0.00  0.00    +0.000 C 
BRANCH  11  13
ATOM     13  C   UNL     1      44.923   4.318  10.156  0.00  0.00    +0.000 A 
ATOM     14  C   UNL     1      44.797   2.931  10.242  0.00  0.00    +0.000 A 
ATOM     15  C   UNL     1      45.185   2.164   9.152  0.00  0.00    +0.000 A 
ATOM     16  C   UNL     1      45.707   2.777   8.019  0.00  0.00    +0.000 A 
ATOM     17  C   UNL     1      45.795   4.154   8.008  0.00  0.00    +0.000 A 
ATOM     18  N   UNL     1      45.423   4.926   9.045  0.00  0.00    +0.000 NA
ENDBRANCH  11  13
ENDBRANCH   8  11
ENDBRANCH   7   8
ENDBRANCH   1   7
BRANCH   4  19
ATOM     19  C   UNL     1      48.135   4.453  17.153  0.00  0.00    +0.000 C 
BRANCH  19  20
ATOM     20  N   UNL     1      49.549   4.208  17.292  0.00  0.00    +0.000 N 
ATOM     21  C   UNL     1      50.200   4.312  18.489  0.00  0.00    +0.000 C 
ATOM     22  O   UNL     1      49.637   4.706  19.507  0.00  0.00    +0.000 OA
ATOM     23  H   UNL     1      50.069   4.091  16.427  0.00  0.00    +0.000 HD
BRANCH  21  24
ATOM     24  C   UNL     1      51.592   3.842  18.518  0.00  0.00    +0.000 A 
ATOM     25  C   UNL     1      52.575   4.650  19.074  0.00  0.00    +0.000 A 
ATOM     26  S   UNL     1      54.124   3.936  19.087  0.00  0.00    +0.000 S 
ATOM     27  C   UNL     1      53.545   2.539  18.308  0.00  0.00    +0.000 A 
ATOM     28  N   UNL     1      54.385   1.515  17.998  0.00  0.00    +0.000 NA
ATOM     29  C   UNL     1      53.821   0.532  17.379  0.00  0.00    +0.000 A 
ATOM     30  N   UNL     1      52.492   0.475  17.052  0.00  0.00    +0.000 N 
ATOM     31  C   UNL     1      51.595   1.458  17.397  0.00  0.00    +0.000 A 
ATOM     32  O   UNL     1      50.396   1.329  17.177  0.00  0.00    +0.000 OA
ATOM     33  C   UNL     1      52.184   2.605  18.061  0.00  0.00    +0.000 A 
ATOM     34  H   UNL     1      52.106  -0.332  16.585  0.00  0.00    +0.000 HD
ENDBRANCH  21  24
ENDBRANCH  19  20
ENDBRANCH   4  19
TORSDOF 8
ENDMDL
MODEL 4
REMARK VINA RESULT:    -6.748      2.158      3.600
REMARK INTER + INTRA:         -11.038
REMARK INTER:                  -9.570
REMARK INTRA:                  -1.468
REMARK UNBOUND:                -1.134
REMARK  Name = 
REMARK  10 active torsions:
REMARK  status: ('A' for Active; 'I' for Inactive)
REMARK    1  A    between atoms: C_1  and  C_2
REMARK    2  A    between atoms: C_2  and  N_3
REMARK    3  A    between atoms: N_3  and  C_4
REMARK    4  A    between atoms: N_3  and  C_25
REMARK    5  A    between atoms: C_4  and  C_5
REMARK    6  A    between atoms: C_8  and  C_9
REMARK    7  A    between atoms: C_9  and  N_10
REMARK    8  A    between atoms: C_11  and  C_13
REMARK    9  A    between atoms: C_25  and  C_26
REMARK   10  A    between atoms: C_25  and  C_27
REMARK                            x       y       z     vdW  Elec       q    Type
REMARK                         _______ _______ _______ _____ _____    ______ ____
ROOT
ATOM      1  C   UNL     1      46.364   5.429  13.283  0.00  0.00    +0.000 A 
ATOM      2  C   UNL     1      46.636   6.318  12.240  0.00  0.00    +0.000 A 
ATOM      3  C   UNL     1      47.802   7.079  12.255  0.00  0.00    +0.000 A 
ATOM      4  C   UNL     1      48.618   7.025  13.377  0.00  0.00    +0.000 A 
ATOM      5  N   UNL     1      48.359   6.206  14.426  0.00  0.00    +0.000 NA
ATOM      6  C   UNL     1      47.256   5.427  14.347  0.00  0.00    +0.000 A 
ENDROOT
BRANCH   1   7
ATOM      7  C   UNL     1      45.167   4.514  13.238  0.00  0.00    +0.000 C 
BRANCH   7   8
ATOM      8  N   UNL     1      44.453   4.379  11.960  0.00  0.00    +0.000 NA
BRANCH   8  10
ATOM      9  C   UNL     1      42.944   6.334  11.377  0.00  0.00    +0.000 C 
ATOM     10  C   UNL     1      43.087   4.915  11.925  0.00  0.00    +0.000 C 
ENDBRANCH   8  10
BRANCH   8  11
ATOM     11  C   UNL     1      44.594   3.058  11.279  0.00  0.00    +0.000 C 
ATOM     12  C   UNL     1      43.326   2.188  11.140  0.00  0.00    +0.000 C 
BRANCH  11  13
ATOM     13  C   UNL     1      45.166   3.192   9.854  0.00  0.00    +0.000 A 
ATOM     14  C   UNL     1      45.410   4.442   9.282  0.00  0.00    +0.000 A 
ATOM     15  C   UNL     1      45.944   4.489   8.002  0.00  0.00    +0.000 A 
ATOM     16  C   UNL     1      46.203   3.311   7.311  0.00  0.00    +0.000 A 
ATOM     17  C   UNL     1      45.940   2.115   7.946  0.00  0.00    +0.000 A 
ATOM     18  N   UNL     1      45.427   2.034   9.187  0.00  0.00    +0.000 NA
ENDBRANCH  11  13
ENDBRANCH   8  11
ENDBRANCH   7   8
ENDBRANCH   1   7
BRANCH   4  19
ATOM     19  C   UNL     1      49.810   7.938  13.488  0.00  0.00    +0.000 C 
BRANCH  19  20
ATOM     20  N   UNL     1      50.925   7.339  14.178  0.00  0.00    +0.000 N 
ATOM     21  C   UNL     1      51.227   7.629  15.479  0.00  0.00    +0.000 C 
ATOM     22  O   UNL     1      50.619   8.484  16.115  0.00  0.00    +0.000 OA
ATOM     23  H   UNL     1      51.564   6.793  13.606  0.00  0.00    +0.000 HD
BRANCH  21  24
ATOM     24  C   UNL     1      52.263   6.797  16.108  0.00  0.00    +0.000 A 
ATOM     25  C   UNL     1      53.598   7.154  15.977  0.00  0.00    +0.000 A 
ATOM     26  S   UNL     1      54.668   6.125  16.816  0.00  0.00    +0.000 S 
ATOM     27  C   UNL     1      53.388   5.139  17.348  0.00  0.00    +0.000 A 
ATOM     28  N   UNL     1      53.627   4.041  18.114  0.00  0.00    +0.000 NA
ATOM     29  C   UNL     1      52.570   3.364  18.420  0.00  0.00    +0.000 A 
ATOM     30  N   UNL     1      51.296   3.693  18.038  0.00  0.00    +0.000 N 
ATOM     31  C   UNL     1      51.001   4.824  17.314  0.00  0.00    +0.000 A 
ATOM     32  O   UNL     1      49.842   5.139  17.074  0.00  0.00    +0.000 OA
ATOM     33  C   UNL     1      52.159   5.601  16.911  0.00  0.00    +0.000 A 
ATOM     34  H   UNL     1      50.507   3.134  18.325  0.00  0.00    +0.000 HD
ENDBRANCH  21  24
ENDBRANCH  19  20
ENDBRANCH   4  19
TORSDOF 8
ENDMDL
MODEL 5
REMARK VINA RESULT:    -6.625      3.055      9.301
REMARK INTER + INTRA:         -10.858
REMARK INTER:                  -9.244
REMARK INTRA:                  -1.614
REMARK UNBOUND:                -1.134
REMARK  Name = 
REMARK  10 active torsions:
REMARK  status: ('A' for Active; 'I' for Inactive)
REMARK    1  A    between atoms: C_1  and  C_2
REMARK    2  A    between atoms: C_2  and  N_3
REMARK    3  A    between atoms: N_3  and  C_4
REMARK    4  A    between atoms: N_3  and  C_25
REMARK    5  A    between atoms: C_4  and  C_5
REMARK    6  A    between atoms: C_8  and  C_9
REMARK    7  A    between atoms: C_9  and  N_10
REMARK    8  A    between atoms: C_11  and  C_13
REMARK    9  A    between atoms: C_25  and  C_26
REMARK   10  A    between atoms: C_25  and  C_27
REMARK                            x       y       z     vdW  Elec       q    Type
REMARK                         _______ _______ _______ _____ _____    ______ ____
ROOT
ATOM      1  C   UNL     1      51.161   4.071  18.113  0.00  0.00    +0.000 A 
ATOM      2  C   UNL     1      50.172   5.031  18.344  0.00  0.00    +0.000 A 
ATOM      3  C   UNL     1      48.858   4.791  17.951  0.00  0.00    +0.000 A 
ATOM      4  C   UNL     1      48.580   3.642  17.223  0.00  0.00    +0.000 A 
ATOM      5  N   UNL     1      49.526   2.711  16.944  0.00  0.00    +0.000 NA
ATOM      6  C   UNL     1      50.778   2.942  17.403  0.00  0.00    +0.000 A 
ENDROOT
BRANCH   1   7
ATOM      7  C   UNL     1      52.566   4.258  18.626  0.00  0.00    +0.000 C 
BRANCH   7   8
ATOM      8  N   UNL     1      53.655   4.322  17.641  0.00  0.00    +0.000 NA
BRANCH   8  10
ATOM      9  C   UNL     1      54.253   2.015  18.517  0.00  0.00    +0.000 C 
ATOM     10  C   UNL     1      54.662   3.256  17.724  0.00  0.00    +0.000 C 
ENDBRANCH   8  10
BRANCH   8  11
ATOM     11  C   UNL     1      54.237   5.676  17.409  0.00  0.00    +0.000 C 
ATOM     12  C   UNL     1      55.264   5.825  16.266  0.00  0.00    +0.000 C 
BRANCH  11  13
ATOM     13  C   UNL     1      53.156   6.740  17.139  0.00  0.00    +0.000 A 
ATOM     14  C   UNL     1      52.875   7.745  18.066  0.00  0.00    +0.000 A 
ATOM     15  C   UNL     1      51.901   8.682  17.749  0.00  0.00    +0.000 A 
ATOM     16  C   UNL     1      51.215   8.594  16.543  0.00  0.00    +0.000 A 
ATOM     17  C   UNL     1      51.553   7.575  15.677  0.00  0.00    +0.000 A 
ATOM     18  N   UNL     1      52.495   6.654  15.951  0.00  0.00    +0.000 NA
ENDBRANCH  11  13
ENDBRANCH   8  11
ENDBRANCH   7   8
ENDBRANCH   1   7
BRANCH   4  19
ATOM     19  C   UNL     1      47.201   3.420  16.662  0.00  0.00    +0.000 C 
BRANCH  19  20
ATOM     20  N   UNL     1      46.806   4.424  15.706  0.00  0.00    +0.000 N 
ATOM     21  C   UNL     1      46.818   4.201  14.357  0.00  0.00    +0.000 C 
ATOM     22  O   UNL     1      47.250   3.159  13.871  0.00  0.00    +0.000 OA
ATOM     23  H   UNL     1      46.651   5.357  16.076  0.00  0.00    +0.000 HD
BRANCH  21  24
ATOM     24  C   UNL     1      46.203   5.240  13.519  0.00  0.00    +0.000 A 
ATOM     25  C   UNL     1      46.882   6.431  13.299  0.00  0.00    +0.000 A 
ATOM     26  S   UNL     1      46.064   7.504  12.257  0.00  0.00    +0.000 S 
ATOM     27  C   UNL     1      44.752   6.434  12.098  0.00  0.00    +0.000 A 
ATOM     28  N   UNL     1      43.673   6.763  11.337  0.00  0.00    +0.000 NA
ATOM     29  C   UNL     1      42.736   5.875  11.329  0.00  0.00    +0.000 A 
ATOM     30  N   UNL     1      42.783   4.684  12.006  0.00  0.00    +0.000 N 
ATOM     31  C   UNL     1      43.876   4.285  12.739  0.00  0.00    +0.000 A 
ATOM     32  O   UNL     1      43.924   3.172  13.249  0.00  0.00    +0.000 OA
ATOM     33  C   UNL     1      44.944   5.264  12.811  0.00  0.00    +0.000 A 
ATOM     34  H   UNL     1      42.025   4.021  11.945  0.00  0.00    +0.000 HD
ENDBRANCH  21  24
ENDBRANCH  19  20
ENDBRANCH   4  19
TORSDOF 8
ENDMDL
MODEL 6
REMARK VINA RESULT:    -6.527      3.851      9.569
REMARK INTER + INTRA:         -10.714
REMARK INTER:                  -9.169
REMARK INTRA:                  -1.545
REMARK UNBOUND:                -1.134
REMARK  Name = 
REMARK  10 active torsions:
REMARK  status: ('A' for Active; 'I' for Inactive)
REMARK    1  A    between atoms: C_1  and  C_2
REMARK    2  A    between atoms: C_2  and  N_3
REMARK    3  A    between atoms: N_3  and  C_4
REMARK    4  A    between atoms: N_3  and  C_25
REMARK    5  A    between atoms: C_4  and  C_5
REMARK    6  A    between atoms: C_8  and  C_9
REMARK    7  A    between atoms: C_9  and  N_10
REMARK    8  A    between atoms: C_11  and  C_13
REMARK    9  A    between atoms: C_25  and  C_26
REMARK   10  A    between atoms: C_25  and  C_27
REMARK                            x       y       z     vdW  Elec       q    Type
REMARK                         _______ _______ _______ _____ _____    ______ ____
ROOT
ATOM      1  C   UNL     1      50.299   4.942  19.126  0.00  0.00    +0.000 A 
ATOM      2  C   UNL     1      48.967   4.886  19.544  0.00  0.00    +0.000 A 
ATOM      3  C   UNL     1      48.001   4.306  18.726  0.00  0.00    +0.000 A 
ATOM      4  C   UNL     1      48.366   3.900  17.449  0.00  0.00    +0.000 A 
ATOM      5  N   UNL     1      49.642   3.980  16.997  0.00  0.00    +0.000 NA
ATOM      6  C   UNL     1      50.569   4.483  17.844  0.00  0.00    +0.000 A 
ENDROOT
BRANCH   1   7
ATOM      7  C   UNL     1      51.382   5.463  20.036  0.00  0.00    +0.000 C 
BRANCH   7   8
ATOM      8  N   UNL     1      51.970   6.774  19.726  0.00  0.00    +0.000 NA
BRANCH   8  10
ATOM      9  C   UNL     1      54.222   5.996  20.602  0.00  0.00    +0.000 C 
ATOM     10  C   UNL     1      53.430   6.806  19.576  0.00  0.00    +0.000 C 
ENDBRANCH   8  10
BRANCH   8  11
ATOM     11  C   UNL     1      51.424   7.926  20.501  0.00  0.00    +0.000 C 
ATOM     12  C   UNL     1      52.162   9.277  20.387  0.00  0.00    +0.000 C 
BRANCH  11  13
ATOM     13  C   UNL     1      49.953   8.224  20.149  0.00  0.00    +0.000 A 
ATOM     14  C   UNL     1      48.958   8.237  21.129  0.00  0.00    +0.000 A 
ATOM     15  C   UNL     1      47.658   8.533  20.744  0.00  0.00    +0.000 A 
ATOM     16  C   UNL     1      47.365   8.783  19.409  0.00  0.00    +0.000 A 
ATOM     17  C   UNL     1      48.404   8.757  18.501  0.00  0.00    +0.000 A 
ATOM     18  N   UNL     1      49.676   8.480  18.841  0.00  0.00    +0.000 NA
ENDBRANCH  11  13
ENDBRANCH   8  11
ENDBRANCH   7   8
ENDBRANCH   1   7
BRANCH   4  19
ATOM     19  C   UNL     1      47.320   3.399  16.489  0.00  0.00    +0.000 C 
BRANCH  19  20
ATOM     20  N   UNL     1      46.843   4.415  15.585  0.00  0.00    +0.000 N 
ATOM     21  C   UNL     1      46.786   4.230  14.232  0.00  0.00    +0.000 C 
ATOM     22  O   UNL     1      47.220   3.215  13.694  0.00  0.00    +0.000 OA
ATOM     23  H   UNL     1      46.682   5.333  15.989  0.00  0.00    +0.000 HD
BRANCH  21  24
ATOM     24  C   UNL     1      46.095   5.271  13.459  0.00  0.00    +0.000 A 
ATOM     25  C   UNL     1      46.715   6.496  13.257  0.00  0.00    +0.000 A 
ATOM     26  S   UNL     1      45.811   7.571  12.290  0.00  0.00    +0.000 S 
ATOM     27  C   UNL     1      44.538   6.453  12.142  0.00  0.00    +0.000 A 
ATOM     28  N   UNL     1      43.417   6.763  11.438  0.00  0.00    +0.000 NA
ATOM     29  C   UNL     1      42.517   5.837  11.434  0.00  0.00    +0.000 A 
ATOM     30  N   UNL     1      42.641   4.625  12.063  0.00  0.00    +0.000 N 
ATOM     31  C   UNL     1      43.778   4.247  12.736  0.00  0.00    +0.000 A 
ATOM     32  O   UNL     1      43.893   3.119  13.202  0.00  0.00    +0.000 OA
ATOM     33  C   UNL     1      44.808   5.266  12.803  0.00  0.00    +0.000 A 
ATOM     34  H   UNL     1      41.909   3.933  12.007  0.00  0.00    +0.000 HD
ENDBRANCH  21  24
ENDBRANCH  19  20
ENDBRANCH   4  19
TORSDOF 8
ENDMDL
MODEL 7
REMARK VINA RESULT:    -6.366      3.855      9.211
REMARK INTER + INTRA:         -10.478
REMARK INTER:                  -8.877
REMARK INTRA:                  -1.600
REMARK UNBOUND:                -1.134
REMARK  Name = 
REMARK  10 active torsions:
REMARK  status: ('A' for Active; 'I' for Inactive)
REMARK    1  A    between atoms: C_1  and  C_2
REMARK    2  A    between atoms: C_2  and  N_3
REMARK    3  A    between atoms: N_3  and  C_4
REMARK    4  A    between atoms: N_3  and  C_25
REMARK    5  A    between atoms: C_4  and  C_5
REMARK    6  A    between atoms: C_8  and  C_9
REMARK    7  A    between atoms: C_9  and  N_10
REMARK    8  A    between atoms: C_11  and  C_13
REMARK    9  A    between atoms: C_25  and  C_26
REMARK   10  A    between atoms: C_25  and  C_27
REMARK                            x       y       z     vdW  Elec       q    Type
REMARK                         _______ _______ _______ _____ _____    ______ ____
ROOT
ATOM      1  C   UNL     1      50.038   8.046  15.454  0.00  0.00    +0.000 A 
ATOM      2  C   UNL     1      49.027   7.083  15.410  0.00  0.00    +0.000 A 
ATOM      3  C   UNL     1      48.287   6.897  14.246  0.00  0.00    +0.000 A 
ATOM      4  C   UNL     1      48.492   7.764  13.180  0.00  0.00    +0.000 A 
ATOM      5  N   UNL     1      49.436   8.738  13.207  0.00  0.00    +0.000 NA
ATOM      6  C   UNL     1      50.186   8.844  14.328  0.00  0.00    +0.000 A 
ENDROOT
BRANCH   1   7
ATOM      7  C   UNL     1      50.926   8.192  16.663  0.00  0.00    +0.000 C 
BRANCH   7   8
ATOM      8  N   UNL     1      50.401   7.741  17.960  0.00  0.00    +0.000 NA
BRANCH   8  10
ATOM      9  C   UNL     1      50.480  10.211  18.542  0.00  0.00    +0.000 C 
ATOM     10  C   UNL     1      50.018   8.799  18.903  0.00  0.00    +0.000 C 
ENDBRANCH   8  10
BRANCH   8  11
ATOM     11  C   UNL     1      51.140   6.612  18.598  0.00  0.00    +0.000 C 
ATOM     12  C   UNL     1      51.238   6.604  20.139  0.00  0.00    +0.000 C 
BRANCH  11  13
ATOM     13  C   UNL     1      50.558   5.239  18.210  0.00  0.00    +0.000 A 
ATOM     14  C   UNL     1      51.375   4.206  17.747  0.00  0.00    +0.000 A 
ATOM     15  C   UNL     1      50.786   2.989  17.434  0.00  0.00    +0.000 A 
ATOM     16  C   UNL     1      49.412   2.825  17.562  0.00  0.00    +0.000 A 
ATOM     17  C   UNL     1      48.672   3.891  18.032  0.00  0.00    +0.000 A 
ATOM     18  N   UNL     1      49.212   5.082  18.349  0.00  0.00    +0.000 NA
ENDBRANCH  11  13
ENDBRANCH   8  11
ENDBRANCH   7   8
ENDBRANCH   1   7
BRANCH   4  19
ATOM     19  C   UNL     1      47.614   7.681  11.960  0.00  0.00    +0.000 C 
BRANCH  19  20
ATOM     20  N   UNL     1      46.890   6.439  11.862  0.00  0.00    +0.000 N 
ATOM     21  C   UNL     1      45.525   6.381  11.861  0.00  0.00    +0.000 C 
ATOM     22  O   UNL     1      44.829   7.378  12.031  0.00  0.00    +0.000 OA
ATOM     23  H   UNL     1      47.445   5.591  11.936  0.00  0.00    +0.000 HD
BRANCH  21  24
ATOM     24  C   UNL     1      44.927   5.074  11.555  0.00  0.00    +0.000 A 
ATOM     25  C   UNL     1      44.187   4.417  12.529  0.00  0.00    +0.000 A 
ATOM     26  S   UNL     1      43.510   2.944  11.998  0.00  0.00    +0.000 S 
ATOM     27  C   UNL     1      44.220   3.110  10.461  0.00  0.00    +0.000 A 
ATOM     28  N   UNL     1      44.047   2.156   9.508  0.00  0.00    +0.000 NA
ATOM     29  C   UNL     1      44.666   2.391   8.399  0.00  0.00    +0.000 A 
ATOM     30  N   UNL     1      45.435   3.499   8.155  0.00  0.00    +0.000 N 
ATOM     31  C   UNL     1      45.590   4.516   9.068  0.00  0.00    +0.000 A 
ATOM     32  O   UNL     1      46.203   5.538   8.780  0.00  0.00    +0.000 OA
ATOM     33  C   UNL     1      44.945   4.283  10.346  0.00  0.00    +0.000 A 
ATOM     34  H   UNL     1      45.880   3.637   7.260  0.00  0.00    +0.000 HD
ENDBRANCH  21  24
ENDBRANCH  19  20
ENDBRANCH   4  19
TORSDOF 8
ENDMDL
MODEL 8
REMARK VINA RESULT:    -6.167      1.882      3.394
REMARK INTER + INTRA:         -10.186
REMARK INTER:                  -8.793
REMARK INTRA:                  -1.394
REMARK UNBOUND:                -1.134
REMARK  Name = 
REMARK  10 active torsions:
REMARK  status: ('A' for Active; 'I' for Inactive)
REMARK    1  A    between atoms: C_1  and  C_2
REMARK    2  A    between atoms: C_2  and  N_3
REMARK    3  A    between atoms: N_3  and  C_4
REMARK    4  A    between atoms: N_3  and  C_25
REMARK    5  A    between atoms: C_4  and  C_5
REMARK    6  A    between atoms: C_8  and  C_9
REMARK    7  A    between atoms: C_9  and  N_10
REMARK    8  A    between atoms: C_11  and  C_13
REMARK    9  A    between atoms: C_25  and  C_26
REMARK   10  A    between atoms: C_25  and  C_27
REMARK                            x       y       z     vdW  Elec       q    Type
REMARK                         _______ _______ _______ _____ _____    ______ ____
ROOT
ATOM      1  C   UNL     1      47.146   4.949  13.834  0.00  0.00    +0.000 A 
ATOM      2  C   UNL     1      47.467   5.694  14.971  0.00  0.00    +0.000 A 
ATOM      3  C   UNL     1      47.873   5.052  16.138  0.00  0.00    +0.000 A 
ATOM      4  C   UNL     1      47.833   3.664  16.182  0.00  0.00    +0.000 A 
ATOM      5  N   UNL     1      47.483   2.912  15.110  0.00  0.00    +0.000 NA
ATOM      6  C   UNL     1      47.164   3.567  13.970  0.00  0.00    +0.000 A 
ENDROOT
BRANCH   1   7
ATOM      7  C   UNL     1      46.811   5.622  12.528  0.00  0.00    +0.000 C 
BRANCH   7   8
ATOM      8  N   UNL     1      45.773   6.662  12.536  0.00  0.00    +0.000 NA
BRANCH   8  10
ATOM      9  C   UNL     1      43.584   5.435  12.919  0.00  0.00    +0.000 C 
ATOM     10  C   UNL     1      44.465   6.272  11.994  0.00  0.00    +0.000 C 
ENDBRANCH   8  10
BRANCH   8  11
ATOM     11  C   UNL     1      46.216   8.021  12.106  0.00  0.00    +0.000 C 
ATOM     12  C   UNL     1      45.467   9.236  12.695  0.00  0.00    +0.000 C 
BRANCH  11  13
ATOM     13  C   UNL     1      47.708   8.270  12.399  0.00  0.00    +0.000 A 
ATOM     14  C   UNL     1      48.704   7.848  11.515  0.00  0.00    +0.000 A 
ATOM     15  C   UNL     1      50.027   8.123  11.832  0.00  0.00    +0.000 A 
ATOM     16  C   UNL     1      50.338   8.781  13.016  0.00  0.00    +0.000 A 
ATOM     17  C   UNL     1      49.299   9.170  13.835  0.00  0.00    +0.000 A 
ATOM     18  N   UNL     1      48.006   8.925  13.555  0.00  0.00    +0.000 NA
ENDBRANCH  11  13
ENDBRANCH   8  11
ENDBRANCH   7   8
ENDBRANCH   1   7
BRANCH   4  19
ATOM     19  C   UNL     1      48.130   2.942  17.470  0.00  0.00    +0.000 C 
BRANCH  19  20
ATOM     20  N   UNL     1      49.508   3.046  17.877  0.00  0.00    +0.000 N 
ATOM     21  C   UNL     1      50.507   2.322  17.287  0.00  0.00    +0.000 C 
ATOM     22  O   UNL     1      50.279   1.473  16.430  0.00  0.00    +0.000 OA
ATOM     23  H   UNL     1      49.686   3.581  18.722  0.00  0.00    +0.000 HD
BRANCH  21  24
ATOM     24  C   UNL     1      51.881   2.677  17.667  0.00  0.00    +0.000 A 
ATOM     25  C   UNL     1      52.737   1.689  18.134  0.00  0.00    +0.000 A 
ATOM     26  S   UNL     1      54.312   2.250  18.473  0.00  0.00    +0.000 S 
ATOM     27  C   UNL     1      53.894   3.843  18.050  0.00  0.00    +0.000 A 
ATOM     28  N   UNL     1      54.805   4.849  18.135  0.00  0.00    +0.000 NA
ATOM     29  C   UNL     1      54.346   6.013  17.816  0.00  0.00    +0.000 A 
ATOM     30  N   UNL     1      53.061   6.260  17.409  0.00  0.00    +0.000 N 
ATOM     31  C   UNL     1      52.123   5.267  17.252  0.00  0.00    +0.000 A 
ATOM     32  O   UNL     1      51.014   5.510  16.792  0.00  0.00    +0.000 OA
ATOM     33  C   UNL     1      52.577   3.943  17.634  0.00  0.00    +0.000 A 
ATOM     34  H   UNL     1      52.766   7.191  17.154  0.00  0.00    +0.000 HD
ENDBRANCH  21  24
ENDBRANCH  19  20
ENDBRANCH   4  19
TORSDOF 8
ENDMDL
MODEL 9
REMARK VINA RESULT:    -5.721      1.985      3.493
REMARK INTER + INTRA:          -9.532
REMARK INTER:                  -9.639
REMARK INTRA:                   0.108
REMARK UNBOUND:                -1.134
REMARK  Name = 
REMARK  10 active torsions:
REMARK  status: ('A' for Active; 'I' for Inactive)
REMARK    1  A    between atoms: C_1  and  C_2
REMARK    2  A    between atoms: C_2  and  N_3
REMARK    3  A    between atoms: N_3  and  C_4
REMARK    4  A    between atoms: N_3  and  C_25
REMARK    5  A    between atoms: C_4  and  C_5
REMARK    6  A    between atoms: C_8  and  C_9
REMARK    7  A    between atoms: C_9  and  N_10
REMARK    8  A    between atoms: C_11  and  C_13
REMARK    9  A    between atoms: C_25  and  C_26
REMARK   10  A    between atoms: C_25  and  C_27
REMARK                            x       y       z     vdW  Elec       q    Type
REMARK                         _______ _______ _______ _____ _____    ______ ____
ROOT
ATOM      1  C   UNL     1      45.967   4.134  12.590  0.00  0.00    +0.000 A 
ATOM      2  C   UNL     1      45.636   5.490  12.646  0.00  0.00    +0.000 A 
ATOM      3  C   UNL     1      46.373   6.358  13.447  0.00  0.00    +0.000 A 
ATOM      4  C   UNL     1      47.357   5.830  14.273  0.00  0.00    +0.000 A 
ATOM      5  N   UNL     1      47.673   4.511  14.275  0.00  0.00    +0.000 NA
ATOM      6  C   UNL     1      46.985   3.707  13.433  0.00  0.00    +0.000 A 
ENDROOT
BRANCH   1   7
ATOM      7  C   UNL     1      45.257   3.195  11.650  0.00  0.00    +0.000 C 
BRANCH   7   8
ATOM      8  N   UNL     1      45.493   3.356  10.208  0.00  0.00    +0.000 NA
BRANCH   8  10
ATOM      9  C   UNL     1      45.718   5.751   9.397  0.00  0.00    +0.000 C 
ATOM     10  C   UNL     1      44.844   4.510   9.573  0.00  0.00    +0.000 C 
ENDBRANCH   8  10
BRANCH   8  11
ATOM     11  C   UNL     1      45.414   2.106   9.397  0.00  0.00    +0.000 C 
ATOM     12  C   UNL     1      44.009   1.569   9.048  0.00  0.00    +0.000 C 
BRANCH  11  13
ATOM     13  C   UNL     1      46.157   2.232   8.053  0.00  0.00    +0.000 A 
ATOM     14  C   UNL     1      47.099   1.283   7.650  0.00  0.00    +0.000 A 
ATOM     15  C   UNL     1      47.717   1.449   6.418  0.00  0.00    +0.000 A 
ATOM     16  C   UNL     1      47.411   2.550   5.627  0.00  0.00    +0.000 A 
ATOM     17  C   UNL     1      46.466   3.441   6.092  0.00  0.00    +0.000 A 
ATOM     18  N   UNL     1      45.845   3.308   7.278  0.00  0.00    +0.000 NA
ENDBRANCH  11  13
ENDBRANCH   8  11
ENDBRANCH   7   8
ENDBRANCH   1   7
BRANCH   4  19
ATOM     19  C   UNL     1      48.077   6.718  15.252  0.00  0.00    +0.000 C 
BRANCH  19  20
ATOM     20  N   UNL     1      49.271   6.119  15.792  0.00  0.00    +0.000 N 
ATOM     21  C   UNL     1      49.396   5.787  17.112  0.00  0.00    +0.000 C 
ATOM     22  O   UNL     1      48.530   6.058  17.939  0.00  0.00    +0.000 OA
ATOM     23  H   UNL     1      50.074   6.084  15.171  0.00  0.00    +0.000 HD
BRANCH  21  24
ATOM     24  C   UNL     1      50.586   5.005  17.479  0.00  0.00    +0.000 A 
ATOM     25  C   UNL     1      51.710   5.660  17.962  0.00  0.00    +0.000 A 
ATOM     26  S   UNL     1      52.980   4.609  18.400  0.00  0.00    +0.000 S 
ATOM     27  C   UNL     1      52.089   3.244  17.916  0.00  0.00    +0.000 A 
ATOM     28  N   UNL     1      52.620   1.995  18.011  0.00  0.00    +0.000 NA
ATOM     29  C   UNL     1      51.849   1.053  17.579  0.00  0.00    +0.000 A 
ATOM     30  N   UNL     1      50.591   1.247  17.070  0.00  0.00    +0.000 N 
ATOM     31  C   UNL     1      49.992   2.482  17.010  0.00  0.00    +0.000 A 
ATOM     32  O   UNL     1      48.829   2.606  16.642  0.00  0.00    +0.000 OA
ATOM     33  C   UNL     1      50.830   3.582  17.448  0.00  0.00    +0.000 A 
ATOM     34  H   UNL     1      50.028   0.467  16.766  0.00  0.00    +0.000 HD
ENDBRANCH  21  24
ENDBRANCH  19  20
ENDBRANCH   4  19
TORSDOF 8
ENDMDL
