MODEL 1
REMARK VINA RESULT:    -8.138      0.000      0.000
REMARK INTER + INTRA:         -12.105
REMARK INTER:                 -11.230
REMARK INTRA:                  -0.875
REMARK UNBOUND:                -0.875
REMARK  Name = 
REMARK  7 active torsions:
REMARK  status: ('A' for Active; 'I' for Inactive)
REMARK    1  A    between atoms: N_1  and  C_2
REMARK    2  A    between atoms: C_2  and  C_3
REMARK    3  A    between atoms: C_6  and  O_7
REMARK    4  A    between atoms: O_7  and  C_8
REMARK    5  A    between atoms: C_8  and  C_9
REMARK    6  A    between atoms: C_9  and  C_12
REMARK    7  A    between atoms: C_15  and  C_16
REMARK                            x       y       z     vdW  Elec       q    Type
REMARK                         _______ _______ _______ _____ _____    ______ ____
ROOT
ATOM      1  C   UNL     1      43.513   5.103  12.140  0.00  0.00    +0.000 C 
ATOM      2  F   UNL     1      42.786   6.149  11.642  0.00  0.00    +0.000 F 
ATOM      3  F   UNL     1      42.860   4.756  13.297  0.00  0.00    +0.000 F 
ENDROOT
BRANCH   1   4
ATOM      4  C   UNL     1      44.953   5.486  12.428  0.00  0.00    +0.000 A 
ATOM      5  C   UNL     1      45.540   6.594  11.803  0.00  0.00    +0.000 A 
ATOM      6  C   UNL     1      46.846   6.978  12.120  0.00  0.00    +0.000 A 
ATOM      7  C   UNL     1      47.583   6.263  13.072  0.00  0.00    +0.000 A 
ATOM      8  C   UNL     1      47.018   5.133  13.674  0.00  0.00    +0.000 A 
ATOM      9  C   UNL     1      45.713   4.749  13.351  0.00  0.00    +0.000 A 
BRANCH   7  10
ATOM     10  C   UNL     1      48.955   6.737  13.400  0.00  0.00    +0.000 C 
ATOM     11  N   UNL     1      49.769   7.088  12.358  0.00  0.00    +0.000 N 
ATOM     12  O   UNL     1      49.362   6.773  14.552  0.00  0.00    +0.000 OA
ATOM     13  H   UNL     1      49.559   6.878  11.395  0.00  0.00    +0.000 HD
ATOM     14  H   UNL     1      50.731   7.294  12.597  0.00  0.00    +0.000 HD
ENDBRANCH   7  10
ENDBRANCH   1   4
BRANCH   1  15
ATOM     15  C   UNL     1      43.372   3.910  11.188  0.00  0.00    +0.000 C 
BRANCH  15  16
ATOM     16  O   UNL     1      43.581   4.273   9.818  0.00  0.00    +0.000 OA
BRANCH  16  20
ATOM     17  C   UNL     1      46.562   2.265   7.674  0.00  0.00    +0.000 A 
ATOM     18  C   UNL     1      45.709   1.528   8.502  0.00  0.00    +0.000 A 
ATOM     19  C   UNL     1      44.694   2.160   9.228  0.00  0.00    +0.000 A 
ATOM     20  C   UNL     1      44.523   3.542   9.143  0.00  0.00    +0.000 A 
ATOM     21  C   UNL     1      45.365   4.281   8.313  0.00  0.00    +0.000 A 
ATOM     22  C   UNL     1      46.379   3.651   7.582  0.00  0.00    +0.000 A 
BRANCH  17  23
ATOM     23  C   UNL     1      47.676   1.577   6.926  0.00  0.00    +0.000 C 
BRANCH  23  24
ATOM     24  N   UNL     1      48.606   2.539   6.346  0.00  0.00    +0.000 NA
ATOM     25  H   UNL     1      49.557   2.193   6.462  0.00  0.00    +0.000 HD
ATOM     26  H   UNL     1      48.549   3.409   6.876  0.00  0.00    +0.000 HD
ENDBRANCH  23  24
ENDBRANCH  17  23
ENDBRANCH  16  20
ENDBRANCH  15  16
ENDBRANCH   1  15
TORSDOF 7
ENDMDL
MODEL 2
REMARK VINA RESULT:    -7.766      1.905      6.203
REMARK INTER + INTRA:         -11.591
REMARK INTER:                 -10.728
REMARK INTRA:                  -0.863
REMARK UNBOUND:                -0.875
REMARK  Name = 
REMARK  7 active torsions:
REMARK  status: ('A' for Active; 'I' for Inactive)
REMARK    1  A    between atoms: N_1  and  C_2
REMARK    2  A    between atoms: C_2  and  C_3
REMARK    3  A    between atoms: C_6  and  O_7
REMARK    4  A    between atoms: O_7  and  C_8
REMARK    5  A    between atoms: C_8  and  C_9
REMARK    6  A    between atoms: C_9  and  C_12
REMARK    7  A    between atoms: C_15  and  C_16
REMARK                            x       y       z     vdW  Elec       q    Type
REMARK                         _______ _______ _______ _____ _____    ______ ____
ROOT
ATOM      1  C   UNL     1      44.022   3.257  10.864  0.00  0.00    +0.000 C 
ATOM      2  F   UNL     1      43.237   2.164  11.105  0.00  0.00    +0.000 F 
ATOM      3  F   UNL     1      43.131   4.295  10.742  0.00  0.00    +0.000 F 
ENDROOT
BRANCH   1   4
ATOM      4  C   UNL     1      44.849   3.106   9.601  0.00  0.00    +0.000 A 
ATOM      5  C   UNL     1      45.273   4.232   8.882  0.00  0.00    +0.000 A 
ATOM      6  C   UNL     1      46.087   4.087   7.755  0.00  0.00    +0.000 A 
ATOM      7  C   UNL     1      46.495   2.816   7.333  0.00  0.00    +0.000 A 
ATOM      8  C   UNL     1      46.046   1.685   8.023  0.00  0.00    +0.000 A 
ATOM      9  C   UNL     1      45.228   1.831   9.147  0.00  0.00    +0.000 A 
BRANCH   7  10
ATOM     10  C   UNL     1      47.392   2.723   6.149  0.00  0.00    +0.000 C 
ATOM     11  N   UNL     1      48.711   2.439   6.374  0.00  0.00    +0.000 N 
ATOM     12  O   UNL     1      46.983   2.935   5.017  0.00  0.00    +0.000 OA
ATOM     13  H   UNL     1      49.136   2.466   7.288  0.00  0.00    +0.000 HD
ATOM     14  H   UNL     1      49.322   2.497   5.569  0.00  0.00    +0.000 HD
ENDBRANCH   7  10
ENDBRANCH   1   4
BRANCH   1  15
ATOM     15  C   UNL     1      44.858   3.548  12.116  0.00  0.00    +0.000 C 
BRANCH  15  16
ATOM     16  O   UNL     1      44.734   4.905  12.555  0.00  0.00    +0.000 OA
BRANCH  16  20
ATOM     17  C   UNL     1      48.346   6.988  12.925  0.00  0.00    +0.000 A 
ATOM     18  C   UNL     1      47.604   7.120  11.745  0.00  0.00    +0.000 A 
ATOM     19  C   UNL     1      46.387   6.448  11.586  0.00  0.00    +0.000 A 
ATOM     20  C   UNL     1      45.898   5.626  12.602  0.00  0.00    +0.000 A 
ATOM     21  C   UNL     1      46.629   5.498  13.783  0.00  0.00    +0.000 A 
ATOM     22  C   UNL     1      47.845   6.172  13.947  0.00  0.00    +0.000 A 
BRANCH  17  23
ATOM     23  C   UNL     1      49.673   7.688  13.069  0.00  0.00    +0.000 C 
BRANCH  23  24
ATOM     24  N   UNL     1      50.413   7.200  14.228  0.00  0.00    +0.000 NA
ATOM     25  H   UNL     1      51.235   7.785  14.367  0.00  0.00    +0.000 HD
ATOM     26  H   UNL     1      50.756   6.262  14.025  0.00  0.00    +0.000 HD
ENDBRANCH  23  24
ENDBRANCH  17  23
ENDBRANCH  16  20
ENDBRANCH  15  16
ENDBRANCH   1  15
TORSDOF 7
ENDMDL
MODEL 3
REMARK VINA RESULT:    -7.583      2.192      6.242
REMARK INTER + INTRA:         -11.339
REMARK INTER:                 -10.464
REMARK INTRA:                  -0.874
REMARK UNBOUND:                -0.875
REMARK  Name = 
REMARK  7 active torsions:
REMARK  status: ('A' for Active; 'I' for Inactive)
REMARK    1  A    between atoms: N_1  and  C_2
REMARK    2  A    between atoms: C_2  and  C_3
REMARK    3  A    between atoms: C_6  and  O_7
REMARK    4  A    between atoms: O_7  and  C_8
REMARK    5  A    between atoms: C_8  and  C_9
REMARK    6  A    between atoms: C_9  and  C_12
REMARK    7  A    between atoms: C_15  and  C_16
REMARK                            x       y       z     vdW  Elec       q    Type
REMARK                         _______ _______ _______ _____ _____    ______ ____
ROOT
ATOM      1  C   UNL     1      43.969   4.061  10.771  0.00  0.00    +0.000 C 
ATOM      2  F   UNL     1      43.014   3.141  11.104  0.00  0.00    +0.000 F 
ATOM      3  F   UNL     1      43.256   5.185  10.432  0.00  0.00    +0.000 F 
ENDROOT
BRANCH   1   4
ATOM      4  C   UNL     1      44.833   3.602   9.611  0.00  0.00    +0.000 A 
ATOM      5  C   UNL     1      45.451   4.532   8.764  0.00  0.00    +0.000 A 
ATOM      6  C   UNL     1      46.296   4.103   7.737  0.00  0.00    +0.000 A 
ATOM      7  C   UNL     1      46.540   2.738   7.544  0.00  0.00    +0.000 A 
ATOM      8  C   UNL     1      45.899   1.801   8.361  0.00  0.00    +0.000 A 
ATOM      9  C   UNL     1      45.051   2.232   9.385  0.00  0.00    +0.000 A 
BRANCH   7  10
ATOM     10  C   UNL     1      47.478   2.339   6.458  0.00  0.00    +0.000 C 
ATOM     11  N   UNL     1      47.355   2.971   5.251  0.00  0.00    +0.000 N 
ATOM     12  O   UNL     1      48.302   1.450   6.618  0.00  0.00    +0.000 OA
ATOM     13  H   UNL     1      46.567   3.549   5.006  0.00  0.00    +0.000 HD
ATOM     14  H   UNL     1      47.922   2.602   4.498  0.00  0.00    +0.000 HD
ENDBRANCH   7  10
ENDBRANCH   1   4
BRANCH   1  15
ATOM     15  C   UNL     1      44.768   4.418  12.030  0.00  0.00    +0.000 C 
BRANCH  15  16
ATOM     16  O   UNL     1      44.521   5.756  12.475  0.00  0.00    +0.000 OA
BRANCH  16  20
ATOM     17  C   UNL     1      47.574   8.607  12.206  0.00  0.00    +0.000 A 
ATOM     18  C   UNL     1      47.818   7.307  11.751  0.00  0.00    +0.000 A 
ATOM     19  C   UNL     1      46.821   6.327  11.813  0.00  0.00    +0.000 A 
ATOM     20  C   UNL     1      45.566   6.632  12.343  0.00  0.00    +0.000 A 
ATOM     21  C   UNL     1      45.315   7.928  12.792  0.00  0.00    +0.000 A 
ATOM     22  C   UNL     1      46.309   8.912  12.726  0.00  0.00    +0.000 A 
BRANCH  17  23
ATOM     23  C   UNL     1      48.668   9.643  12.167  0.00  0.00    +0.000 C 
BRANCH  23  24
ATOM     24  N   UNL     1      48.473  10.587  11.073  0.00  0.00    +0.000 NA
ATOM     25  H   UNL     1      47.924  11.376  11.408  0.00  0.00    +0.000 HD
ATOM     26  H   UNL     1      47.917  10.135  10.347  0.00  0.00    +0.000 HD
ENDBRANCH  23  24
ENDBRANCH  17  23
ENDBRANCH  16  20
ENDBRANCH  15  16
ENDBRANCH   1  15
TORSDOF 7
ENDMDL
MODEL 4
REMARK VINA RESULT:    -7.257      1.787      6.005
REMARK INTER + INTRA:         -10.890
REMARK INTER:                  -9.868
REMARK INTRA:                  -1.022
REMARK UNBOUND:                -0.875
REMARK  Name = 
REMARK  7 active torsions:
REMARK  status: ('A' for Active; 'I' for Inactive)
REMARK    1  A    between atoms: N_1  and  C_2
REMARK    2  A    between atoms: C_2  and  C_3
REMARK    3  A    between atoms: C_6  and  O_7
REMARK    4  A    between atoms: O_7  and  C_8
REMARK    5  A    between atoms: C_8  and  C_9
REMARK    6  A    between atoms: C_9  and  C_12
REMARK    7  A    between atoms: C_15  and  C_16
REMARK                            x       y       z     vdW  Elec       q    Type
REMARK                         _______ _______ _______ _____ _____    ______ ____
ROOT
ATOM      1  C   UNL     1      43.949   3.845  11.172  0.00  0.00    +0.000 C 
ATOM      2  F   UNL     1      44.444   3.260  12.305  0.00  0.00    +0.000 F 
ATOM      3  F   UNL     1      42.705   3.285  11.017  0.00  0.00    +0.000 F 
ENDROOT
BRANCH   1   4
ATOM      4  C   UNL     1      44.816   3.575   9.957  0.00  0.00    +0.000 A 
ATOM      5  C   UNL     1      45.071   2.264   9.533  0.00  0.00    +0.000 A 
ATOM      6  C   UNL     1      45.818   2.025   8.376  0.00  0.00    +0.000 A 
ATOM      7  C   UNL     1      46.317   3.094   7.622  0.00  0.00    +0.000 A 
ATOM      8  C   UNL     1      46.099   4.406   8.057  0.00  0.00    +0.000 A 
ATOM      9  C   UNL     1      45.355   4.642   9.218  0.00  0.00    +0.000 A 
BRANCH   7  10
ATOM     10  C   UNL     1      47.074   2.783   6.378  0.00  0.00    +0.000 C 
ATOM     11  N   UNL     1      48.387   2.421   6.510  0.00  0.00    +0.000 N 
ATOM     12  O   UNL     1      46.561   2.888   5.274  0.00  0.00    +0.000 OA
ATOM     13  H   UNL     1      48.907   2.525   7.366  0.00  0.00    +0.000 HD
ATOM     14  H   UNL     1      48.910   2.330   5.648  0.00  0.00    +0.000 HD
ENDBRANCH   7  10
ENDBRANCH   1   4
BRANCH   1  15
ATOM     15  C   UNL     1      43.723   5.336  11.448  0.00  0.00    +0.000 C 
BRANCH  15  16
ATOM     16  O   UNL     1      44.267   5.750  12.706  0.00  0.00    +0.000 OA
BRANCH  16  20
ATOM     17  C   UNL     1      48.263   6.985  12.560  0.00  0.00    +0.000 A 
ATOM     18  C   UNL     1      47.924   5.874  13.342  0.00  0.00    +0.000 A 
ATOM     19  C   UNL     1      46.601   5.423  13.409  0.00  0.00    +0.000 A 
ATOM     20  C   UNL     1      45.595   6.084  12.702  0.00  0.00    +0.000 A 
ATOM     21  C   UNL     1      45.929   7.186  11.917  0.00  0.00    +0.000 A 
ATOM     22  C   UNL     1      47.252   7.637  11.843  0.00  0.00    +0.000 A 
BRANCH  17  23
ATOM     23  C   UNL     1      49.685   7.482  12.525  0.00  0.00    +0.000 C 
BRANCH  23  24
ATOM     24  N   UNL     1      50.307   7.422  13.843  0.00  0.00    +0.000 NA
ATOM     25  H   UNL     1      49.589   7.536  14.555  0.00  0.00    +0.000 HD
ATOM     26  H   UNL     1      50.940   8.215  13.942  0.00  0.00    +0.000 HD
ENDBRANCH  23  24
ENDBRANCH  17  23
ENDBRANCH  16  20
ENDBRANCH  15  16
ENDBRANCH   1  15
TORSDOF 7
ENDMDL
MODEL 5
REMARK VINA RESULT:    -6.755      1.850      2.335
REMARK INTER + INTRA:         -10.196
REMARK INTER:                  -9.523
REMARK INTRA:                  -0.673
REMARK UNBOUND:                -0.875
REMARK  Name = 
REMARK  7 active torsions:
REMARK  status: ('A' for Active; 'I' for Inactive)
REMARK    1  A    between atoms: N_1  and  C_2
REMARK    2  A    between atoms: C_2  and  C_3
REMARK    3  A    between atoms: C_6  and  O_7
REMARK    4  A    between atoms: O_7  and  C_8
REMARK    5  A    between atoms: C_8  and  C_9
REMARK    6  A    between atoms: C_9  and  C_12
REMARK    7  A    between atoms: C_15  and  C_16
REMARK                            x       y       z     vdW  Elec       q    Type
REMARK                         _______ _______ _______ _____ _____    ______ ____
ROOT
ATOM      1  C   UNL     1      44.772   6.495  11.412  0.00  0.00    +0.000 C 
ATOM      2  F   UNL     1      44.876   7.858  11.385  0.00  0.00    +0.000 F 
ATOM      3  F   UNL     1      43.426   6.260  11.545  0.00  0.00    +0.000 F 
ENDROOT
BRANCH   1   4
ATOM      4  C   UNL     1      45.543   5.880  12.566  0.00  0.00    +0.000 A 
ATOM      5  C   UNL     1      45.099   4.700  13.177  0.00  0.00    +0.000 A 
ATOM      6  C   UNL     1      45.848   4.106  14.197  0.00  0.00    +0.000 A 
ATOM      7  C   UNL     1      47.054   4.679  14.617  0.00  0.00    +0.000 A 
ATOM      8  C   UNL     1      47.486   5.877  14.037  0.00  0.00    +0.000 A 
ATOM      9  C   UNL     1      46.733   6.472  13.021  0.00  0.00    +0.000 A 
BRANCH   7  10
ATOM     10  C   UNL     1      47.830   3.983  15.680  0.00  0.00    +0.000 C 
ATOM     11  N   UNL     1      48.115   4.686  16.819  0.00  0.00    +0.000 N 
ATOM     12  O   UNL     1      48.239   2.841  15.531  0.00  0.00    +0.000 OA
ATOM     13  H   UNL     1      47.987   5.682  16.901  0.00  0.00    +0.000 HD
ATOM     14  H   UNL     1      48.740   4.234  17.474  0.00  0.00    +0.000 HD
ENDBRANCH   7  10
ENDBRANCH   1   4
BRANCH   1  15
ATOM     15  C   UNL     1      45.175   5.943  10.040  0.00  0.00    +0.000 C 
BRANCH  15  16
ATOM     16  O   UNL     1      44.459   4.752   9.696  0.00  0.00    +0.000 OA
BRANCH  16  20
ATOM     17  C   UNL     1      46.742   2.084   7.418  0.00  0.00    +0.000 A 
ATOM     18  C   UNL     1      45.884   1.576   8.400  0.00  0.00    +0.000 A 
ATOM     19  C   UNL     1      45.096   2.434   9.176  0.00  0.00    +0.000 A 
ATOM     20  C   UNL     1      45.163   3.815   8.987  0.00  0.00    +0.000 A 
ATOM     21  C   UNL     1      46.011   4.326   8.005  0.00  0.00    +0.000 A 
ATOM     22  C   UNL     1      46.796   3.470   7.224  0.00  0.00    +0.000 A 
BRANCH  17  23
ATOM     23  C   UNL     1      47.612   1.152   6.615  0.00  0.00    +0.000 C 
BRANCH  23  24
ATOM     24  N   UNL     1      48.410   1.877   5.632  0.00  0.00    +0.000 NA
ATOM     25  H   UNL     1      48.118   2.852   5.621  0.00  0.00    +0.000 HD
ATOM     26  H   UNL     1      48.205   1.503   4.706  0.00  0.00    +0.000 HD
ENDBRANCH  23  24
ENDBRANCH  17  23
ENDBRANCH  16  20
ENDBRANCH  15  16
ENDBRANCH   1  15
TORSDOF 7
ENDMDL
MODEL 6
REMARK VINA RESULT:    -6.070      5.020      6.729
REMARK INTER + INTRA:          -9.251
REMARK INTER:                  -8.634
REMARK INTRA:                  -0.617
REMARK UNBOUND:                -0.875
REMARK  Name = 
REMARK  7 active torsions:
REMARK  status: ('A' for Active; 'I' for Inactive)
REMARK    1  A    between atoms: N_1  and  C_2
REMARK    2  A    between atoms: C_2  and  C_3
REMARK    3  A    between atoms: C_6  and  O_7
REMARK    4  A    between atoms: O_7  and  C_8
REMARK    5  A    between atoms: C_8  and  C_9
REMARK    6  A    between atoms: C_9  and  C_12
REMARK    7  A    between atoms: C_15  and  C_16
REMARK                            x       y       z     vdW  Elec       q    Type
REMARK                         _______ _______ _______ _____ _____    ______ ____
ROOT
ATOM      1  C   UNL     1      47.704   4.063  17.002  0.00  0.00    +0.000 C 
ATOM      2  F   UNL     1      47.235   4.891  17.984  0.00  0.00    +0.000 F 
ATOM      3  F   UNL     1      46.800   3.029  16.969  0.00  0.00    +0.000 F 
ENDROOT
BRANCH   1   4
ATOM      4  C   UNL     1      49.100   3.548  17.298  0.00  0.00    +0.000 A 
ATOM      5  C   UNL     1      49.466   2.236  16.970  0.00  0.00    +0.000 A 
ATOM      6  C   UNL     1      50.772   1.789  17.188  0.00  0.00    +0.000 A 
ATOM      7  C   UNL     1      51.734   2.648  17.732  0.00  0.00    +0.000 A 
ATOM      8  C   UNL     1      51.368   3.949  18.097  0.00  0.00    +0.000 A 
ATOM      9  C   UNL     1      50.059   4.392  17.882  0.00  0.00    +0.000 A 
BRANCH   7  10
ATOM     10  C   UNL     1      53.119   2.132  17.908  0.00  0.00    +0.000 C 
ATOM     11  N   UNL     1      53.267   0.897  18.479  0.00  0.00    +0.000 N 
ATOM     12  O   UNL     1      54.095   2.798  17.597  0.00  0.00    +0.000 OA
ATOM     13  H   UNL     1      52.517   0.407  18.940  0.00  0.00    +0.000 HD
ATOM     14  H   UNL     1      54.216   0.620  18.695  0.00  0.00    +0.000 HD
ENDBRANCH   7  10
ENDBRANCH   1   4
BRANCH   1  15
ATOM     15  C   UNL     1      47.587   4.783  15.653  0.00  0.00    +0.000 C 
BRANCH  15  16
ATOM     16  O   UNL     1      47.454   3.874  14.556  0.00  0.00    +0.000 OA
BRANCH  16  20
ATOM     17  C   UNL     1      44.340   4.911  11.959  0.00  0.00    +0.000 A 
ATOM     18  C   UNL     1      44.798   3.589  11.975  0.00  0.00    +0.000 A 
ATOM     19  C   UNL     1      45.830   3.199  12.836  0.00  0.00    +0.000 A 
ATOM     20  C   UNL     1      46.426   4.131  13.687  0.00  0.00    +0.000 A 
ATOM     21  C   UNL     1      45.969   5.448  13.680  0.00  0.00    +0.000 A 
ATOM     22  C   UNL     1      44.933   5.840  12.824  0.00  0.00    +0.000 A 
BRANCH  17  23
ATOM     23  C   UNL     1      43.253   5.327  11.001  0.00  0.00    +0.000 C 
BRANCH  23  24
ATOM     24  N   UNL     1      42.146   5.976  11.695  0.00  0.00    +0.000 NA
ATOM     25  H   UNL     1      41.455   6.275  11.010  0.00  0.00    +0.000 HD
ATOM     26  H   UNL     1      42.494   6.823  12.144  0.00  0.00    +0.000 HD
ENDBRANCH  23  24
ENDBRANCH  17  23
ENDBRANCH  16  20
ENDBRANCH  15  16
ENDBRANCH   1  15
TORSDOF 7
ENDMDL
MODEL 7
REMARK VINA RESULT:    -5.905      4.216      8.236
REMARK INTER + INTRA:          -9.024
REMARK INTER:                  -8.363
REMARK INTRA:                  -0.661
REMARK UNBOUND:                -0.875
REMARK  Name = 
REMARK  7 active torsions:
REMARK  status: ('A' for Active; 'I' for Inactive)
REMARK    1  A    between atoms: N_1  and  C_2
REMARK    2  A    between atoms: C_2  and  C_3
REMARK    3  A    between atoms: C_6  and  O_7
REMARK    4  A    between atoms: O_7  and  C_8
REMARK    5  A    between atoms: C_8  and  C_9
REMARK    6  A    between atoms: C_9  and  C_12
REMARK    7  A    between atoms: C_15  and  C_16
REMARK                            x       y       z     vdW  Elec       q    Type
REMARK                         _______ _______ _______ _____ _____    ______ ____
ROOT
ATOM      1  C   UNL     1      48.231   7.115  12.876  0.00  0.00    +0.000 C 
ATOM      2  F   UNL     1      48.118   8.291  12.187  0.00  0.00    +0.000 F 
ATOM      3  F   UNL     1      49.436   6.597  12.469  0.00  0.00    +0.000 F 
ENDROOT
BRANCH   1   4
ATOM      4  C   UNL     1      47.099   6.154  12.565  0.00  0.00    +0.000 A 
ATOM      5  C   UNL     1      46.762   5.128  13.458  0.00  0.00    +0.000 A 
ATOM      6  C   UNL     1      45.678   4.286  13.195  0.00  0.00    +0.000 A 
ATOM      7  C   UNL     1      44.911   4.460  12.037  0.00  0.00    +0.000 A 
ATOM      8  C   UNL     1      45.262   5.458  11.121  0.00  0.00    +0.000 A 
ATOM      9  C   UNL     1      46.350   6.296  11.384  0.00  0.00    +0.000 A 
BRANCH   7  10
ATOM     10  C   UNL     1      43.745   3.559  11.825  0.00  0.00    +0.000 C 
ATOM     11  N   UNL     1      43.742   2.361  12.485  0.00  0.00    +0.000 N 
ATOM     12  O   UNL     1      42.840   3.852  11.056  0.00  0.00    +0.000 OA
ATOM     13  H   UNL     1      44.550   1.985  12.955  0.00  0.00    +0.000 HD
ATOM     14  H   UNL     1      43.000   1.719  12.235  0.00  0.00    +0.000 HD
ENDBRANCH   7  10
ENDBRANCH   1   4
BRANCH   1  15
ATOM     15  C   UNL     1      48.377   7.431  14.369  0.00  0.00    +0.000 C 
BRANCH  15  16
ATOM     16  O   UNL     1      49.347   6.598  15.013  0.00  0.00    +0.000 OA
BRANCH  16  20
ATOM     17  C   UNL     1      48.553   5.644  19.011  0.00  0.00    +0.000 A 
ATOM     18  C   UNL     1      47.996   4.852  18.000  0.00  0.00    +0.000 A 
ATOM     19  C   UNL     1      48.245   5.131  16.652  0.00  0.00    +0.000 A 
ATOM     20  C   UNL     1      49.049   6.215  16.294  0.00  0.00    +0.000 A 
ATOM     21  C   UNL     1      49.611   7.004  17.297  0.00  0.00    +0.000 A 
ATOM     22  C   UNL     1      49.368   6.724  18.647  0.00  0.00    +0.000 A 
BRANCH  17  23
ATOM     23  C   UNL     1      48.246   5.355  20.457  0.00  0.00    +0.000 C 
BRANCH  23  24
ATOM     24  N   UNL     1      48.456   3.948  20.779  0.00  0.00    +0.000 NA
ATOM     25  H   UNL     1      48.314   3.390  19.940  0.00  0.00    +0.000 HD
ATOM     26  H   UNL     1      47.741   3.655  21.445  0.00  0.00    +0.000 HD
ENDBRANCH  23  24
ENDBRANCH  17  23
ENDBRANCH  16  20
ENDBRANCH  15  16
ENDBRANCH   1  15
TORSDOF 7
ENDMDL
MODEL 8
REMARK VINA RESULT:    -5.593      3.491      7.605
REMARK INTER + INTRA:          -8.593
REMARK INTER:                  -7.831
REMARK INTRA:                  -0.762
REMARK UNBOUND:                -0.875
REMARK  Name = 
REMARK  7 active torsions:
REMARK  status: ('A' for Active; 'I' for Inactive)
REMARK    1  A    between atoms: N_1  and  C_2
REMARK    2  A    between atoms: C_2  and  C_3
REMARK    3  A    between atoms: C_6  and  O_7
REMARK    4  A    between atoms: O_7  and  C_8
REMARK    5  A    between atoms: C_8  and  C_9
REMARK    6  A    between atoms: C_9  and  C_12
REMARK    7  A    between atoms: C_15  and  C_16
REMARK                            x       y       z     vdW  Elec       q    Type
REMARK                         _______ _______ _______ _____ _____    ______ ____
ROOT
ATOM      1  C   UNL     1      47.288   7.429  12.766  0.00  0.00    +0.000 C 
ATOM      2  F   UNL     1      46.553   8.198  13.625  0.00  0.00    +0.000 F 
ATOM      3  F   UNL     1      47.613   8.282  11.740  0.00  0.00    +0.000 F 
ENDROOT
BRANCH   1   4
ATOM      4  C   UNL     1      46.507   6.236  12.248  0.00  0.00    +0.000 A 
ATOM      5  C   UNL     1      46.292   5.113  13.057  0.00  0.00    +0.000 A 
ATOM      6  C   UNL     1      45.519   4.044  12.595  0.00  0.00    +0.000 A 
ATOM      7  C   UNL     1      44.944   4.085  11.319  0.00  0.00    +0.000 A 
ATOM      8  C   UNL     1      45.184   5.186  10.490  0.00  0.00    +0.000 A 
ATOM      9  C   UNL     1      45.962   6.252  10.952  0.00  0.00    +0.000 A 
BRANCH   7  10
ATOM     10  C   UNL     1      44.099   2.936  10.892  0.00  0.00    +0.000 C 
ATOM     11  N   UNL     1      44.567   2.148   9.876  0.00  0.00    +0.000 N 
ATOM     12  O   UNL     1      43.005   2.724  11.395  0.00  0.00    +0.000 OA
ATOM     13  H   UNL     1      45.348   2.402   9.293  0.00  0.00    +0.000 HD
ATOM     14  H   UNL     1      43.924   1.448   9.526  0.00  0.00    +0.000 HD
ENDBRANCH   7  10
ENDBRANCH   1   4
BRANCH   1  15
ATOM     15  C   UNL     1      48.607   7.051  13.450  0.00  0.00    +0.000 C 
BRANCH  15  16
ATOM     16  O   UNL     1      48.678   7.518  14.802  0.00  0.00    +0.000 OA
BRANCH  16  20
ATOM     17  C   UNL     1      50.035   4.679  17.561  0.00  0.00    +0.000 A 
ATOM     18  C   UNL     1      50.908   5.688  17.141  0.00  0.00    +0.000 A 
ATOM     19  C   UNL     1      50.491   6.662  16.227  0.00  0.00    +0.000 A 
ATOM     20  C   UNL     1      49.193   6.635  15.713  0.00  0.00    +0.000 A 
ATOM     21  C   UNL     1      48.317   5.636  16.134  0.00  0.00    +0.000 A 
ATOM     22  C   UNL     1      48.730   4.663  17.052  0.00  0.00    +0.000 A 
BRANCH  17  23
ATOM     23  C   UNL     1      50.509   3.615  18.517  0.00  0.00    +0.000 C 
BRANCH  23  24
ATOM     24  N   UNL     1      51.294   2.593  17.835  0.00  0.00    +0.000 NA
ATOM     25  H   UNL     1      51.677   1.951  18.526  0.00  0.00    +0.000 HD
ATOM     26  H   UNL     1      52.092   3.041  17.385  0.00  0.00    +0.000 HD
ENDBRANCH  23  24
ENDBRANCH  17  23
ENDBRANCH  16  20
ENDBRANCH  15  16
ENDBRANCH   1  15
TORSDOF 7
ENDMDL
