MODEL 1
REMARK VINA RESULT:    -8.160      0.000      0.000
REMARK INTER + INTRA:         -12.375
REMARK INTER:                 -11.260
REMARK INTRA:                  -1.115
REMARK UNBOUND:                -1.115
REMARK  Name = 
REMARK  7 active torsions:
REMARK  status: ('A' for Active; 'I' for Inactive)
REMARK    1  A    between atoms: C_2  and  C_20
REMARK    2  A    between atoms: N_3  and  C_4
REMARK    3  A    between atoms: C_4  and  C_5
REMARK    4  A    between atoms: C_8  and  C_9
REMARK    5  A    between atoms: C_9  and  C_10
REMARK    6  A    between atoms: C_10  and  O_11
REMARK    7  A    between atoms: C_10  and  C_12
REMARK                            x       y       z     vdW  Elec       q    Type
REMARK                         _______ _______ _______ _____ _____    ______ ____
ROOT
ATOM      1  C   UNL     1      46.811   7.983  13.272  0.00  0.00    +0.000 C 
ENDROOT
BRANCH   1   2
ATOM      2  C   UNL     1      46.122   7.011  12.352  0.00  0.00    +0.000 A 
ATOM      3  C   UNL     1      46.637   6.759  11.075  0.00  0.00    +0.000 A 
ATOM      4  C   UNL     1      46.030   5.825  10.231  0.00  0.00    +0.000 A 
ATOM      5  C   UNL     1      44.881   5.138  10.642  0.00  0.00    +0.000 A 
ATOM      6  C   UNL     1      44.343   5.416  11.905  0.00  0.00    +0.000 A 
ATOM      7  C   UNL     1      44.951   6.349  12.750  0.00  0.00    +0.000 A 
BRANCH   5   8
ATOM      8  C   UNL     1      44.235   4.102   9.745  0.00  0.00    +0.000 C 
BRANCH   8   9
ATOM      9  C   UNL     1      44.913   2.719   9.816  0.00  0.00    +0.000 C 
BRANCH   9  10
ATOM     10  C   UNL     1      45.691   2.436   8.547  0.00  0.00    +0.000 A 
ATOM     11  C   UNL     1      45.877   3.422   7.582  0.00  0.00    +0.000 A 
ATOM     12  N   UNL     1      46.586   3.216   6.445  0.00  0.00    +0.000 NA
ATOM     13  C   UNL     1      47.124   1.983   6.312  0.00  0.00    +0.000 A 
ATOM     14  C   UNL     1      46.960   0.998   7.270  0.00  0.00    +0.000 A 
ATOM     15  N   UNL     1      46.249   1.198   8.405  0.00  0.00    +0.000 NA
ENDBRANCH   9  10
BRANCH   9  16
ATOM     16  O   UNL     1      43.920   1.696   9.960  0.00  0.00    +0.000 OA
ATOM     17  H   UNL     1      43.321   1.804   9.198  0.00  0.00    +0.000 HD
ENDBRANCH   9  16
ENDBRANCH   8   9
ENDBRANCH   5   8
ENDBRANCH   1   2
BRANCH   1  20
ATOM     18  O   UNL     1      49.407   6.886  13.557  0.00  0.00    +0.000 OA
ATOM     19  C   UNL     1      48.633   6.857  14.509  0.00  0.00    +0.000 C 
ATOM     20  N   UNL     1      47.349   7.326  14.433  0.00  0.00    +0.000 N 
ATOM     21  H   UNL     1      46.810   7.434  15.284  0.00  0.00    +0.000 HD
BRANCH  19  22
ATOM     22  C   UNL     1      49.019   6.258  15.795  0.00  0.00    +0.000 A 
ATOM     23  C   UNL     1      50.052   6.814  16.537  0.00  0.00    +0.000 A 
ATOM     24  S   UNL     1      50.366   5.987  17.997  0.00  0.00    +0.000 S 
ATOM     25  C   UNL     1      49.106   4.880  17.706  0.00  0.00    +0.000 A 
ATOM     26  N   UNL     1      48.810   3.906  18.608  0.00  0.00    +0.000 NA
ATOM     27  C   UNL     1      47.809   3.159  18.276  0.00  0.00    +0.000 A 
ATOM     28  N   UNL     1      47.087   3.288  17.118  0.00  0.00    +0.000 N 
ATOM     29  C   UNL     1      47.405   4.203  16.148  0.00  0.00    +0.000 A 
ATOM     30  O   UNL     1      46.830   4.190  15.064  0.00  0.00    +0.000 OA
ATOM     31  C   UNL     1      48.482   5.112  16.495  0.00  0.00    +0.000 A 
ATOM     32  H   UNL     1      46.341   2.649  16.895  0.00  0.00    +0.000 HD
ENDBRANCH  19  22
ENDBRANCH   1  20
TORSDOF 7
ENDMDL
MODEL 2
REMARK VINA RESULT:    -7.399      2.132      2.492
REMARK INTER + INTRA:         -11.325
REMARK INTER:                 -10.336
REMARK INTRA:                  -0.989
REMARK UNBOUND:                -1.115
REMARK  Name = 
REMARK  7 active torsions:
REMARK  status: ('A' for Active; 'I' for Inactive)
REMARK    1  A    between atoms: C_2  and  C_20
REMARK    2  A    between atoms: N_3  and  C_4
REMARK    3  A    between atoms: C_4  and  C_5
REMARK    4  A    between atoms: C_8  and  C_9
REMARK    5  A    between atoms: C_9  and  C_10
REMARK    6  A    between atoms: C_10  and  O_11
REMARK    7  A    between atoms: C_10  and  C_12
REMARK                            x       y       z     vdW  Elec       q    Type
REMARK                         _______ _______ _______ _____ _____    ______ ____
ROOT
ATOM      1  C   UNL     1      47.930   7.407  13.863  0.00  0.00    +0.000 C 
ENDROOT
BRANCH   1   2
ATOM      2  C   UNL     1      46.984   6.620  12.995  0.00  0.00    +0.000 A 
ATOM      3  C   UNL     1      46.510   7.162  11.794  0.00  0.00    +0.000 A 
ATOM      4  C   UNL     1      45.668   6.422  10.960  0.00  0.00    +0.000 A 
ATOM      5  C   UNL     1      45.266   5.130  11.321  0.00  0.00    +0.000 A 
ATOM      6  C   UNL     1      45.710   4.601  12.541  0.00  0.00    +0.000 A 
ATOM      7  C   UNL     1      46.554   5.341  13.375  0.00  0.00    +0.000 A 
BRANCH   5   8
ATOM      8  C   UNL     1      44.378   4.310  10.409  0.00  0.00    +0.000 C 
BRANCH   8   9
ATOM      9  C   UNL     1      44.870   2.862  10.211  0.00  0.00    +0.000 C 
BRANCH   9  10
ATOM     10  C   UNL     1      45.564   2.707   8.873  0.00  0.00    +0.000 A 
ATOM     11  C   UNL     1      45.676   3.780   7.993  0.00  0.00    +0.000 A 
ATOM     12  N   UNL     1      46.309   3.690   6.797  0.00  0.00    +0.000 NA
ATOM     13  C   UNL     1      46.846   2.482   6.516  0.00  0.00    +0.000 A 
ATOM     14  C   UNL     1      46.754   1.410   7.387  0.00  0.00    +0.000 A 
ATOM     15  N   UNL     1      46.120   1.496   8.580  0.00  0.00    +0.000 NA
ENDBRANCH   9  10
BRANCH   9  16
ATOM     16  O   UNL     1      43.756   1.961  10.235  0.00  0.00    +0.000 OA
ATOM     17  H   UNL     1      44.040   1.208  10.786  0.00  0.00    +0.000 HD
ENDBRANCH   9  16
ENDBRANCH   8   9
ENDBRANCH   5   8
ENDBRANCH   1   2
BRANCH   1  20
ATOM     18  O   UNL     1      50.180   6.595  15.380  0.00  0.00    +0.000 OA
ATOM     19  C   UNL     1      49.069   6.591  15.901  0.00  0.00    +0.000 C 
ATOM     20  N   UNL     1      47.930   6.926  15.219  0.00  0.00    +0.000 N 
ATOM     21  H   UNL     1      47.070   7.071  15.733  0.00  0.00    +0.000 HD
BRANCH  19  22
ATOM     22  C   UNL     1      48.877   6.167  17.296  0.00  0.00    +0.000 A 
ATOM     23  C   UNL     1      49.207   4.874  17.680  0.00  0.00    +0.000 A 
ATOM     24  S   UNL     1      48.916   4.558  19.331  0.00  0.00    +0.000 S 
ATOM     25  C   UNL     1      48.374   6.149  19.599  0.00  0.00    +0.000 A 
ATOM     26  N   UNL     1      47.996   6.559  20.840  0.00  0.00    +0.000 NA
ATOM     27  C   UNL     1      47.641   7.800  20.906  0.00  0.00    +0.000 A 
ATOM     28  N   UNL     1      47.615   8.663  19.841  0.00  0.00    +0.000 N 
ATOM     29  C   UNL     1      47.910   8.268  18.562  0.00  0.00    +0.000 A 
ATOM     30  O   UNL     1      47.733   9.029  17.616  0.00  0.00    +0.000 OA
ATOM     31  C   UNL     1      48.377   6.899  18.439  0.00  0.00    +0.000 A 
ATOM     32  H   UNL     1      47.290   9.611  19.946  0.00  0.00    +0.000 HD
ENDBRANCH  19  22
ENDBRANCH   1  20
TORSDOF 7
ENDMDL
MODEL 3
REMARK VINA RESULT:    -7.189      2.552      3.754
REMARK INTER + INTRA:         -11.035
REMARK INTER:                 -10.172
REMARK INTRA:                  -0.863
REMARK UNBOUND:                -1.115
REMARK  Name = 
REMARK  7 active torsions:
REMARK  status: ('A' for Active; 'I' for Inactive)
REMARK    1  A    between atoms: C_2  and  C_20
REMARK    2  A    between atoms: N_3  and  C_4
REMARK    3  A    between atoms: C_4  and  C_5
REMARK    4  A    between atoms: C_8  and  C_9
REMARK    5  A    between atoms: C_9  and  C_10
REMARK    6  A    between atoms: C_10  and  O_11
REMARK    7  A    between atoms: C_10  and  C_12
REMARK                            x       y       z     vdW  Elec       q    Type
REMARK                         _______ _______ _______ _____ _____    ______ ____
ROOT
ATOM      1  C   UNL     1      47.530   4.030  15.683  0.00  0.00    +0.000 C 
ENDROOT
BRANCH   1   2
ATOM      2  C   UNL     1      46.940   4.396  14.347  0.00  0.00    +0.000 A 
ATOM      3  C   UNL     1      47.119   5.682  13.824  0.00  0.00    +0.000 A 
ATOM      4  C   UNL     1      46.612   6.017  12.565  0.00  0.00    +0.000 A 
ATOM      5  C   UNL     1      45.900   5.076  11.812  0.00  0.00    +0.000 A 
ATOM      6  C   UNL     1      45.688   3.800  12.351  0.00  0.00    +0.000 A 
ATOM      7  C   UNL     1      46.195   3.464  13.610  0.00  0.00    +0.000 A 
BRANCH   5   8
ATOM      8  C   UNL     1      45.374   5.422  10.434  0.00  0.00    +0.000 C 
BRANCH   8   9
ATOM      9  C   UNL     1      44.589   4.274   9.770  0.00  0.00    +0.000 C 
BRANCH   9  10
ATOM     10  C   UNL     1      45.468   3.510   8.800  0.00  0.00    +0.000 A 
ATOM     11  C   UNL     1      45.595   2.126   8.882  0.00  0.00    +0.000 A 
ATOM     12  N   UNL     1      46.352   1.403   8.020  0.00  0.00    +0.000 NA
ATOM     13  C   UNL     1      46.970   2.116   7.053  0.00  0.00    +0.000 A 
ATOM     14  C   UNL     1      46.841   3.491   6.951  0.00  0.00    +0.000 A 
ATOM     15  N   UNL     1      46.090   4.217   7.812  0.00  0.00    +0.000 NA
ENDBRANCH   9  10
BRANCH   9  16
ATOM     16  O   UNL     1      43.480   4.805   9.033  0.00  0.00    +0.000 OA
ATOM     17  H   UNL     1      43.833   5.572   8.545  0.00  0.00    +0.000 HD
ENDBRANCH   9  16
ENDBRANCH   8   9
ENDBRANCH   5   8
ENDBRANCH   1   2
BRANCH   1  20
ATOM     18  O   UNL     1      49.755   5.502  16.638  0.00  0.00    +0.000 OA
ATOM     19  C   UNL     1      48.622   5.831  16.980  0.00  0.00    +0.000 C 
ATOM     20  N   UNL     1      47.504   5.141  16.597  0.00  0.00    +0.000 N 
ATOM     21  H   UNL     1      46.591   5.548  16.763  0.00  0.00    +0.000 HD
BRANCH  19  22
ATOM     22  C   UNL     1      48.394   6.970  17.882  0.00  0.00    +0.000 A 
ATOM     23  C   UNL     1      48.272   6.759  19.249  0.00  0.00    +0.000 A 
ATOM     24  S   UNL     1      48.007   8.191  20.139  0.00  0.00    +0.000 S 
ATOM     25  C   UNL     1      48.084   9.146  18.733  0.00  0.00    +0.000 A 
ATOM     26  N   UNL     1      47.967  10.500  18.800  0.00  0.00    +0.000 NA
ATOM     27  C   UNL     1      48.080  11.103  17.661  0.00  0.00    +0.000 A 
ATOM     28  N   UNL     1      48.285  10.473  16.461  0.00  0.00    +0.000 N 
ATOM     29  C   UNL     1      48.327   9.108  16.340  0.00  0.00    +0.000 A 
ATOM     30  O   UNL     1      48.364   8.579  15.234  0.00  0.00    +0.000 OA
ATOM     31  C   UNL     1      48.269   8.382  17.596  0.00  0.00    +0.000 A 
ATOM     32  H   UNL     1      48.325  10.994  15.600  0.00  0.00    +0.000 HD
ENDBRANCH  19  22
ENDBRANCH   1  20
TORSDOF 7
ENDMDL
MODEL 4
REMARK VINA RESULT:    -7.086      2.749      3.480
REMARK INTER + INTRA:         -10.894
REMARK INTER:                  -9.921
REMARK INTRA:                  -0.972
REMARK UNBOUND:                -1.115
REMARK  Name = 
REMARK  7 active torsions:
REMARK  status: ('A' for Active; 'I' for Inactive)
REMARK    1  A    between atoms: C_2  and  C_20
REMARK    2  A    between atoms: N_3  and  C_4
REMARK    3  A    between atoms: C_4  and  C_5
REMARK    4  A    between atoms: C_8  and  C_9
REMARK    5  A    between atoms: C_9  and  C_10
REMARK    6  A    between atoms: C_10  and  O_11
REMARK    7  A    between atoms: C_10  and  C_12
REMARK                            x       y       z     vdW  Elec       q    Type
REMARK                         _______ _______ _______ _____ _____    ______ ____
ROOT
ATOM      1  C   UNL     1      47.450   4.448  15.686  0.00  0.00    +0.000 C 
ENDROOT
BRANCH   1   2
ATOM      2  C   UNL     1      46.952   4.702  14.288  0.00  0.00    +0.000 A 
ATOM      3  C   UNL     1      46.168   3.745  13.632  0.00  0.00    +0.000 A 
ATOM      4  C   UNL     1      45.665   3.991  12.352  0.00  0.00    +0.000 A 
ATOM      5  C   UNL     1      45.952   5.193  11.693  0.00  0.00    +0.000 A 
ATOM      6  C   UNL     1      46.767   6.135  12.334  0.00  0.00    +0.000 A 
ATOM      7  C   UNL     1      47.270   5.891  13.616  0.00  0.00    +0.000 A 
BRANCH   5   8
ATOM      8  C   UNL     1      45.384   5.479  10.318  0.00  0.00    +0.000 C 
BRANCH   8   9
ATOM      9  C   UNL     1      44.600   4.295   9.719  0.00  0.00    +0.000 C 
BRANCH   9  10
ATOM     10  C   UNL     1      45.470   3.501   8.765  0.00  0.00    +0.000 A 
ATOM     11  C   UNL     1      45.580   2.118   8.875  0.00  0.00    +0.000 A 
ATOM     12  N   UNL     1      46.328   1.368   8.029  0.00  0.00    +0.000 NA
ATOM     13  C   UNL     1      46.955   2.053   7.048  0.00  0.00    +0.000 A 
ATOM     14  C   UNL     1      46.843   3.427   6.917  0.00  0.00    +0.000 A 
ATOM     15  N   UNL     1      46.100   4.179   7.763  0.00  0.00    +0.000 NA
ENDBRANCH   9  10
BRANCH   9  16
ATOM     16  O   UNL     1      43.471   4.782   8.982  0.00  0.00    +0.000 OA
ATOM     17  H   UNL     1      42.954   3.990   8.742  0.00  0.00    +0.000 HD
ENDBRANCH   9  16
ENDBRANCH   8   9
ENDBRANCH   5   8
ENDBRANCH   1   2
BRANCH   1  20
ATOM     18  O   UNL     1      50.027   5.024  16.711  0.00  0.00    +0.000 OA
ATOM     19  C   UNL     1      49.152   5.884  16.761  0.00  0.00    +0.000 C 
ATOM     20  N   UNL     1      47.873   5.663  16.328  0.00  0.00    +0.000 N 
ATOM     21  H   UNL     1      47.240   6.449  16.233  0.00  0.00    +0.000 HD
BRANCH  19  22
ATOM     22  C   UNL     1      49.410   7.207  17.349  0.00  0.00    +0.000 A 
ATOM     23  C   UNL     1      50.358   8.046  16.781  0.00  0.00    +0.000 A 
ATOM     24  S   UNL     1      50.526   9.537  17.595  0.00  0.00    +0.000 S 
ATOM     25  C   UNL     1      49.309   9.127  18.712  0.00  0.00    +0.000 A 
ATOM     26  N   UNL     1      48.928  10.002  19.683  0.00  0.00    +0.000 NA
ATOM     27  C   UNL     1      47.970   9.575  20.439  0.00  0.00    +0.000 A 
ATOM     28  N   UNL     1      47.370   8.349  20.322  0.00  0.00    +0.000 N 
ATOM     29  C   UNL     1      47.779   7.409  19.412  0.00  0.00    +0.000 A 
ATOM     30  O   UNL     1      47.318   6.273  19.435  0.00  0.00    +0.000 OA
ATOM     31  C   UNL     1      48.810   7.858  18.493  0.00  0.00    +0.000 A 
ATOM     32  H   UNL     1      46.654   8.055  20.967  0.00  0.00    +0.000 HD
ENDBRANCH  19  22
ENDBRANCH   1  20
TORSDOF 7
ENDMDL
MODEL 5
REMARK VINA RESULT:    -6.774      3.236      7.855
REMARK INTER + INTRA:         -10.463
REMARK INTER:                  -9.573
REMARK INTRA:                  -0.891
REMARK UNBOUND:                -1.115
REMARK  Name = 
REMARK  7 active torsions:
REMARK  status: ('A' for Active; 'I' for Inactive)
REMARK    1  A    between atoms: C_2  and  C_20
REMARK    2  A    between atoms: N_3  and  C_4
REMARK    3  A    between atoms: C_4  and  C_5
REMARK    4  A    between atoms: C_8  and  C_9
REMARK    5  A    between atoms: C_9  and  C_10
REMARK    6  A    between atoms: C_10  and  O_11
REMARK    7  A    between atoms: C_10  and  C_12
REMARK                            x       y       z     vdW  Elec       q    Type
REMARK                         _______ _______ _______ _____ _____    ______ ____
ROOT
ATOM      1  C   UNL     1      48.145   8.299  12.275  0.00  0.00    +0.000 C 
ENDROOT
BRANCH   1   2
ATOM      2  C   UNL     1      48.435   8.065  13.733  0.00  0.00    +0.000 A 
ATOM      3  C   UNL     1      49.099   6.903  14.145  0.00  0.00    +0.000 A 
ATOM      4  C   UNL     1      49.412   6.699  15.491  0.00  0.00    +0.000 A 
ATOM      5  C   UNL     1      49.049   7.645  16.457  0.00  0.00    +0.000 A 
ATOM      6  C   UNL     1      48.352   8.790  16.051  0.00  0.00    +0.000 A 
ATOM      7  C   UNL     1      48.039   8.996  14.704  0.00  0.00    +0.000 A 
BRANCH   5   8
ATOM      8  C   UNL     1      49.412   7.445  17.914  0.00  0.00    +0.000 C 
BRANCH   8   9
ATOM      9  C   UNL     1      48.347   6.664  18.710  0.00  0.00    +0.000 C 
BRANCH   9  10
ATOM     10  C   UNL     1      48.225   5.244  18.197  0.00  0.00    +0.000 A 
ATOM     11  C   UNL     1      47.017   4.761  17.699  0.00  0.00    +0.000 A 
ATOM     12  N   UNL     1      46.871   3.506  17.209  0.00  0.00    +0.000 NA
ATOM     13  C   UNL     1      47.989   2.747  17.217  0.00  0.00    +0.000 A 
ATOM     14  C   UNL     1      49.200   3.218  17.696  0.00  0.00    +0.000 A 
ATOM     15  N   UNL     1      49.348   4.470  18.190  0.00  0.00    +0.000 NA
ENDBRANCH   9  10
BRANCH   9  16
ATOM     16  O   UNL     1      47.069   7.296  18.564  0.00  0.00    +0.000 OA
ATOM     17  H   UNL     1      47.024   7.962  19.275  0.00  0.00    +0.000 HD
ENDBRANCH   9  16
ENDBRANCH   8   9
ENDBRANCH   5   8
ENDBRANCH   1   2
BRANCH   1  20
ATOM     18  O   UNL     1      45.345   7.933  12.039  0.00  0.00    +0.000 OA
ATOM     19  C   UNL     1      46.105   7.091  11.568  0.00  0.00    +0.000 C 
ATOM     20  N   UNL     1      47.467   7.177  11.682  0.00  0.00    +0.000 N 
ATOM     21  H   UNL     1      48.050   6.555  11.135  0.00  0.00    +0.000 HD
BRANCH  19  22
ATOM     22  C   UNL     1      45.595   5.892  10.888  0.00  0.00    +0.000 A 
ATOM     23  C   UNL     1      45.918   5.657   9.558  0.00  0.00    +0.000 A 
ATOM     24  S   UNL     1      45.237   4.222   8.933  0.00  0.00    +0.000 S 
ATOM     25  C   UNL     1      44.519   3.844  10.430  0.00  0.00    +0.000 A 
ATOM     26  N   UNL     1      43.803   2.699  10.592  0.00  0.00    +0.000 NA
ATOM     27  C   UNL     1      43.346   2.522  11.788  0.00  0.00    +0.000 A 
ATOM     28  N   UNL     1      43.526   3.392  12.831  0.00  0.00    +0.000 N 
ATOM     29  C   UNL     1      44.171   4.594  12.688  0.00  0.00    +0.000 A 
ATOM     30  O   UNL     1      44.184   5.409  13.604  0.00  0.00    +0.000 OA
ATOM     31  C   UNL     1      44.761   4.817  11.381  0.00  0.00    +0.000 A 
ATOM     32  H   UNL     1      43.111   3.219  13.732  0.00  0.00    +0.000 HD
ENDBRANCH  19  22
ENDBRANCH   1  20
TORSDOF 7
ENDMDL
MODEL 6
REMARK VINA RESULT:    -6.640      1.860      2.380
REMARK INTER + INTRA:         -10.278
REMARK INTER:                  -9.384
REMARK INTRA:                  -0.895
REMARK UNBOUND:                -1.115
REMARK  Name = 
REMARK  7 active torsions:
REMARK  status: ('A' for Active; 'I' for Inactive)
REMARK    1  A    between atoms: C_2  and  C_20
REMARK    2  A    between atoms: N_3  and  C_4
REMARK    3  A    between atoms: C_4  and  C_5
REMARK    4  A    between atoms: C_8  and  C_9
REMARK    5  A    between atoms: C_9  and  C_10
REMARK    6  A    between atoms: C_10  and  O_11
REMARK    7  A    between atoms: C_10  and  C_12
REMARK                            x       y       z     vdW  Elec       q    Type
REMARK                         _______ _______ _______ _____ _____    ______ ____
ROOT
ATOM      1  C   UNL     1      47.740   8.739  14.035  0.00  0.00    +0.000 C 
ENDROOT
BRANCH   1   2
ATOM      2  C   UNL     1      46.766   7.931  13.219  0.00  0.00    +0.000 A 
ATOM      3  C   UNL     1      46.904   6.541  13.127  0.00  0.00    +0.000 A 
ATOM      4  C   UNL     1      45.980   5.778  12.408  0.00  0.00    +0.000 A 
ATOM      5  C   UNL     1      44.909   6.394  11.750  0.00  0.00    +0.000 A 
ATOM      6  C   UNL     1      44.791   7.788  11.811  0.00  0.00    +0.000 A 
ATOM      7  C   UNL     1      45.715   8.552  12.531  0.00  0.00    +0.000 A 
BRANCH   5   8
ATOM      8  C   UNL     1      43.886   5.571  10.994  0.00  0.00    +0.000 C 
BRANCH   8   9
ATOM      9  C   UNL     1      44.143   4.052  11.068  0.00  0.00    +0.000 C 
BRANCH   9  10
ATOM     10  C   UNL     1      44.864   3.567   9.827  0.00  0.00    +0.000 A 
ATOM     11  C   UNL     1      45.015   2.207   9.568  0.00  0.00    +0.000 A 
ATOM     12  N   UNL     1      45.631   1.732   8.459  0.00  0.00    +0.000 NA
ATOM     13  C   UNL     1      46.082   2.671   7.599  0.00  0.00    +0.000 A 
ATOM     14  C   UNL     1      45.927   4.026   7.835  0.00  0.00    +0.000 A 
ATOM     15  N   UNL     1      45.315   4.505   8.945  0.00  0.00    +0.000 NA
ENDBRANCH   9  10
BRANCH   9  16
ATOM     16  O   UNL     1      42.896   3.351  11.155  0.00  0.00    +0.000 OA
ATOM     17  H   UNL     1      42.528   3.360  10.252  0.00  0.00    +0.000 HD
ENDBRANCH   9  16
ENDBRANCH   8   9
ENDBRANCH   5   8
ENDBRANCH   1   2
BRANCH   1  20
ATOM     18  O   UNL     1      49.636   9.533  15.985  0.00  0.00    +0.000 OA
ATOM     19  C   UNL     1      48.806   8.672  16.266  0.00  0.00    +0.000 C 
ATOM     20  N   UNL     1      47.889   8.206  15.363  0.00  0.00    +0.000 N 
ATOM     21  H   UNL     1      47.124   7.627  15.689  0.00  0.00    +0.000 HD
BRANCH  19  22
ATOM     22  C   UNL     1      48.778   8.038  17.592  0.00  0.00    +0.000 A 
ATOM     23  C   UNL     1      48.736   8.822  18.736  0.00  0.00    +0.000 A 
ATOM     24  S   UNL     1      48.712   7.918  20.184  0.00  0.00    +0.000 S 
ATOM     25  C   UNL     1      48.716   6.446  19.330  0.00  0.00    +0.000 A 
ATOM     26  N   UNL     1      48.667   5.256  19.988  0.00  0.00    +0.000 NA
ATOM     27  C   UNL     1      48.641   4.220  19.215  0.00  0.00    +0.000 A 
ATOM     28  N   UNL     1      48.675   4.265  17.846  0.00  0.00    +0.000 N 
ATOM     29  C   UNL     1      48.806   5.438  17.148  0.00  0.00    +0.000 A 
ATOM     30  O   UNL     1      48.981   5.428  15.934  0.00  0.00    +0.000 OA
ATOM     31  C   UNL     1      48.777   6.639  17.963  0.00  0.00    +0.000 A 
ATOM     32  H   UNL     1      48.692   3.421  17.296  0.00  0.00    +0.000 HD
ENDBRANCH  19  22
ENDBRANCH   1  20
TORSDOF 7
ENDMDL
MODEL 7
REMARK VINA RESULT:    -6.632      2.346      3.924
REMARK INTER + INTRA:         -10.267
REMARK INTER:                 -10.249
REMARK INTRA:                  -0.018
REMARK UNBOUND:                -1.115
REMARK  Name = 
REMARK  7 active torsions:
REMARK  status: ('A' for Active; 'I' for Inactive)
REMARK    1  A    between atoms: C_2  and  C_20
REMARK    2  A    between atoms: N_3  and  C_4
REMARK    3  A    between atoms: C_4  and  C_5
REMARK    4  A    between atoms: C_8  and  C_9
REMARK    5  A    between atoms: C_9  and  C_10
REMARK    6  A    between atoms: C_10  and  O_11
REMARK    7  A    between atoms: C_10  and  C_12
REMARK                            x       y       z     vdW  Elec       q    Type
REMARK                         _______ _______ _______ _____ _____    ______ ____
ROOT
ATOM      1  C   UNL     1      46.791   4.976  14.930  0.00  0.00    +0.000 C 
ENDROOT
BRANCH   1   2
ATOM      2  C   UNL     1      46.037   4.644  13.670  0.00  0.00    +0.000 A 
ATOM      3  C   UNL     1      45.148   5.572  13.114  0.00  0.00    +0.000 A 
ATOM      4  C   UNL     1      44.476   5.291  11.920  0.00  0.00    +0.000 A 
ATOM      5  C   UNL     1      44.667   4.067  11.269  0.00  0.00    +0.000 A 
ATOM      6  C   UNL     1      45.529   3.123  11.844  0.00  0.00    +0.000 A 
ATOM      7  C   UNL     1      46.201   3.404  13.037  0.00  0.00    +0.000 A 
BRANCH   5   8
ATOM      8  C   UNL     1      43.967   3.768   9.959  0.00  0.00    +0.000 C 
BRANCH   8   9
ATOM      9  C   UNL     1      44.746   4.255   8.721  0.00  0.00    +0.000 C 
BRANCH   9  10
ATOM     10  C   UNL     1      45.683   3.177   8.215  0.00  0.00    +0.000 A 
ATOM     11  C   UNL     1      45.521   1.847   8.595  0.00  0.00    +0.000 A 
ATOM     12  N   UNL     1      46.321   0.849   8.147  0.00  0.00    +0.000 NA
ATOM     13  C   UNL     1      47.290   1.227   7.284  0.00  0.00    +0.000 A 
ATOM     14  C   UNL     1      47.454   2.542   6.886  0.00  0.00    +0.000 A 
ATOM     15  N   UNL     1      46.659   3.542   7.334  0.00  0.00    +0.000 NA
ENDBRANCH   9  10
BRANCH   9  16
ATOM     16  O   UNL     1      45.538   5.400   9.063  0.00  0.00    +0.000 OA
ATOM     17  H   UNL     1      44.998   6.174   8.818  0.00  0.00    +0.000 HD
ENDBRANCH   9  16
ENDBRANCH   8   9
ENDBRANCH   5   8
ENDBRANCH   1   2
BRANCH   1  20
ATOM     18  O   UNL     1      48.512   6.148  16.850  0.00  0.00    +0.000 OA
ATOM     19  C   UNL     1      48.681   6.394  15.659  0.00  0.00    +0.000 C 
ATOM     20  N   UNL     1      47.863   5.901  14.679  0.00  0.00    +0.000 N 
ATOM     21  H   UNL     1      48.142   5.992  13.709  0.00  0.00    +0.000 HD
BRANCH  19  22
ATOM     22  C   UNL     1      49.754   7.291  15.206  0.00  0.00    +0.000 A 
ATOM     23  C   UNL     1      50.631   7.846  16.128  0.00  0.00    +0.000 A 
ATOM     24  S   UNL     1      51.808   8.862  15.424  0.00  0.00    +0.000 S 
ATOM     25  C   UNL     1      51.211   8.565  13.859  0.00  0.00    +0.000 A 
ATOM     26  N   UNL     1      51.805   9.118  12.767  0.00  0.00    +0.000 NA
ATOM     27  C   UNL     1      51.270   8.780  11.640  0.00  0.00    +0.000 A 
ATOM     28  N   UNL     1      50.186   7.951  11.507  0.00  0.00    +0.000 N 
ATOM     29  C   UNL     1      49.510   7.440  12.584  0.00  0.00    +0.000 A 
ATOM     30  O   UNL     1      48.460   6.825  12.429  0.00  0.00    +0.000 OA
ATOM     31  C   UNL     1      50.105   7.736  13.875  0.00  0.00    +0.000 A 
ATOM     32  H   UNL     1      49.788   7.755  10.602  0.00  0.00    +0.000 HD
ENDBRANCH  19  22
ENDBRANCH   1  20
TORSDOF 7
ENDMDL
MODEL 8
REMARK VINA RESULT:    -6.605      2.626      3.704
REMARK INTER + INTRA:         -10.230
REMARK INTER:                  -9.887
REMARK INTRA:                  -0.343
REMARK UNBOUND:                -1.115
REMARK  Name = 
REMARK  7 active torsions:
REMARK  status: ('A' for Active; 'I' for Inactive)
REMARK    1  A    between atoms: C_2  and  C_20
REMARK    2  A    between atoms: N_3  and  C_4
REMARK    3  A    between atoms: C_4  and  C_5
REMARK    4  A    between atoms: C_8  and  C_9
REMARK    5  A    between atoms: C_9  and  C_10
REMARK    6  A    between atoms: C_10  and  O_11
REMARK    7  A    between atoms: C_10  and  C_12
REMARK                            x       y       z     vdW  Elec       q    Type
REMARK                         _______ _______ _______ _____ _____    ______ ____
ROOT
ATOM      1  C   UNL     1      46.765   4.908  14.957  0.00  0.00    +0.000 C 
ENDROOT
BRANCH   1   2
ATOM      2  C   UNL     1      46.020   4.618  13.681  0.00  0.00    +0.000 A 
ATOM      3  C   UNL     1      45.190   5.592  13.111  0.00  0.00    +0.000 A 
ATOM      4  C   UNL     1      44.528   5.348  11.904  0.00  0.00    +0.000 A 
ATOM      5  C   UNL     1      44.670   4.117  11.252  0.00  0.00    +0.000 A 
ATOM      6  C   UNL     1      45.471   3.130  11.840  0.00  0.00    +0.000 A 
ATOM      7  C   UNL     1      46.133   3.373  13.047  0.00  0.00    +0.000 A 
BRANCH   5   8
ATOM      8  C   UNL     1      43.981   3.857   9.928  0.00  0.00    +0.000 C 
BRANCH   8   9
ATOM      9  C   UNL     1      44.814   4.292   8.707  0.00  0.00    +0.000 C 
BRANCH   9  10
ATOM     10  C   UNL     1      45.701   3.160   8.229  0.00  0.00    +0.000 A 
ATOM     11  C   UNL     1      45.466   1.846   8.627  0.00  0.00    +0.000 A 
ATOM     12  N   UNL     1      46.220   0.802   8.204  0.00  0.00    +0.000 NA
ATOM     13  C   UNL     1      47.217   1.116   7.347  0.00  0.00    +0.000 A 
ATOM     14  C   UNL     1      47.453   2.415   6.932  0.00  0.00    +0.000 A 
ATOM     15  N   UNL     1      46.704   3.461   7.355  0.00  0.00    +0.000 NA
ENDBRANCH   9  10
BRANCH   9  16
ATOM     16  O   UNL     1      45.661   5.393   9.061  0.00  0.00    +0.000 OA
ATOM     17  H   UNL     1      45.171   6.194   8.799  0.00  0.00    +0.000 HD
ENDBRANCH   9  16
ENDBRANCH   8   9
ENDBRANCH   5   8
ENDBRANCH   1   2
BRANCH   1  20
ATOM     18  O   UNL     1      48.388   6.117  16.938  0.00  0.00    +0.000 OA
ATOM     19  C   UNL     1      48.611   6.348  15.753  0.00  0.00    +0.000 C 
ATOM     20  N   UNL     1      47.842   5.837  14.743  0.00  0.00    +0.000 N 
ATOM     21  H   UNL     1      48.165   5.917  13.786  0.00  0.00    +0.000 HD
BRANCH  19  22
ATOM     22  C   UNL     1      49.699   7.246  15.337  0.00  0.00    +0.000 A 
ATOM     23  C   UNL     1      49.421   8.356  14.551  0.00  0.00    +0.000 A 
ATOM     24  S   UNL     1      50.802   9.280  14.162  0.00  0.00    +0.000 S 
ATOM     25  C   UNL     1      51.814   8.251  15.063  0.00  0.00    +0.000 A 
ATOM     26  N   UNL     1      53.146   8.503  15.176  0.00  0.00    +0.000 NA
ATOM     27  C   UNL     1      53.787   7.662  15.918  0.00  0.00    +0.000 A 
ATOM     28  N   UNL     1      53.221   6.583  16.546  0.00  0.00    +0.000 N 
ATOM     29  C   UNL     1      51.900   6.249  16.393  0.00  0.00    +0.000 A 
ATOM     30  O   UNL     1      51.464   5.197  16.850  0.00  0.00    +0.000 OA
ATOM     31  C   UNL     1      51.116   7.195  15.620  0.00  0.00    +0.000 A 
ATOM     32  H   UNL     1      53.780   5.938  17.081  0.00  0.00    +0.000 HD
ENDBRANCH  19  22
ENDBRANCH   1  20
TORSDOF 7
ENDMDL
MODEL 9
REMARK VINA RESULT:    -6.574      2.850      8.367
REMARK INTER + INTRA:         -10.187
REMARK INTER:                  -9.398
REMARK INTRA:                  -0.789
REMARK UNBOUND:                -1.115
REMARK  Name = 
REMARK  7 active torsions:
REMARK  status: ('A' for Active; 'I' for Inactive)
REMARK    1  A    between atoms: C_2  and  C_20
REMARK    2  A    between atoms: N_3  and  C_4
REMARK    3  A    between atoms: C_4  and  C_5
REMARK    4  A    between atoms: C_8  and  C_9
REMARK    5  A    between atoms: C_9  and  C_10
REMARK    6  A    between atoms: C_10  and  O_11
REMARK    7  A    between atoms: C_10  and  C_12
REMARK                            x       y       z     vdW  Elec       q    Type
REMARK                         _______ _______ _______ _____ _____    ______ ____
ROOT
ATOM      1  C   UNL     1      47.232   7.803  12.192  0.00  0.00    +0.000 C 
ENDROOT
BRANCH   1   2
ATOM      2  C   UNL     1      47.843   7.792  13.567  0.00  0.00    +0.000 A 
ATOM      3  C   UNL     1      47.734   8.914  14.398  0.00  0.00    +0.000 A 
ATOM      4  C   UNL     1      48.259   8.898  15.693  0.00  0.00    +0.000 A 
ATOM      5  C   UNL     1      48.921   7.763  16.177  0.00  0.00    +0.000 A 
ATOM      6  C   UNL     1      49.062   6.653  15.334  0.00  0.00    +0.000 A 
ATOM      7  C   UNL     1      48.536   6.668  14.038  0.00  0.00    +0.000 A 
BRANCH   5   8
ATOM      8  C   UNL     1      49.466   7.726  17.590  0.00  0.00    +0.000 C 
BRANCH   8   9
ATOM      9  C   UNL     1      48.520   7.040  18.595  0.00  0.00    +0.000 C 
BRANCH   9  10
ATOM     10  C   UNL     1      48.380   5.564  18.281  0.00  0.00    +0.000 A 
ATOM     11  C   UNL     1      47.144   5.012  17.954  0.00  0.00    +0.000 A 
ATOM     12  N   UNL     1      46.980   3.703  17.643  0.00  0.00    +0.000 NA
ATOM     13  C   UNL     1      48.108   2.959  17.653  0.00  0.00    +0.000 A 
ATOM     14  C   UNL     1      49.346   3.496  17.962  0.00  0.00    +0.000 A 
ATOM     15  N   UNL     1      49.513   4.803  18.277  0.00  0.00    +0.000 NA
ENDBRANCH   9  10
BRANCH   9  16
ATOM     16  O   UNL     1      47.217   7.630  18.519  0.00  0.00    +0.000 OA
ATOM     17  H   UNL     1      47.364   8.594  18.560  0.00  0.00    +0.000 HD
ENDBRANCH   9  16
ENDBRANCH   8   9
ENDBRANCH   5   8
ENDBRANCH   1   2
BRANCH   1  20
ATOM     18  O   UNL     1      44.454   7.443  11.763  0.00  0.00    +0.000 OA
ATOM     19  C   UNL     1      45.209   6.480  11.665  0.00  0.00    +0.000 C 
ATOM     20  N   UNL     1      46.555   6.567  11.902  0.00  0.00    +0.000 N 
ATOM     21  H   UNL     1      47.154   5.792  11.644  0.00  0.00    +0.000 HD
BRANCH  19  22
ATOM     22  C   UNL     1      44.703   5.139  11.336  0.00  0.00    +0.000 A 
ATOM     23  C   UNL     1      43.916   4.451  12.249  0.00  0.00    +0.000 A 
ATOM     24  S   UNL     1      43.423   2.912  11.702  0.00  0.00    +0.000 S 
ATOM     25  C   UNL     1      44.212   3.127  10.210  0.00  0.00    +0.000 A 
ATOM     26  N   UNL     1      44.153   2.171   9.243  0.00  0.00    +0.000 NA
ATOM     27  C   UNL     1      44.768   2.481   8.149  0.00  0.00    +0.000 A 
ATOM     28  N   UNL     1      45.448   3.652   7.939  0.00  0.00    +0.000 N 
ATOM     29  C   UNL     1      45.600   4.604   8.915  0.00  0.00    +0.000 A 
ATOM     30  O   UNL     1      46.337   5.568   8.738  0.00  0.00    +0.000 OA
ATOM     31  C   UNL     1      44.876   4.337  10.145  0.00  0.00    +0.000 A 
ATOM     32  H   UNL     1      45.942   3.821   7.078  0.00  0.00    +0.000 HD
ENDBRANCH  19  22
ENDBRANCH   1  20
TORSDOF 7
ENDMDL
