MODEL 1
REMARK VINA RESULT:    -8.586      0.000      0.000
REMARK INTER + INTRA:         -10.863
REMARK INTER:                 -10.845
REMARK INTRA:                  -0.018
REMARK UNBOUND:                -0.018
REMARK  Name = 
REMARK  6 active torsions:
REMARK  status: ('A' for Active; 'I' for Inactive)
REMARK    1  A    between atoms: C_1  and  C_2
REMARK    2  A    between atoms: C_4  and  C_5
REMARK    3  A    between atoms: C_10  and  N_11
REMARK    4  A    between atoms: N_11  and  C_12
REMARK    5  A    between atoms: C_12  and  C_13
REMARK    6  A    between atoms: C_16  and  O_17
REMARK                            x       y       z     vdW  Elec       q    Type
REMARK                         _______ _______ _______ _____ _____    ______ ____
ROOT
ATOM      1  N   UNL     1      43.952   4.915  10.073  0.00  0.00    +0.000 N 
ATOM      2  H   UNL     1      43.738   5.832   9.696  0.00  0.00    +0.000 HD
ENDROOT
BRANCH   1   9
ATOM      3  C   UNL     1      43.883   2.024  10.180  0.00  0.00    +0.000 C 
ATOM      4  C   UNL     1      44.808   2.790   9.279  0.00  0.00    +0.000 A 
ATOM      5  C   UNL     1      45.742   2.067   8.517  0.00  0.00    +0.000 A 
ATOM      6  C   UNL     1      46.608   2.719   7.645  0.00  0.00    +0.000 A 
ATOM      7  C   UNL     1      46.475   4.095   7.563  0.00  0.00    +0.000 A 
ATOM      8  N   UNL     1      45.598   4.835   8.307  0.00  0.00    +0.000 NA
ATOM      9  C   UNL     1      44.776   4.192   9.170  0.00  0.00    +0.000 A 
BRANCH   6  10
ATOM     10  C   UNL     1      47.591   1.897   6.889  0.00  0.00    +0.000 C 
ATOM     11  N   UNL     1      48.702   2.487   6.363  0.00  0.00    +0.000 N 
ATOM     12  O   UNL     1      47.424   0.691   6.745  0.00  0.00    +0.000 OA
ATOM     13  H   UNL     1      48.969   3.454   6.466  0.00  0.00    +0.000 HD
ATOM     14  H   UNL     1      49.355   1.873   5.890  0.00  0.00    +0.000 HD
ENDBRANCH   6  10
ENDBRANCH   1   9
BRANCH   1  15
ATOM     15  C   UNL     1      44.132   4.877  11.544  0.00  0.00    +0.000 C 
ATOM     16  C   UNL     1      43.294   3.946  12.399  0.00  0.00    +0.000 C 
ATOM     17  C   UNL     1      42.974   5.400  12.395  0.00  0.00    +0.000 C 
BRANCH  15  18
ATOM     18  C   UNL     1      45.519   5.315  12.025  0.00  0.00    +0.000 A 
ATOM     19  C   UNL     1      46.179   4.647  13.071  0.00  0.00    +0.000 A 
ATOM     20  C   UNL     1      47.424   5.076  13.557  0.00  0.00    +0.000 A 
ATOM     21  C   UNL     1      48.038   6.181  12.983  0.00  0.00    +0.000 A 
ATOM     22  C   UNL     1      47.413   6.858  11.941  0.00  0.00    +0.000 A 
ATOM     23  F   UNL     1      47.988   7.932  11.385  0.00  0.00    +0.000 F 
ATOM     24  C   UNL     1      46.171   6.432  11.467  0.00  0.00    +0.000 A 
BRANCH  21  25
ATOM     25  O   UNL     1      49.252   6.621  13.433  0.00  0.00    +0.000 OA
ATOM     26  H   UNL     1      49.137   7.035  14.303  0.00  0.00    +0.000 HD
ENDBRANCH  21  25
ENDBRANCH  15  18
ENDBRANCH   1  15
TORSDOF 5
ENDMDL
MODEL 2
REMARK VINA RESULT:    -8.359      1.761      2.133
REMARK INTER + INTRA:         -10.576
REMARK INTER:                  -9.991
REMARK INTRA:                  -0.586
REMARK UNBOUND:                -0.018
REMARK  Name = 
REMARK  6 active torsions:
REMARK  status: ('A' for Active; 'I' for Inactive)
REMARK    1  A    between atoms: C_1  and  C_2
REMARK    2  A    between atoms: C_4  and  C_5
REMARK    3  A    between atoms: C_10  and  N_11
REMARK    4  A    between atoms: N_11  and  C_12
REMARK    5  A    between atoms: C_12  and  C_13
REMARK    6  A    between atoms: C_16  and  O_17
REMARK                            x       y       z     vdW  Elec       q    Type
REMARK                         _______ _______ _______ _____ _____    ______ ____
ROOT
ATOM      1  N   UNL     1      44.494   5.043  10.251  0.00  0.00    +0.000 N 
ATOM      2  H   UNL     1      43.940   5.808   9.883  0.00  0.00    +0.000 HD
ENDROOT
BRANCH   1   9
ATOM      3  C   UNL     1      44.114   2.192   9.929  0.00  0.00    +0.000 C 
ATOM      4  C   UNL     1      45.072   2.991   9.094  0.00  0.00    +0.000 A 
ATOM      5  C   UNL     1      45.883   2.305   8.174  0.00  0.00    +0.000 A 
ATOM      6  C   UNL     1      46.771   2.993   7.354  0.00  0.00    +0.000 A 
ATOM      7  C   UNL     1      46.786   4.371   7.487  0.00  0.00    +0.000 A 
ATOM      8  N   UNL     1      46.034   5.072   8.389  0.00  0.00    +0.000 NA
ATOM      9  C   UNL     1      45.189   4.389   9.198  0.00  0.00    +0.000 A 
BRANCH   6  10
ATOM     10  C   UNL     1      47.620   2.202   6.422  0.00  0.00    +0.000 C 
ATOM     11  N   UNL     1      48.125   2.794   5.303  0.00  0.00    +0.000 N 
ATOM     12  O   UNL     1      47.883   1.027   6.653  0.00  0.00    +0.000 OA
ATOM     13  H   UNL     1      48.020   3.762   5.041  0.00  0.00    +0.000 HD
ATOM     14  H   UNL     1      48.725   2.219   4.722  0.00  0.00    +0.000 HD
ENDBRANCH   6  10
ENDBRANCH   1   9
BRANCH   1  15
ATOM     15  C   UNL     1      45.092   5.295  11.583  0.00  0.00    +0.000 C 
ATOM     16  C   UNL     1      45.657   4.151  12.403  0.00  0.00    +0.000 C 
ATOM     17  C   UNL     1      44.344   4.735  12.793  0.00  0.00    +0.000 C 
BRANCH  15  18
ATOM     18  C   UNL     1      45.635   6.715  11.777  0.00  0.00    +0.000 A 
ATOM     19  C   UNL     1      47.007   6.959  11.964  0.00  0.00    +0.000 A 
ATOM     20  C   UNL     1      47.506   8.249  12.200  0.00  0.00    +0.000 A 
ATOM     21  C   UNL     1      46.629   9.325  12.234  0.00  0.00    +0.000 A 
ATOM     22  C   UNL     1      45.268   9.117  12.044  0.00  0.00    +0.000 A 
ATOM     23  F   UNL     1      44.409  10.144  12.086  0.00  0.00    +0.000 F 
ATOM     24  C   UNL     1      44.776   7.831  11.819  0.00  0.00    +0.000 A 
BRANCH  21  25
ATOM     25  O   UNL     1      47.087  10.594  12.458  0.00  0.00    +0.000 OA
ATOM     26  H   UNL     1      47.962  10.693  12.051  0.00  0.00    +0.000 HD
ENDBRANCH  21  25
ENDBRANCH  15  18
ENDBRANCH   1  15
TORSDOF 5
ENDMDL
MODEL 3
REMARK VINA RESULT:    -7.163      2.810      6.463
REMARK INTER + INTRA:          -9.066
REMARK INTER:                  -9.054
REMARK INTRA:                  -0.012
REMARK UNBOUND:                -0.018
REMARK  Name = 
REMARK  6 active torsions:
REMARK  status: ('A' for Active; 'I' for Inactive)
REMARK    1  A    between atoms: C_1  and  C_2
REMARK    2  A    between atoms: C_4  and  C_5
REMARK    3  A    between atoms: C_10  and  N_11
REMARK    4  A    between atoms: N_11  and  C_12
REMARK    5  A    between atoms: C_12  and  C_13
REMARK    6  A    between atoms: C_16  and  O_17
REMARK                            x       y       z     vdW  Elec       q    Type
REMARK                         _______ _______ _______ _____ _____    ______ ____
ROOT
ATOM      1  N   UNL     1      44.639   5.027   9.675  0.00  0.00    +0.000 N 
ATOM      2  H   UNL     1      43.694   5.336   9.475  0.00  0.00    +0.000 HD
ENDROOT
BRANCH   1   9
ATOM      3  C   UNL     1      42.963   6.276  11.676  0.00  0.00    +0.000 C 
ATOM      4  C   UNL     1      44.427   6.572  11.532  0.00  0.00    +0.000 A 
ATOM      5  C   UNL     1      44.988   7.566  12.352  0.00  0.00    +0.000 A 
ATOM      6  C   UNL     1      46.344   7.867  12.283  0.00  0.00    +0.000 A 
ATOM      7  C   UNL     1      47.093   7.121  11.387  0.00  0.00    +0.000 A 
ATOM      8  N   UNL     1      46.579   6.166  10.554  0.00  0.00    +0.000 NA
ATOM      9  C   UNL     1      45.253   5.898  10.614  0.00  0.00    +0.000 A 
BRANCH   6  10
ATOM     10  C   UNL     1      46.867   8.950  13.159  0.00  0.00    +0.000 C 
ATOM     11  N   UNL     1      46.874  10.237  12.710  0.00  0.00    +0.000 N 
ATOM     12  O   UNL     1      47.281   8.702  14.287  0.00  0.00    +0.000 OA
ATOM     13  H   UNL     1      46.511  10.563  11.828  0.00  0.00    +0.000 HD
ATOM     14  H   UNL     1      47.208  10.938  13.362  0.00  0.00    +0.000 HD
ENDBRANCH   6  10
ENDBRANCH   1   9
BRANCH   1  15
ATOM     15  C   UNL     1      44.816   3.555   9.696  0.00  0.00    +0.000 C 
ATOM     16  C   UNL     1      43.729   2.656  10.252  0.00  0.00    +0.000 C 
ATOM     17  C   UNL     1      44.951   2.895  11.069  0.00  0.00    +0.000 C 
BRANCH  15  18
ATOM     18  C   UNL     1      45.785   3.018   8.638  0.00  0.00    +0.000 A 
ATOM     19  C   UNL     1      46.466   3.879   7.759  0.00  0.00    +0.000 A 
ATOM     20  C   UNL     1      47.310   3.393   6.749  0.00  0.00    +0.000 A 
ATOM     21  C   UNL     1      47.499   2.023   6.617  0.00  0.00    +0.000 A 
ATOM     22  C   UNL     1      46.846   1.147   7.476  0.00  0.00    +0.000 A 
ATOM     23  F   UNL     1      47.010  -0.177   7.352  0.00  0.00    +0.000 F 
ATOM     24  C   UNL     1      46.000   1.635   8.472  0.00  0.00    +0.000 A 
BRANCH  21  25
ATOM     25  O   UNL     1      48.319   1.520   5.644  0.00  0.00    +0.000 OA
ATOM     26  H   UNL     1      48.442   2.191   4.954  0.00  0.00    +0.000 HD
ENDBRANCH  21  25
ENDBRANCH  15  18
ENDBRANCH   1  15
TORSDOF 5
ENDMDL
MODEL 4
REMARK VINA RESULT:    -7.111      2.830      6.390
REMARK INTER + INTRA:          -9.000
REMARK INTER:                  -8.721
REMARK INTRA:                  -0.278
REMARK UNBOUND:                -0.018
REMARK  Name = 
REMARK  6 active torsions:
REMARK  status: ('A' for Active; 'I' for Inactive)
REMARK    1  A    between atoms: C_1  and  C_2
REMARK    2  A    between atoms: C_4  and  C_5
REMARK    3  A    between atoms: C_10  and  N_11
REMARK    4  A    between atoms: N_11  and  C_12
REMARK    5  A    between atoms: C_12  and  C_13
REMARK    6  A    between atoms: C_16  and  O_17
REMARK                            x       y       z     vdW  Elec       q    Type
REMARK                         _______ _______ _______ _____ _____    ______ ____
ROOT
ATOM      1  N   UNL     1      45.342   4.526  12.312  0.00  0.00    +0.000 N 
ATOM      2  H   UNL     1      45.734   3.634  12.591  0.00  0.00    +0.000 HD
ENDROOT
BRANCH   1   9
ATOM      3  C   UNL     1      47.049   4.360  14.643  0.00  0.00    +0.000 C 
ATOM      4  C   UNL     1      47.056   5.530  13.703  0.00  0.00    +0.000 A 
ATOM      5  C   UNL     1      47.868   6.633  14.021  0.00  0.00    +0.000 A 
ATOM      6  C   UNL     1      47.936   7.736  13.176  0.00  0.00    +0.000 A 
ATOM      7  C   UNL     1      47.185   7.666  12.015  0.00  0.00    +0.000 A 
ATOM      8  N   UNL     1      46.363   6.624  11.684  0.00  0.00    +0.000 NA
ATOM      9  C   UNL     1      46.286   5.566  12.526  0.00  0.00    +0.000 A 
BRANCH   6  10
ATOM     10  C   UNL     1      48.794   8.881  13.587  0.00  0.00    +0.000 C 
ATOM     11  N   UNL     1      48.217  10.008  14.092  0.00  0.00    +0.000 N 
ATOM     12  O   UNL     1      50.014   8.819  13.490  0.00  0.00    +0.000 OA
ATOM     13  H   UNL     1      47.235  10.148  14.267  0.00  0.00    +0.000 HD
ATOM     14  H   UNL     1      48.851  10.742  14.389  0.00  0.00    +0.000 HD
ENDBRANCH   6  10
ENDBRANCH   1   9
BRANCH   1  15
ATOM     15  C   UNL     1      44.454   4.468  11.127  0.00  0.00    +0.000 C 
ATOM     16  C   UNL     1      43.292   5.434  10.987  0.00  0.00    +0.000 C 
ATOM     17  C   UNL     1      43.011   4.022  11.367  0.00  0.00    +0.000 C 
BRANCH  15  18
ATOM     18  C   UNL     1      45.102   3.867   9.876  0.00  0.00    +0.000 A 
ATOM     19  C   UNL     1      45.629   4.680   8.857  0.00  0.00    +0.000 A 
ATOM     20  C   UNL     1      46.172   4.140   7.682  0.00  0.00    +0.000 A 
ATOM     21  C   UNL     1      46.211   2.760   7.518  0.00  0.00    +0.000 A 
ATOM     22  C   UNL     1      45.706   1.930   8.512  0.00  0.00    +0.000 A 
ATOM     23  F   UNL     1      45.727   0.599   8.363  0.00  0.00    +0.000 F 
ATOM     24  C   UNL     1      45.158   2.473   9.675  0.00  0.00    +0.000 A 
BRANCH  21  25
ATOM     25  O   UNL     1      46.737   2.205   6.386  0.00  0.00    +0.000 OA
ATOM     26  H   UNL     1      47.591   1.794   6.599  0.00  0.00    +0.000 HD
ENDBRANCH  21  25
ENDBRANCH  15  18
ENDBRANCH   1  15
TORSDOF 5
ENDMDL
MODEL 5
REMARK VINA RESULT:    -6.979      2.993      6.554
REMARK INTER + INTRA:          -8.832
REMARK INTER:                  -8.855
REMARK INTRA:                   0.023
REMARK UNBOUND:                -0.018
REMARK  Name = 
REMARK  6 active torsions:
REMARK  status: ('A' for Active; 'I' for Inactive)
REMARK    1  A    between atoms: C_1  and  C_2
REMARK    2  A    between atoms: C_4  and  C_5
REMARK    3  A    between atoms: C_10  and  N_11
REMARK    4  A    between atoms: N_11  and  C_12
REMARK    5  A    between atoms: C_12  and  C_13
REMARK    6  A    between atoms: C_16  and  O_17
REMARK                            x       y       z     vdW  Elec       q    Type
REMARK                         _______ _______ _______ _____ _____    ______ ____
ROOT
ATOM      1  N   UNL     1      45.345   4.840  12.032  0.00  0.00    +0.000 N 
ATOM      2  H   UNL     1      46.235   4.409  12.256  0.00  0.00    +0.000 HD
ENDROOT
BRANCH   1   9
ATOM      3  C   UNL     1      47.804   6.045  12.967  0.00  0.00    +0.000 C 
ATOM      4  C   UNL     1      46.660   6.842  12.413  0.00  0.00    +0.000 A 
ATOM      5  C   UNL     1      46.756   8.244  12.431  0.00  0.00    +0.000 A 
ATOM      6  C   UNL     1      45.739   9.036  11.907  0.00  0.00    +0.000 A 
ATOM      7  C   UNL     1      44.659   8.364  11.359  0.00  0.00    +0.000 A 
ATOM      8  N   UNL     1      44.516   7.004  11.348  0.00  0.00    +0.000 NA
ATOM      9  C   UNL     1      45.502   6.244  11.881  0.00  0.00    +0.000 A 
BRANCH   6  10
ATOM     10  C   UNL     1      45.892  10.514  11.984  0.00  0.00    +0.000 C 
ATOM     11  N   UNL     1      44.784  11.306  12.037  0.00  0.00    +0.000 N 
ATOM     12  O   UNL     1      47.004  11.030  12.013  0.00  0.00    +0.000 OA
ATOM     13  H   UNL     1      43.827  10.990  12.074  0.00  0.00    +0.000 HD
ATOM     14  H   UNL     1      44.948  12.303  12.124  0.00  0.00    +0.000 HD
ENDBRANCH   6  10
ENDBRANCH   1   9
BRANCH   1  15
ATOM     15  C   UNL     1      44.464   4.024  11.163  0.00  0.00    +0.000 C 
ATOM     16  C   UNL     1      42.955   4.150  11.260  0.00  0.00    +0.000 C 
ATOM     17  C   UNL     1      43.616   2.953  11.851  0.00  0.00    +0.000 C 
BRANCH  15  18
ATOM     18  C   UNL     1      45.109   3.573   9.849  0.00  0.00    +0.000 A 
ATOM     19  C   UNL     1      45.486   4.497   8.859  0.00  0.00    +0.000 A 
ATOM     20  C   UNL     1      46.024   4.090   7.629  0.00  0.00    +0.000 A 
ATOM     21  C   UNL     1      46.212   2.736   7.380  0.00  0.00    +0.000 A 
ATOM     22  C   UNL     1      45.857   1.799   8.343  0.00  0.00    +0.000 A 
ATOM     23  F   UNL     1      46.022   0.489   8.112  0.00  0.00    +0.000 F 
ATOM     24  C   UNL     1      45.313   2.209   9.561  0.00  0.00    +0.000 A 
BRANCH  21  25
ATOM     25  O   UNL     1      46.737   2.309   6.192  0.00  0.00    +0.000 OA
ATOM     26  H   UNL     1      47.421   2.936   5.903  0.00  0.00    +0.000 HD
ENDBRANCH  21  25
ENDBRANCH  15  18
ENDBRANCH   1  15
TORSDOF 5
ENDMDL
MODEL 6
REMARK VINA RESULT:    -6.889      4.896      7.719
REMARK INTER + INTRA:          -8.719
REMARK INTER:                  -8.147
REMARK INTRA:                  -0.572
REMARK UNBOUND:                -0.018
REMARK  Name = 
REMARK  6 active torsions:
REMARK  status: ('A' for Active; 'I' for Inactive)
REMARK    1  A    between atoms: C_1  and  C_2
REMARK    2  A    between atoms: C_4  and  C_5
REMARK    3  A    between atoms: C_10  and  N_11
REMARK    4  A    between atoms: N_11  and  C_12
REMARK    5  A    between atoms: C_12  and  C_13
REMARK    6  A    between atoms: C_16  and  O_17
REMARK                            x       y       z     vdW  Elec       q    Type
REMARK                         _______ _______ _______ _____ _____    ______ ____
ROOT
ATOM      1  N   UNL     1      47.145   5.215  15.601  0.00  0.00    +0.000 N 
ATOM      2  H   UNL     1      46.244   5.108  16.053  0.00  0.00    +0.000 HD
ENDROOT
BRANCH   1   9
ATOM      3  C   UNL     1      49.099   6.401  17.376  0.00  0.00    +0.000 C 
ATOM      4  C   UNL     1      49.106   4.947  17.003  0.00  0.00    +0.000 A 
ATOM      5  C   UNL     1      50.163   4.146  17.469  0.00  0.00    +0.000 A 
ATOM      6  C   UNL     1      50.210   2.787  17.178  0.00  0.00    +0.000 A 
ATOM      7  C   UNL     1      49.157   2.282  16.432  0.00  0.00    +0.000 A 
ATOM      8  N   UNL     1      48.127   3.034  15.938  0.00  0.00    +0.000 NA
ATOM      9  C   UNL     1      48.104   4.360  16.208  0.00  0.00    +0.000 A 
BRANCH   6  10
ATOM     10  C   UNL     1      51.371   2.003  17.680  0.00  0.00    +0.000 C 
ATOM     11  N   UNL     1      51.261   0.651  17.823  0.00  0.00    +0.000 N 
ATOM     12  O   UNL     1      52.432   2.554  17.954  0.00  0.00    +0.000 OA
ATOM     13  H   UNL     1      50.462   0.089  17.579  0.00  0.00    +0.000 HD
ATOM     14  H   UNL     1      52.095   0.164  18.135  0.00  0.00    +0.000 HD
ENDBRANCH   6  10
ENDBRANCH   1   9
BRANCH   1  15
ATOM     15  C   UNL     1      47.080   5.453  14.139  0.00  0.00    +0.000 C 
ATOM     16  C   UNL     1      48.331   5.813  13.361  0.00  0.00    +0.000 C 
ATOM     17  C   UNL     1      47.339   6.882  13.660  0.00  0.00    +0.000 C 
BRANCH  15  18
ATOM     18  C   UNL     1      45.917   4.749  13.433  0.00  0.00    +0.000 A 
ATOM     19  C   UNL     1      46.087   3.505  12.798  0.00  0.00    +0.000 A 
ATOM     20  C   UNL     1      45.043   2.881  12.098  0.00  0.00    +0.000 A 
ATOM     21  C   UNL     1      43.796   3.492  12.042  0.00  0.00    +0.000 A 
ATOM     22  C   UNL     1      43.596   4.717  12.667  0.00  0.00    +0.000 A 
ATOM     23  F   UNL     1      42.403   5.323  12.611  0.00  0.00    +0.000 F 
ATOM     24  C   UNL     1      44.640   5.338  13.353  0.00  0.00    +0.000 A 
BRANCH  21  25
ATOM     25  O   UNL     1      42.759   2.906  11.371  0.00  0.00    +0.000 OA
ATOM     26  H   UNL     1      43.101   2.473  10.572  0.00  0.00    +0.000 HD
ENDBRANCH  21  25
ENDBRANCH  15  18
ENDBRANCH   1  15
TORSDOF 5
ENDMDL
MODEL 7
REMARK VINA RESULT:    -6.519      2.695      6.242
REMARK INTER + INTRA:          -8.253
REMARK INTER:                  -8.486
REMARK INTRA:                   0.233
REMARK UNBOUND:                -0.018
REMARK  Name = 
REMARK  6 active torsions:
REMARK  status: ('A' for Active; 'I' for Inactive)
REMARK    1  A    between atoms: C_1  and  C_2
REMARK    2  A    between atoms: C_4  and  C_5
REMARK    3  A    between atoms: C_10  and  N_11
REMARK    4  A    between atoms: N_11  and  C_12
REMARK    5  A    between atoms: C_12  and  C_13
REMARK    6  A    between atoms: C_16  and  O_17
REMARK                            x       y       z     vdW  Elec       q    Type
REMARK                         _______ _______ _______ _____ _____    ______ ____
ROOT
ATOM      1  N   UNL     1      44.755   6.726  11.218  0.00  0.00    +0.000 N 
ATOM      2  H   UNL     1      44.194   7.570  11.186  0.00  0.00    +0.000 HD
ENDROOT
BRANCH   1   9
ATOM      3  C   UNL     1      45.074   9.296  12.509  0.00  0.00    +0.000 C 
ATOM      4  C   UNL     1      46.060   8.175  12.660  0.00  0.00    +0.000 A 
ATOM      5  C   UNL     1      47.236   8.418  13.391  0.00  0.00    +0.000 A 
ATOM      6  C   UNL     1      48.175   7.411  13.587  0.00  0.00    +0.000 A 
ATOM      7  C   UNL     1      47.871   6.174  13.043  0.00  0.00    +0.000 A 
ATOM      8  N   UNL     1      46.753   5.907  12.302  0.00  0.00    +0.000 NA
ATOM      9  C   UNL     1      45.856   6.901  12.099  0.00  0.00    +0.000 A 
BRANCH   6  10
ATOM     10  C   UNL     1      49.410   7.743  14.347  0.00  0.00    +0.000 C 
ATOM     11  N   UNL     1      49.797   6.949  15.386  0.00  0.00    +0.000 N 
ATOM     12  O   UNL     1      50.094   8.715  14.044  0.00  0.00    +0.000 OA
ATOM     13  H   UNL     1      49.345   6.101  15.688  0.00  0.00    +0.000 HD
ATOM     14  H   UNL     1      50.665   7.203  15.846  0.00  0.00    +0.000 HD
ENDBRANCH   6  10
ENDBRANCH   1   9
BRANCH   1  15
ATOM     15  C   UNL     1      43.982   5.465  11.126  0.00  0.00    +0.000 C 
ATOM     16  C   UNL     1      42.509   5.435  11.486  0.00  0.00    +0.000 C 
ATOM     17  C   UNL     1      43.494   4.856  12.441  0.00  0.00    +0.000 C 
BRANCH  15  18
ATOM     18  C   UNL     1      44.545   4.447  10.128  0.00  0.00    +0.000 A 
ATOM     19  C   UNL     1      44.220   3.081  10.208  0.00  0.00    +0.000 A 
ATOM     20  C   UNL     1      44.776   2.134   9.335  0.00  0.00    +0.000 A 
ATOM     21  C   UNL     1      45.661   2.550   8.348  0.00  0.00    +0.000 A 
ATOM     22  C   UNL     1      45.995   3.895   8.239  0.00  0.00    +0.000 A 
ATOM     23  F   UNL     1      46.855   4.309   7.299  0.00  0.00    +0.000 F 
ATOM     24  C   UNL     1      45.446   4.832   9.115  0.00  0.00    +0.000 A 
BRANCH  21  25
ATOM     25  O   UNL     1      46.215   1.651   7.481  0.00  0.00    +0.000 OA
ATOM     26  H   UNL     1      45.510   1.113   7.086  0.00  0.00    +0.000 HD
ENDBRANCH  21  25
ENDBRANCH  15  18
ENDBRANCH   1  15
TORSDOF 5
ENDMDL
MODEL 8
REMARK VINA RESULT:    -6.449      4.035      7.331
REMARK INTER + INTRA:          -8.164
REMARK INTER:                  -8.044
REMARK INTRA:                  -0.121
REMARK UNBOUND:                -0.018
REMARK  Name = 
REMARK  6 active torsions:
REMARK  status: ('A' for Active; 'I' for Inactive)
REMARK    1  A    between atoms: C_1  and  C_2
REMARK    2  A    between atoms: C_4  and  C_5
REMARK    3  A    between atoms: C_10  and  N_11
REMARK    4  A    between atoms: N_11  and  C_12
REMARK    5  A    between atoms: C_12  and  C_13
REMARK    6  A    between atoms: C_16  and  O_17
REMARK                            x       y       z     vdW  Elec       q    Type
REMARK                         _______ _______ _______ _____ _____    ______ ____
ROOT
ATOM      1  N   UNL     1      47.451   5.924  12.863  0.00  0.00    +0.000 N 
ATOM      2  H   UNL     1      48.228   6.494  12.547  0.00  0.00    +0.000 HD
ENDROOT
BRANCH   1   9
ATOM      3  C   UNL     1      48.781   7.814  14.605  0.00  0.00    +0.000 C 
ATOM      4  C   UNL     1      48.347   6.450  15.055  0.00  0.00    +0.000 A 
ATOM      5  C   UNL     1      48.681   6.042  16.358  0.00  0.00    +0.000 A 
ATOM      6  C   UNL     1      48.285   4.800  16.841  0.00  0.00    +0.000 A 
ATOM      7  C   UNL     1      47.535   4.017  15.978  0.00  0.00    +0.000 A 
ATOM      8  N   UNL     1      47.214   4.367  14.695  0.00  0.00    +0.000 NA
ATOM      9  C   UNL     1      47.625   5.569  14.228  0.00  0.00    +0.000 A 
BRANCH   6  10
ATOM     10  C   UNL     1      48.696   4.420  18.219  0.00  0.00    +0.000 C 
ATOM     11  N   UNL     1      49.290   3.212  18.438  0.00  0.00    +0.000 N 
ATOM     12  O   UNL     1      48.521   5.185  19.161  0.00  0.00    +0.000 OA
ATOM     13  H   UNL     1      49.531   2.531  17.735  0.00  0.00    +0.000 HD
ATOM     14  H   UNL     1      49.582   3.021  19.390  0.00  0.00    +0.000 HD
ENDBRANCH   6  10
ENDBRANCH   1   9
BRANCH   1  15
ATOM     15  C   UNL     1      46.138   6.289  12.281  0.00  0.00    +0.000 C 
ATOM     16  C   UNL     1      45.989   7.544  11.442  0.00  0.00    +0.000 C 
ATOM     17  C   UNL     1      45.461   7.543  12.835  0.00  0.00    +0.000 C 
BRANCH  15  18
ATOM     18  C   UNL     1      45.191   5.105  12.059  0.00  0.00    +0.000 A 
ATOM     19  C   UNL     1      44.303   4.675  13.061  0.00  0.00    +0.000 A 
ATOM     20  C   UNL     1      43.474   3.556  12.888  0.00  0.00    +0.000 A 
ATOM     21  C   UNL     1      43.511   2.857  11.689  0.00  0.00    +0.000 A 
ATOM     22  C   UNL     1      44.373   3.263  10.676  0.00  0.00    +0.000 A 
ATOM     23  F   UNL     1      44.427   2.591   9.518  0.00  0.00    +0.000 F 
ATOM     24  C   UNL     1      45.202   4.370  10.856  0.00  0.00    +0.000 A 
BRANCH  21  25
ATOM     25  O   UNL     1      42.713   1.765  11.490  0.00  0.00    +0.000 OA
ATOM     26  H   UNL     1      42.440   1.736  10.559  0.00  0.00    +0.000 HD
ENDBRANCH  21  25
ENDBRANCH  15  18
ENDBRANCH   1  15
TORSDOF 5
ENDMDL
MODEL 9
REMARK VINA RESULT:    -6.432      4.687      6.541
REMARK INTER + INTRA:          -8.142
REMARK INTER:                  -7.892
REMARK INTRA:                  -0.250
REMARK UNBOUND:                -0.018
REMARK  Name = 
REMARK  6 active torsions:
REMARK  status: ('A' for Active; 'I' for Inactive)
REMARK    1  A    between atoms: C_1  and  C_2
REMARK    2  A    between atoms: C_4  and  C_5
REMARK    3  A    between atoms: C_10  and  N_11
REMARK    4  A    between atoms: N_11  and  C_12
REMARK    5  A    between atoms: C_12  and  C_13
REMARK    6  A    between atoms: C_16  and  O_17
REMARK                            x       y       z     vdW  Elec       q    Type
REMARK                         _______ _______ _______ _____ _____    ______ ____
ROOT
ATOM      1  N   UNL     1      48.372   5.851  13.928  0.00  0.00    +0.000 N 
ATOM      2  H   UNL     1      48.798   4.931  13.910  0.00  0.00    +0.000 HD
ENDROOT
BRANCH   1   9
ATOM      3  C   UNL     1      48.101   7.455  11.535  0.00  0.00    +0.000 C 
ATOM      4  C   UNL     1      46.967   6.674  12.131  0.00  0.00    +0.000 A 
ATOM      5  C   UNL     1      45.694   6.800  11.547  0.00  0.00    +0.000 A 
ATOM      6  C   UNL     1      44.609   6.082  12.039  0.00  0.00    +0.000 A 
ATOM      7  C   UNL     1      44.866   5.236  13.105  0.00  0.00    +0.000 A 
ATOM      8  N   UNL     1      46.082   5.108  13.717  0.00  0.00    +0.000 NA
ATOM      9  C   UNL     1      47.126   5.829  13.245  0.00  0.00    +0.000 A 
BRANCH   6  10
ATOM     10  C   UNL     1      43.285   6.282  11.391  0.00  0.00    +0.000 C 
ATOM     11  N   UNL     1      42.866   7.544  11.088  0.00  0.00    +0.000 N 
ATOM     12  O   UNL     1      42.569   5.326  11.113  0.00  0.00    +0.000 OA
ATOM     13  H   UNL     1      43.391   8.394  11.220  0.00  0.00    +0.000 HD
ATOM     14  H   UNL     1      41.972   7.619  10.615  0.00  0.00    +0.000 HD
ENDBRANCH   6  10
ENDBRANCH   1   9
BRANCH   1  15
ATOM     15  C   UNL     1      48.598   6.613  15.179  0.00  0.00    +0.000 C 
ATOM     16  C   UNL     1      48.324   8.104  15.233  0.00  0.00    +0.000 C 
ATOM     17  C   UNL     1      49.736   7.635  15.169  0.00  0.00    +0.000 C 
BRANCH  15  18
ATOM     18  C   UNL     1      48.512   5.774  16.458  0.00  0.00    +0.000 A 
ATOM     19  C   UNL     1      49.130   6.188  17.652  0.00  0.00    +0.000 A 
ATOM     20  C   UNL     1      49.106   5.399  18.811  0.00  0.00    +0.000 A 
ATOM     21  C   UNL     1      48.440   4.180  18.796  0.00  0.00    +0.000 A 
ATOM     22  C   UNL     1      47.812   3.748  17.633  0.00  0.00    +0.000 A 
ATOM     23  F   UNL     1      47.176   2.570  17.599  0.00  0.00    +0.000 F 
ATOM     24  C   UNL     1      47.847   4.532  16.479  0.00  0.00    +0.000 A 
BRANCH  21  25
ATOM     25  O   UNL     1      48.397   3.391  19.911  0.00  0.00    +0.000 OA
ATOM     26  H   UNL     1      48.527   3.945  20.698  0.00  0.00    +0.000 HD
ENDBRANCH  21  25
ENDBRANCH  15  18
ENDBRANCH   1  15
TORSDOF 5
ENDMDL
