MODEL 1
REMARK VINA RESULT:    -7.965      0.000      0.000
REMARK INTER + INTRA:         -11.378
REMARK INTER:                 -10.759
REMARK INTRA:                  -0.619
REMARK UNBOUND:                -0.619
REMARK  Name = 
REMARK  6 active torsions:
REMARK  status: ('A' for Active; 'I' for Inactive)
REMARK    1  A    between atoms: C_2  and  C_3
REMARK    2  A    between atoms: C_6  and  N_7
REMARK    3  A    between atoms: N_7  and  C_8
REMARK    4  A    between atoms: C_8  and  C_9
REMARK    5  A    between atoms: C_13  and  O_14
REMARK    6  A    between atoms: O_14  and  C_15
REMARK                            x       y       z     vdW  Elec       q    Type
REMARK                         _______ _______ _______ _____ _____    ______ ____
ROOT
ATOM      1  C   UNL     1      43.920   4.801  11.358  0.00  0.00    +0.000 C 
ATOM      2  C   UNL     1      42.681   4.814  12.238  0.00  0.00    +0.000 C 
ATOM      3  C   UNL     1      42.980   5.981  11.361  0.00  0.00    +0.000 C 
ENDROOT
BRANCH   1   4
ATOM      4  C   UNL     1      45.294   4.918  11.995  0.00  0.00    +0.000 A 
ATOM      5  C   UNL     1      46.047   6.101  11.874  0.00  0.00    +0.000 A 
ATOM      6  C   UNL     1      47.164   6.331  12.674  0.00  0.00    +0.000 A 
ATOM      7  C   UNL     1      47.573   5.358  13.581  0.00  0.00    +0.000 A 
ATOM      8  C   UNL     1      46.912   4.131  13.651  0.00  0.00    +0.000 A 
ATOM      9  C   UNL     1      45.770   3.927  12.877  0.00  0.00    +0.000 A 
BRANCH   8  10
ATOM     10  O   UNL     1      47.427   3.260  14.562  0.00  0.00    +0.000 OA
BRANCH  10  11
ATOM     11  C   UNL     1      47.496   3.653  15.923  0.00  0.00    +0.000 C 
ATOM     12  F   UNL     1      48.551   4.445  16.210  0.00  0.00    +0.000 F 
ATOM     13  F   UNL     1      46.371   4.342  16.224  0.00  0.00    +0.000 F 
ATOM     14  F   UNL     1      47.542   2.559  16.712  0.00  0.00    +0.000 F 
ENDBRANCH  10  11
ENDBRANCH   8  10
ENDBRANCH   1   4
BRANCH   1  15
ATOM     15  N   UNL     1      43.900   3.778  10.326  0.00  0.00    +0.000 N 
ATOM     16  H   UNL     1      43.222   3.024  10.379  0.00  0.00    +0.000 HD
BRANCH  15  20
ATOM     17  C   UNL     1      46.608   2.633   7.487  0.00  0.00    +0.000 A 
ATOM     18  C   UNL     1      46.031   1.750   8.380  0.00  0.00    +0.000 A 
ATOM     19  N   UNL     1      45.170   2.146   9.348  0.00  0.00    +0.000 NA
ATOM     20  C   UNL     1      44.877   3.463   9.399  0.00  0.00    +0.000 A 
ATOM     21  C   UNL     1      45.490   4.349   8.516  0.00  0.00    +0.000 A 
ATOM     22  N   UNL     1      46.362   3.964   7.543  0.00  0.00    +0.000 NA
BRANCH  17  24
ATOM     23  N   UNL     1      48.201   1.735   5.650  0.00  0.00    +0.000 NA
ATOM     24  C   UNL     1      47.469   2.160   6.451  0.00  0.00    +0.000 C 
ENDBRANCH  17  24
ENDBRANCH  15  20
ENDBRANCH   1  15
TORSDOF 6
ENDMDL
MODEL 2
REMARK VINA RESULT:    -7.091      4.957      7.347
REMARK INTER + INTRA:         -10.197
REMARK INTER:                  -9.610
REMARK INTRA:                  -0.587
REMARK UNBOUND:                -0.619
REMARK  Name = 
REMARK  6 active torsions:
REMARK  status: ('A' for Active; 'I' for Inactive)
REMARK    1  A    between atoms: C_2  and  C_3
REMARK    2  A    between atoms: C_6  and  N_7
REMARK    3  A    between atoms: N_7  and  C_8
REMARK    4  A    between atoms: C_8  and  C_9
REMARK    5  A    between atoms: C_13  and  O_14
REMARK    6  A    between atoms: O_14  and  C_15
REMARK                            x       y       z     vdW  Elec       q    Type
REMARK                         _______ _______ _______ _____ _____    ______ ____
ROOT
ATOM      1  C   UNL     1      45.405   5.748  11.705  0.00  0.00    +0.000 C 
ATOM      2  C   UNL     1      44.845   7.118  11.358  0.00  0.00    +0.000 C 
ATOM      3  C   UNL     1      44.176   6.285  12.398  0.00  0.00    +0.000 C 
ENDROOT
BRANCH   1   4
ATOM      4  C   UNL     1      45.282   4.612  10.704  0.00  0.00    +0.000 A 
ATOM      5  C   UNL     1      44.581   3.436  11.030  0.00  0.00    +0.000 A 
ATOM      6  C   UNL     1      44.217   2.517  10.048  0.00  0.00    +0.000 A 
ATOM      7  C   UNL     1      44.589   2.739   8.726  0.00  0.00    +0.000 A 
ATOM      8  C   UNL     1      45.375   3.840   8.385  0.00  0.00    +0.000 A 
ATOM      9  C   UNL     1      45.698   4.777   9.367  0.00  0.00    +0.000 A 
BRANCH   8  10
ATOM     10  O   UNL     1      45.688   3.927   7.063  0.00  0.00    +0.000 OA
BRANCH  10  11
ATOM     11  C   UNL     1      46.725   3.108   6.548  0.00  0.00    +0.000 C 
ATOM     12  F   UNL     1      46.467   1.785   6.629  0.00  0.00    +0.000 F 
ATOM     13  F   UNL     1      46.898   3.414   5.242  0.00  0.00    +0.000 F 
ATOM     14  F   UNL     1      47.879   3.370   7.198  0.00  0.00    +0.000 F 
ENDBRANCH  10  11
ENDBRANCH   8  10
ENDBRANCH   1   4
BRANCH   1  15
ATOM     15  N   UNL     1      46.729   5.787  12.303  0.00  0.00    +0.000 N 
ATOM     16  H   UNL     1      47.542   5.949  11.716  0.00  0.00    +0.000 HD
BRANCH  15  20
ATOM     17  C   UNL     1      47.844   4.684  16.077  0.00  0.00    +0.000 A 
ATOM     18  C   UNL     1      48.281   5.846  15.470  0.00  0.00    +0.000 A 
ATOM     19  N   UNL     1      47.943   6.180  14.201  0.00  0.00    +0.000 NA
ATOM     20  C   UNL     1      47.133   5.324  13.542  0.00  0.00    +0.000 A 
ATOM     21  C   UNL     1      46.726   4.140  14.152  0.00  0.00    +0.000 A 
ATOM     22  N   UNL     1      47.064   3.789  15.424  0.00  0.00    +0.000 NA
BRANCH  17  24
ATOM     23  N   UNL     1      48.430   4.225  18.560  0.00  0.00    +0.000 NA
ATOM     24  C   UNL     1      48.185   4.401  17.435  0.00  0.00    +0.000 C 
ENDBRANCH  17  24
ENDBRANCH  15  20
ENDBRANCH   1  15
TORSDOF 6
ENDMDL
MODEL 3
REMARK VINA RESULT:    -7.074      2.749      3.322
REMARK INTER + INTRA:         -10.174
REMARK INTER:                  -9.236
REMARK INTRA:                  -0.938
REMARK UNBOUND:                -0.619
REMARK  Name = 
REMARK  6 active torsions:
REMARK  status: ('A' for Active; 'I' for Inactive)
REMARK    1  A    between atoms: C_2  and  C_3
REMARK    2  A    between atoms: C_6  and  N_7
REMARK    3  A    between atoms: N_7  and  C_8
REMARK    4  A    between atoms: C_8  and  C_9
REMARK    5  A    between atoms: C_13  and  O_14
REMARK    6  A    between atoms: O_14  and  C_15
REMARK                            x       y       z     vdW  Elec       q    Type
REMARK                         _______ _______ _______ _____ _____    ______ ____
ROOT
ATOM      1  C   UNL     1      43.988   5.095  11.846  0.00  0.00    +0.000 C 
ATOM      2  C   UNL     1      42.593   5.132  12.451  0.00  0.00    +0.000 C 
ATOM      3  C   UNL     1      42.968   6.108  11.389  0.00  0.00    +0.000 C 
ENDROOT
BRANCH   1   4
ATOM      4  C   UNL     1      45.179   5.532  12.680  0.00  0.00    +0.000 A 
ATOM      5  C   UNL     1      45.846   4.621  13.519  0.00  0.00    +0.000 A 
ATOM      6  C   UNL     1      47.093   4.920  14.064  0.00  0.00    +0.000 A 
ATOM      7  C   UNL     1      47.674   6.159  13.813  0.00  0.00    +0.000 A 
ATOM      8  C   UNL     1      46.993   7.125  13.073  0.00  0.00    +0.000 A 
ATOM      9  C   UNL     1      45.764   6.802  12.496  0.00  0.00    +0.000 A 
BRANCH   8  10
ATOM     10  O   UNL     1      47.662   8.301  12.921  0.00  0.00    +0.000 OA
BRANCH  10  11
ATOM     11  C   UNL     1      48.636   8.409  11.895  0.00  0.00    +0.000 C 
ATOM     12  F   UNL     1      48.598   9.581  11.227  0.00  0.00    +0.000 F 
ATOM     13  F   UNL     1      49.860   8.297  12.460  0.00  0.00    +0.000 F 
ATOM     14  F   UNL     1      48.484   7.397  11.015  0.00  0.00    +0.000 F 
ENDBRANCH  10  11
ENDBRANCH   8  10
ENDBRANCH   1   4
BRANCH   1  15
ATOM     15  N   UNL     1      44.277   3.877  11.107  0.00  0.00    +0.000 N 
ATOM     16  H   UNL     1      44.177   2.975  11.564  0.00  0.00    +0.000 HD
BRANCH  15  20
ATOM     17  C   UNL     1      46.153   3.248   7.531  0.00  0.00    +0.000 A 
ATOM     18  C   UNL     1      45.740   2.222   8.357  0.00  0.00    +0.000 A 
ATOM     19  N   UNL     1      45.160   2.440   9.563  0.00  0.00    +0.000 NA
ATOM     20  C   UNL     1      44.984   3.728   9.928  0.00  0.00    +0.000 A 
ATOM     21  C   UNL     1      45.435   4.755   9.102  0.00  0.00    +0.000 A 
ATOM     22  N   UNL     1      46.025   4.548   7.892  0.00  0.00    +0.000 NA
BRANCH  17  24
ATOM     23  N   UNL     1      47.164   2.805   5.185  0.00  0.00    +0.000 NA
ATOM     24  C   UNL     1      46.711   2.969   6.247  0.00  0.00    +0.000 C 
ENDBRANCH  17  24
ENDBRANCH  15  20
ENDBRANCH   1  15
TORSDOF 6
ENDMDL
MODEL 4
REMARK VINA RESULT:    -6.974      4.985      7.008
REMARK INTER + INTRA:         -10.039
REMARK INTER:                  -9.405
REMARK INTRA:                  -0.635
REMARK UNBOUND:                -0.619
REMARK  Name = 
REMARK  6 active torsions:
REMARK  status: ('A' for Active; 'I' for Inactive)
REMARK    1  A    between atoms: C_2  and  C_3
REMARK    2  A    between atoms: C_6  and  N_7
REMARK    3  A    between atoms: N_7  and  C_8
REMARK    4  A    between atoms: C_8  and  C_9
REMARK    5  A    between atoms: C_13  and  O_14
REMARK    6  A    between atoms: O_14  and  C_15
REMARK                            x       y       z     vdW  Elec       q    Type
REMARK                         _______ _______ _______ _____ _____    ______ ____
ROOT
ATOM      1  C   UNL     1      44.511   5.599  11.310  0.00  0.00    +0.000 C 
ATOM      2  C   UNL     1      43.117   6.204  11.361  0.00  0.00    +0.000 C 
ATOM      3  C   UNL     1      43.632   5.426  12.524  0.00  0.00    +0.000 C 
ENDROOT
BRANCH   1   4
ATOM      4  C   UNL     1      44.785   4.422  10.390  0.00  0.00    +0.000 A 
ATOM      5  C   UNL     1      44.391   3.120  10.750  0.00  0.00    +0.000 A 
ATOM      6  C   UNL     1      44.373   2.087   9.815  0.00  0.00    +0.000 A 
ATOM      7  C   UNL     1      44.793   2.331   8.511  0.00  0.00    +0.000 A 
ATOM      8  C   UNL     1      45.290   3.584   8.149  0.00  0.00    +0.000 A 
ATOM      9  C   UNL     1      45.264   4.623   9.080  0.00  0.00    +0.000 A 
BRANCH   8  10
ATOM     10  O   UNL     1      45.689   3.683   6.851  0.00  0.00    +0.000 OA
BRANCH  10  11
ATOM     11  C   UNL     1      46.822   2.945   6.424  0.00  0.00    +0.000 C 
ATOM     12  F   UNL     1      46.639   1.608   6.436  0.00  0.00    +0.000 F 
ATOM     13  F   UNL     1      47.110   3.308   5.153  0.00  0.00    +0.000 F 
ATOM     14  F   UNL     1      47.884   3.249   7.199  0.00  0.00    +0.000 F 
ENDBRANCH  10  11
ENDBRANCH   8  10
ENDBRANCH   1   4
BRANCH   1  15
ATOM     15  N   UNL     1      45.578   6.584  11.242  0.00  0.00    +0.000 N 
ATOM     16  H   UNL     1      45.682   7.157  10.411  0.00  0.00    +0.000 HD
BRANCH  15  20
ATOM     17  C   UNL     1      48.834   7.126  13.652  0.00  0.00    +0.000 A 
ATOM     18  C   UNL     1      48.367   8.095  12.787  0.00  0.00    +0.000 A 
ATOM     19  N   UNL     1      47.315   7.890  11.957  0.00  0.00    +0.000 NA
ATOM     20  C   UNL     1      46.717   6.681  12.021  0.00  0.00    +0.000 A 
ATOM     21  C   UNL     1      47.218   5.700  12.874  0.00  0.00    +0.000 A 
ATOM     22  N   UNL     1      48.278   5.891  13.708  0.00  0.00    +0.000 NA
BRANCH  17  24
ATOM     23  N   UNL     1      50.834   7.602  15.233  0.00  0.00    +0.000 NA
ATOM     24  C   UNL     1      49.913   7.407  14.545  0.00  0.00    +0.000 C 
ENDBRANCH  17  24
ENDBRANCH  15  20
ENDBRANCH   1  15
TORSDOF 6
ENDMDL
MODEL 5
REMARK VINA RESULT:    -6.573      2.380      3.164
REMARK INTER + INTRA:          -9.497
REMARK INTER:                  -9.368
REMARK INTRA:                  -0.129
REMARK UNBOUND:                -0.619
REMARK  Name = 
REMARK  6 active torsions:
REMARK  status: ('A' for Active; 'I' for Inactive)
REMARK    1  A    between atoms: C_2  and  C_3
REMARK    2  A    between atoms: C_6  and  N_7
REMARK    3  A    between atoms: N_7  and  C_8
REMARK    4  A    between atoms: C_8  and  C_9
REMARK    5  A    between atoms: C_13  and  O_14
REMARK    6  A    between atoms: O_14  and  C_15
REMARK                            x       y       z     vdW  Elec       q    Type
REMARK                         _______ _______ _______ _____ _____    ______ ____
ROOT
ATOM      1  C   UNL     1      44.423   5.028  11.513  0.00  0.00    +0.000 C 
ATOM      2  C   UNL     1      44.905   3.891  12.399  0.00  0.00    +0.000 C 
ATOM      3  C   UNL     1      43.621   4.581  12.710  0.00  0.00    +0.000 C 
ENDROOT
BRANCH   1   4
ATOM      4  C   UNL     1      45.154   6.360  11.537  0.00  0.00    +0.000 A 
ATOM      5  C   UNL     1      44.445   7.573  11.481  0.00  0.00    +0.000 A 
ATOM      6  C   UNL     1      45.061   8.785  11.785  0.00  0.00    +0.000 A 
ATOM      7  C   UNL     1      46.414   8.807  12.109  0.00  0.00    +0.000 A 
ATOM      8  C   UNL     1      47.171   7.636  12.070  0.00  0.00    +0.000 A 
ATOM      9  C   UNL     1      46.537   6.422  11.806  0.00  0.00    +0.000 A 
BRANCH   8  10
ATOM     10  O   UNL     1      48.486   7.799  12.384  0.00  0.00    +0.000 OA
BRANCH  10  11
ATOM     11  C   UNL     1      48.865   7.837  13.751  0.00  0.00    +0.000 C 
ATOM     12  F   UNL     1      47.827   7.746  14.608  0.00  0.00    +0.000 F 
ATOM     13  F   UNL     1      49.689   6.791  13.991  0.00  0.00    +0.000 F 
ATOM     14  F   UNL     1      49.546   8.974  14.004  0.00  0.00    +0.000 F 
ENDBRANCH  10  11
ENDBRANCH   8  10
ENDBRANCH   1   4
BRANCH   1  15
ATOM     15  N   UNL     1      44.107   4.622  10.154  0.00  0.00    +0.000 N 
ATOM     16  H   UNL     1      43.141   4.631   9.838  0.00  0.00    +0.000 HD
BRANCH  15  20
ATOM     17  C   UNL     1      46.632   2.682   7.593  0.00  0.00    +0.000 A 
ATOM     18  C   UNL     1      46.486   4.055   7.612  0.00  0.00    +0.000 A 
ATOM     19  N   UNL     1      45.612   4.687   8.432  0.00  0.00    +0.000 NA
ATOM     20  C   UNL     1      44.884   3.908   9.261  0.00  0.00    +0.000 A 
ATOM     21  C   UNL     1      45.016   2.522   9.209  0.00  0.00    +0.000 A 
ATOM     22  N   UNL     1      45.885   1.875   8.385  0.00  0.00    +0.000 NA
BRANCH  17  24
ATOM     23  N   UNL     1      48.349   1.546   6.017  0.00  0.00    +0.000 NA
ATOM     24  C   UNL     1      47.605   2.066   6.747  0.00  0.00    +0.000 C 
ENDBRANCH  17  24
ENDBRANCH  15  20
ENDBRANCH   1  15
TORSDOF 6
ENDMDL
MODEL 6
REMARK VINA RESULT:    -6.535      4.597      7.231
REMARK INTER + INTRA:          -9.446
REMARK INTER:                  -8.723
REMARK INTRA:                  -0.723
REMARK UNBOUND:                -0.619
REMARK  Name = 
REMARK  6 active torsions:
REMARK  status: ('A' for Active; 'I' for Inactive)
REMARK    1  A    between atoms: C_2  and  C_3
REMARK    2  A    between atoms: C_6  and  N_7
REMARK    3  A    between atoms: N_7  and  C_8
REMARK    4  A    between atoms: C_8  and  C_9
REMARK    5  A    between atoms: C_13  and  O_14
REMARK    6  A    between atoms: O_14  and  C_15
REMARK                            x       y       z     vdW  Elec       q    Type
REMARK                         _______ _______ _______ _____ _____    ______ ____
ROOT
ATOM      1  C   UNL     1      46.390   6.879  12.721  0.00  0.00    +0.000 C 
ATOM      2  C   UNL     1      46.766   8.111  11.913  0.00  0.00    +0.000 C 
ATOM      3  C   UNL     1      46.076   8.266  13.225  0.00  0.00    +0.000 C 
ENDROOT
BRANCH   1   4
ATOM      4  C   UNL     1      45.274   5.973  12.231  0.00  0.00    +0.000 A 
ATOM      5  C   UNL     1      44.061   5.875  12.938  0.00  0.00    +0.000 A 
ATOM      6  C   UNL     1      42.938   5.284  12.365  0.00  0.00    +0.000 A 
ATOM      7  C   UNL     1      43.022   4.738  11.089  0.00  0.00    +0.000 A 
ATOM      8  C   UNL     1      44.237   4.723  10.403  0.00  0.00    +0.000 A 
ATOM      9  C   UNL     1      45.346   5.355  10.965  0.00  0.00    +0.000 A 
BRANCH   8  10
ATOM     10  O   UNL     1      44.188   4.138   9.174  0.00  0.00    +0.000 OA
BRANCH  10  11
ATOM     11  C   UNL     1      44.931   2.951   8.950  0.00  0.00    +0.000 C 
ATOM     12  F   UNL     1      46.036   3.132   8.197  0.00  0.00    +0.000 F 
ATOM     13  F   UNL     1      45.325   2.464  10.149  0.00  0.00    +0.000 F 
ATOM     14  F   UNL     1      44.145   2.026   8.359  0.00  0.00    +0.000 F 
ENDBRANCH  10  11
ENDBRANCH   8  10
ENDBRANCH   1   4
BRANCH   1  15
ATOM     15  N   UNL     1      47.532   6.110  13.186  0.00  0.00    +0.000 N 
ATOM     16  H   UNL     1      48.179   5.711  12.513  0.00  0.00    +0.000 HD
BRANCH  15  20
ATOM     17  C   UNL     1      48.122   4.704  16.978  0.00  0.00    +0.000 A 
ATOM     18  C   UNL     1      48.810   5.782  16.458  0.00  0.00    +0.000 A 
ATOM     19  N   UNL     1      48.642   6.212  15.184  0.00  0.00    +0.000 NA
ATOM     20  C   UNL     1      47.744   5.543  14.430  0.00  0.00    +0.000 A 
ATOM     21  C   UNL     1      47.080   4.436  14.955  0.00  0.00    +0.000 A 
ATOM     22  N   UNL     1      47.245   3.990  16.231  0.00  0.00    +0.000 NA
BRANCH  17  24
ATOM     23  N   UNL     1      48.490   4.046  19.459  0.00  0.00    +0.000 NA
ATOM     24  C   UNL     1      48.295   4.321  18.343  0.00  0.00    +0.000 C 
ENDBRANCH  17  24
ENDBRANCH  15  20
ENDBRANCH   1  15
TORSDOF 6
ENDMDL
MODEL 7
REMARK VINA RESULT:    -6.285      1.960      2.773
REMARK INTER + INTRA:          -9.108
REMARK INTER:                  -8.118
REMARK INTRA:                  -0.990
REMARK UNBOUND:                -0.619
REMARK  Name = 
REMARK  6 active torsions:
REMARK  status: ('A' for Active; 'I' for Inactive)
REMARK    1  A    between atoms: C_2  and  C_3
REMARK    2  A    between atoms: C_6  and  N_7
REMARK    3  A    between atoms: N_7  and  C_8
REMARK    4  A    between atoms: C_8  and  C_9
REMARK    5  A    between atoms: C_13  and  O_14
REMARK    6  A    between atoms: O_14  and  C_15
REMARK                            x       y       z     vdW  Elec       q    Type
REMARK                         _______ _______ _______ _____ _____    ______ ____
ROOT
ATOM      1  C   UNL     1      44.291   6.108  11.145  0.00  0.00    +0.000 C 
ATOM      2  C   UNL     1      43.169   7.043  11.566  0.00  0.00    +0.000 C 
ATOM      3  C   UNL     1      44.278   7.552  10.709  0.00  0.00    +0.000 C 
ENDROOT
BRANCH   1   4
ATOM      4  C   UNL     1      45.297   5.630  12.178  0.00  0.00    +0.000 A 
ATOM      5  C   UNL     1      45.071   4.452  12.914  0.00  0.00    +0.000 A 
ATOM      6  C   UNL     1      46.093   3.851  13.646  0.00  0.00    +0.000 A 
ATOM      7  C   UNL     1      47.349   4.446  13.691  0.00  0.00    +0.000 A 
ATOM      8  C   UNL     1      47.577   5.670  13.061  0.00  0.00    +0.000 A 
ATOM      9  C   UNL     1      46.561   6.242  12.294  0.00  0.00    +0.000 A 
BRANCH   8  10
ATOM     10  O   UNL     1      48.842   6.155  13.201  0.00  0.00    +0.000 OA
BRANCH  10  11
ATOM     11  C   UNL     1      49.068   7.230  14.098  0.00  0.00    +0.000 C 
ATOM     12  F   UNL     1      48.127   7.349  15.057  0.00  0.00    +0.000 F 
ATOM     13  F   UNL     1      50.257   7.027  14.712  0.00  0.00    +0.000 F 
ATOM     14  F   UNL     1      49.143   8.390  13.411  0.00  0.00    +0.000 F 
ENDBRANCH  10  11
ENDBRANCH   8  10
ENDBRANCH   1   4
BRANCH   1  15
ATOM     15  N   UNL     1      43.859   5.020  10.284  0.00  0.00    +0.000 N 
ATOM     16  H   UNL     1      42.939   4.609  10.414  0.00  0.00    +0.000 HD
BRANCH  15  20
ATOM     17  C   UNL     1      46.352   2.778   7.947  0.00  0.00    +0.000 A 
ATOM     18  C   UNL     1      46.227   4.148   7.819  0.00  0.00    +0.000 A 
ATOM     19  N   UNL     1      45.364   4.877   8.566  0.00  0.00    +0.000 NA
ATOM     20  C   UNL     1      44.624   4.202   9.472  0.00  0.00    +0.000 A 
ATOM     21  C   UNL     1      44.734   2.816   9.569  0.00  0.00    +0.000 A 
ATOM     22  N   UNL     1      45.593   2.071   8.819  0.00  0.00    +0.000 NA
BRANCH  17  24
ATOM     23  N   UNL     1      48.131   1.459   6.597  0.00  0.00    +0.000 NA
ATOM     24  C   UNL     1      47.314   2.060   7.173  0.00  0.00    +0.000 C 
ENDBRANCH  17  24
ENDBRANCH  15  20
ENDBRANCH   1  15
TORSDOF 6
ENDMDL
MODEL 8
REMARK VINA RESULT:    -6.048      4.484      6.351
REMARK INTER + INTRA:          -8.788
REMARK INTER:                  -7.822
REMARK INTRA:                  -0.966
REMARK UNBOUND:                -0.619
REMARK  Name = 
REMARK  6 active torsions:
REMARK  status: ('A' for Active; 'I' for Inactive)
REMARK    1  A    between atoms: C_2  and  C_3
REMARK    2  A    between atoms: C_6  and  N_7
REMARK    3  A    between atoms: N_7  and  C_8
REMARK    4  A    between atoms: C_8  and  C_9
REMARK    5  A    between atoms: C_13  and  O_14
REMARK    6  A    between atoms: O_14  and  C_15
REMARK                            x       y       z     vdW  Elec       q    Type
REMARK                         _______ _______ _______ _____ _____    ______ ____
ROOT
ATOM      1  C   UNL     1      46.474   4.854  13.934  0.00  0.00    +0.000 C 
ATOM      2  C   UNL     1      46.567   4.150  15.278  0.00  0.00    +0.000 C 
ATOM      3  C   UNL     1      47.466   3.740  14.163  0.00  0.00    +0.000 C 
ENDROOT
BRANCH   1   4
ATOM      4  C   UNL     1      45.260   4.626  13.050  0.00  0.00    +0.000 A 
ATOM      5  C   UNL     1      44.221   5.573  12.995  0.00  0.00    +0.000 A 
ATOM      6  C   UNL     1      43.252   5.524  11.995  0.00  0.00    +0.000 A 
ATOM      7  C   UNL     1      43.283   4.498  11.056  0.00  0.00    +0.000 A 
ATOM      8  C   UNL     1      44.237   3.484  11.145  0.00  0.00    +0.000 A 
ATOM      9  C   UNL     1      45.228   3.564  12.124  0.00  0.00    +0.000 A 
BRANCH   8  10
ATOM     10  O   UNL     1      44.142   2.528  10.180  0.00  0.00    +0.000 OA
BRANCH  10  11
ATOM     11  C   UNL     1      44.947   2.646   9.018  0.00  0.00    +0.000 C 
ATOM     12  F   UNL     1      45.828   3.667   9.064  0.00  0.00    +0.000 F 
ATOM     13  F   UNL     1      45.653   1.500   8.874  0.00  0.00    +0.000 F 
ATOM     14  F   UNL     1      44.160   2.794   7.931  0.00  0.00    +0.000 F 
ENDBRANCH  10  11
ENDBRANCH   8  10
ENDBRANCH   1   4
BRANCH   1  15
ATOM     15  N   UNL     1      46.842   6.259  13.978  0.00  0.00    +0.000 N 
ATOM     16  H   UNL     1      46.190   6.938  14.362  0.00  0.00    +0.000 HD
BRANCH  15  20
ATOM     17  C   UNL     1      49.999   8.000  12.054  0.00  0.00    +0.000 A 
ATOM     18  C   UNL     1      49.986   7.755  13.414  0.00  0.00    +0.000 A 
ATOM     19  N   UNL     1      48.916   7.221  14.051  0.00  0.00    +0.000 NA
ATOM     20  C   UNL     1      47.845   6.914  13.288  0.00  0.00    +0.000 A 
ATOM     21  C   UNL     1      47.858   7.196  11.923  0.00  0.00    +0.000 A 
ATOM     22  N   UNL     1      48.924   7.739  11.273  0.00  0.00    +0.000 NA
BRANCH  17  24
ATOM     23  N   UNL     1      52.087   8.980  10.870  0.00  0.00    +0.000 NA
ATOM     24  C   UNL     1      51.170   8.516  11.420  0.00  0.00    +0.000 C 
ENDBRANCH  17  24
ENDBRANCH  15  20
ENDBRANCH   1  15
TORSDOF 6
ENDMDL
MODEL 9
REMARK VINA RESULT:    -5.865      3.403      5.059
REMARK INTER + INTRA:          -8.541
REMARK INTER:                  -7.649
REMARK INTRA:                  -0.892
REMARK UNBOUND:                -0.619
REMARK  Name = 
REMARK  6 active torsions:
REMARK  status: ('A' for Active; 'I' for Inactive)
REMARK    1  A    between atoms: C_2  and  C_3
REMARK    2  A    between atoms: C_6  and  N_7
REMARK    3  A    between atoms: N_7  and  C_8
REMARK    4  A    between atoms: C_8  and  C_9
REMARK    5  A    between atoms: C_13  and  O_14
REMARK    6  A    between atoms: O_14  and  C_15
REMARK                            x       y       z     vdW  Elec       q    Type
REMARK                         _______ _______ _______ _____ _____    ______ ____
ROOT
ATOM      1  C   UNL     1      47.704   7.954  13.064  0.00  0.00    +0.000 C 
ATOM      2  C   UNL     1      48.102   9.080  12.122  0.00  0.00    +0.000 C 
ATOM      3  C   UNL     1      48.510   7.679  11.818  0.00  0.00    +0.000 C 
ENDROOT
BRANCH   1   4
ATOM      4  C   UNL     1      48.355   7.855  14.432  0.00  0.00    +0.000 A 
ATOM      5  C   UNL     1      48.227   8.896  15.370  0.00  0.00    +0.000 A 
ATOM      6  C   UNL     1      48.566   8.709  16.708  0.00  0.00    +0.000 A 
ATOM      7  C   UNL     1      49.084   7.487  17.122  0.00  0.00    +0.000 A 
ATOM      8  C   UNL     1      49.324   6.469  16.199  0.00  0.00    +0.000 A 
ATOM      9  C   UNL     1      48.941   6.649  14.869  0.00  0.00    +0.000 A 
BRANCH   8  10
ATOM     10  O   UNL     1      49.854   5.333  16.730  0.00  0.00    +0.000 OA
BRANCH  10  11
ATOM     11  C   UNL     1      48.981   4.367  17.293  0.00  0.00    +0.000 C 
ATOM     12  F   UNL     1      47.717   4.435  16.827  0.00  0.00    +0.000 F 
ATOM     13  F   UNL     1      49.462   3.137  16.997  0.00  0.00    +0.000 F 
ATOM     14  F   UNL     1      48.961   4.498  18.637  0.00  0.00    +0.000 F 
ENDBRANCH  10  11
ENDBRANCH   8  10
ENDBRANCH   1   4
BRANCH   1  15
ATOM     15  N   UNL     1      46.270   7.732  13.142  0.00  0.00    +0.000 N 
ATOM     16  H   UNL     1      45.680   8.409  13.616  0.00  0.00    +0.000 HD
BRANCH  15  20
ATOM     17  C   UNL     1      44.228   4.306  12.248  0.00  0.00    +0.000 A 
ATOM     18  C   UNL     1      43.954   5.524  11.657  0.00  0.00    +0.000 A 
ATOM     19  N   UNL     1      44.604   6.664  11.993  0.00  0.00    +0.000 NA
ATOM     20  C   UNL     1      45.564   6.560  12.938  0.00  0.00    +0.000 A 
ATOM     21  C   UNL     1      45.808   5.333  13.551  0.00  0.00    +0.000 A 
ATOM     22  N   UNL     1      45.157   4.182  13.227  0.00  0.00    +0.000 NA
BRANCH  17  24
ATOM     23  N   UNL     1      42.965   2.158  11.532  0.00  0.00    +0.000 NA
ATOM     24  C   UNL     1      43.551   3.123  11.823  0.00  0.00    +0.000 C 
ENDBRANCH  17  24
ENDBRANCH  15  20
ENDBRANCH   1  15
TORSDOF 6
ENDMDL
