MODEL 1
REMARK VINA RESULT:    -7.906      0.000      0.000
REMARK INTER + INTRA:         -12.575
REMARK INTER:                 -11.142
REMARK INTRA:                  -1.433
REMARK UNBOUND:                -1.433
REMARK  Name = 
REMARK  7 active torsions:
REMARK  status: ('A' for Active; 'I' for Inactive)
REMARK    1  A    between atoms: C_2  and  C_4
REMARK    2  A    between atoms: C_4  and  N_5
REMARK    3  A    between atoms: C_4  and  C_18
REMARK    4  A    between atoms: C_6  and  C_8
REMARK    5  A    between atoms: C_21  and  C_22
REMARK    6  A    between atoms: C_22  and  N_23
REMARK    7  A    between atoms: C_24  and  C_26
REMARK                            x       y       z     vdW  Elec       q    Type
REMARK                         _______ _______ _______ _____ _____    ______ ____
ROOT
ATOM      1  C   UNL     1      48.295   7.142  14.139  0.00  0.00    +0.000 C 
ENDROOT
BRANCH   1   2
ATOM      2  C   UNL     1      47.320   6.368  13.264  0.00  0.00    +0.000 A 
ATOM      3  C   UNL     1      46.926   5.072  13.622  0.00  0.00    +0.000 A 
ATOM      4  C   UNL     1      45.990   4.372  12.854  0.00  0.00    +0.000 A 
ATOM      5  C   UNL     1      45.428   4.952  11.708  0.00  0.00    +0.000 A 
ATOM      6  C   UNL     1      45.807   6.250  11.355  0.00  0.00    +0.000 A 
ATOM      7  C   UNL     1      46.748   6.945  12.116  0.00  0.00    +0.000 A 
BRANCH   5   8
ATOM      8  C   UNL     1      44.415   4.203  10.882  0.00  0.00    +0.000 C 
BRANCH   8   9
ATOM      9  N   UNL     1      45.050   3.265   9.990  0.00  0.00    +0.000 N 
ATOM     10  C   UNL     1      45.468   3.644   8.738  0.00  0.00    +0.000 C 
ATOM     11  O   UNL     1      45.304   4.778   8.303  0.00  0.00    +0.000 OA
ATOM     12  H   UNL     1      45.249   2.337  10.329  0.00  0.00    +0.000 HD
BRANCH  10  13
ATOM     13  C   UNL     1      46.122   2.609   7.964  0.00  0.00    +0.000 A 
ATOM     14  C   UNL     1      46.862   2.647   6.793  0.00  0.00    +0.000 A 
ATOM     15  C   UNL     1      47.264   1.326   6.477  0.00  0.00    +0.000 A 
ATOM     16  C   UNL     1      46.767   0.503   7.460  0.00  0.00    +0.000 A 
ATOM     17  N   UNL     1      46.084   1.283   8.355  0.00  0.00    +0.000 N 
ATOM     18  H   UNL     1      45.609   0.958   9.189  0.00  0.00    +0.000 HD
ENDBRANCH  10  13
ENDBRANCH   8   9
ENDBRANCH   5   8
ENDBRANCH   1   2
BRANCH   1  20
ATOM     19  N   UNL     1      47.273   9.195  15.065  0.00  0.00    +0.000 N 
ATOM     20  C   UNL     1      48.077   8.678  14.080  0.00  0.00    +0.000 C 
ATOM     21  O   UNL     1      48.495   9.421  13.195  0.00  0.00    +0.000 OA
ATOM     22  H   UNL     1      47.014  10.168  14.961  0.00  0.00    +0.000 HD
ATOM     23  H   UNL     1      46.619   8.587  15.550  0.00  0.00    +0.000 HD
ENDBRANCH   1  20
BRANCH   1  24
ATOM     24  N   UNL     1      48.176   6.688  15.518  0.00  0.00    +0.000 N 
ATOM     25  C   UNL     1      49.236   6.298  16.283  0.00  0.00    +0.000 C 
ATOM     26  O   UNL     1      50.389   6.343  15.861  0.00  0.00    +0.000 OA
ATOM     27  H   UNL     1      47.232   6.533  15.855  0.00  0.00    +0.000 HD
BRANCH  25  28
ATOM     28  C   UNL     1      48.922   5.894  17.662  0.00  0.00    +0.000 A 
ATOM     29  C   UNL     1      49.168   4.593  18.078  0.00  0.00    +0.000 A 
ATOM     30  S   UNL     1      48.816   4.320  19.726  0.00  0.00    +0.000 S 
ATOM     31  C   UNL     1      48.262   5.915  19.930  0.00  0.00    +0.000 A 
ATOM     32  N   UNL     1      47.790   6.343  21.133  0.00  0.00    +0.000 NA
ATOM     33  C   UNL     1      47.373   7.565  21.139  0.00  0.00    +0.000 A 
ATOM     34  N   UNL     1      47.387   8.399  20.052  0.00  0.00    +0.000 N 
ATOM     35  C   UNL     1      47.891   8.023  18.831  0.00  0.00    +0.000 A 
ATOM     36  O   UNL     1      47.951   8.816  17.900  0.00  0.00    +0.000 OA
ATOM     37  C   UNL     1      48.361   6.651  18.763  0.00  0.00    +0.000 A 
ATOM     38  H   UNL     1      47.060   9.351  20.126  0.00  0.00    +0.000 HD
ENDBRANCH  25  28
ENDBRANCH   1  24
TORSDOF 7
ENDMDL
MODEL 2
REMARK VINA RESULT:    -7.769      2.794      4.565
REMARK INTER + INTRA:         -12.382
REMARK INTER:                 -11.214
REMARK INTRA:                  -1.168
REMARK UNBOUND:                -1.433
REMARK  Name = 
REMARK  7 active torsions:
REMARK  status: ('A' for Active; 'I' for Inactive)
REMARK    1  A    between atoms: C_2  and  C_4
REMARK    2  A    between atoms: C_4  and  N_5
REMARK    3  A    between atoms: C_4  and  C_18
REMARK    4  A    between atoms: C_6  and  C_8
REMARK    5  A    between atoms: C_21  and  C_22
REMARK    6  A    between atoms: C_22  and  N_23
REMARK    7  A    between atoms: C_24  and  C_26
REMARK                            x       y       z     vdW  Elec       q    Type
REMARK                         _______ _______ _______ _____ _____    ______ ____
ROOT
ATOM      1  C   UNL     1      47.006   4.964  15.114  0.00  0.00    +0.000 C 
ENDROOT
BRANCH   1   2
ATOM      2  C   UNL     1      46.173   4.757  13.857  0.00  0.00    +0.000 A 
ATOM      3  C   UNL     1      45.537   5.845  13.244  0.00  0.00    +0.000 A 
ATOM      4  C   UNL     1      44.813   5.675  12.059  0.00  0.00    +0.000 A 
ATOM      5  C   UNL     1      44.706   4.411  11.462  0.00  0.00    +0.000 A 
ATOM      6  C   UNL     1      45.351   3.326  12.061  0.00  0.00    +0.000 A 
ATOM      7  C   UNL     1      46.065   3.494  13.248  0.00  0.00    +0.000 A 
BRANCH   5   8
ATOM      8  C   UNL     1      43.932   4.226  10.182  0.00  0.00    +0.000 C 
BRANCH   8   9
ATOM      9  N   UNL     1      44.674   3.445   9.225  0.00  0.00    +0.000 N 
ATOM     10  C   UNL     1      45.621   4.023   8.414  0.00  0.00    +0.000 C 
ATOM     11  O   UNL     1      45.867   5.223   8.440  0.00  0.00    +0.000 OA
ATOM     12  H   UNL     1      44.537   2.447   9.209  0.00  0.00    +0.000 HD
BRANCH  10  13
ATOM     13  C   UNL     1      46.313   3.112   7.526  0.00  0.00    +0.000 A 
ATOM     14  C   UNL     1      46.840   3.271   6.254  0.00  0.00    +0.000 A 
ATOM     15  C   UNL     1      47.409   2.038   5.850  0.00  0.00    +0.000 A 
ATOM     16  C   UNL     1      47.226   1.148   6.882  0.00  0.00    +0.000 A 
ATOM     17  N   UNL     1      46.569   1.804   7.890  0.00  0.00    +0.000 N 
ATOM     18  H   UNL     1      46.297   1.406   8.781  0.00  0.00    +0.000 HD
ENDBRANCH  10  13
ENDBRANCH   8   9
ENDBRANCH   5   8
ENDBRANCH   1   2
BRANCH   1  20
ATOM     19  N   UNL     1      46.819   3.392  17.014  0.00  0.00    +0.000 N 
ATOM     20  C   UNL     1      47.412   3.632  15.799  0.00  0.00    +0.000 C 
ATOM     21  O   UNL     1      48.261   2.848  15.380  0.00  0.00    +0.000 OA
ATOM     22  H   UNL     1      47.174   2.599  17.532  0.00  0.00    +0.000 HD
ATOM     23  H   UNL     1      46.440   4.168  17.550  0.00  0.00    +0.000 HD
ENDBRANCH   1  20
BRANCH   1  24
ATOM     24  N   UNL     1      48.203   5.724  14.782  0.00  0.00    +0.000 N 
ATOM     25  C   UNL     1      48.855   6.538  15.664  0.00  0.00    +0.000 C 
ATOM     26  O   UNL     1      48.486   6.652  16.830  0.00  0.00    +0.000 OA
ATOM     27  H   UNL     1      48.464   5.738  13.803  0.00  0.00    +0.000 HD
BRANCH  25  28
ATOM     28  C   UNL     1      50.062   7.206  15.154  0.00  0.00    +0.000 A 
ATOM     29  C   UNL     1      51.236   7.179  15.893  0.00  0.00    +0.000 A 
ATOM     30  S   UNL     1      52.555   7.935  15.117  0.00  0.00    +0.000 S 
ATOM     31  C   UNL     1      51.590   8.382  13.789  0.00  0.00    +0.000 A 
ATOM     32  N   UNL     1      52.112   9.088  12.750  0.00  0.00    +0.000 NA
ATOM     33  C   UNL     1      51.263   9.387  11.825  0.00  0.00    +0.000 A 
ATOM     34  N   UNL     1      49.937   9.043  11.844  0.00  0.00    +0.000 N 
ATOM     35  C   UNL     1      49.376   8.297  12.851  0.00  0.00    +0.000 A 
ATOM     36  O   UNL     1      48.202   7.948  12.802  0.00  0.00    +0.000 OA
ATOM     37  C   UNL     1      50.284   7.945  13.927  0.00  0.00    +0.000 A 
ATOM     38  H   UNL     1      49.326   9.294  11.081  0.00  0.00    +0.000 HD
ENDBRANCH  25  28
ENDBRANCH   1  24
TORSDOF 7
ENDMDL
MODEL 3
REMARK VINA RESULT:    -7.006      3.149      4.475
REMARK INTER + INTRA:         -11.307
REMARK INTER:                 -10.220
REMARK INTRA:                  -1.087
REMARK UNBOUND:                -1.433
REMARK  Name = 
REMARK  7 active torsions:
REMARK  status: ('A' for Active; 'I' for Inactive)
REMARK    1  A    between atoms: C_2  and  C_4
REMARK    2  A    between atoms: C_4  and  N_5
REMARK    3  A    between atoms: C_4  and  C_18
REMARK    4  A    between atoms: C_6  and  C_8
REMARK    5  A    between atoms: C_21  and  C_22
REMARK    6  A    between atoms: C_22  and  N_23
REMARK    7  A    between atoms: C_24  and  C_26
REMARK                            x       y       z     vdW  Elec       q    Type
REMARK                         _______ _______ _______ _____ _____    ______ ____
ROOT
ATOM      1  C   UNL     1      46.974   5.735  14.583  0.00  0.00    +0.000 C 
ENDROOT
BRANCH   1   2
ATOM      2  C   UNL     1      46.204   5.455  13.301  0.00  0.00    +0.000 A 
ATOM      3  C   UNL     1      46.605   6.044  12.094  0.00  0.00    +0.000 A 
ATOM      4  C   UNL     1      45.937   5.752  10.900  0.00  0.00    +0.000 A 
ATOM      5  C   UNL     1      44.850   4.867  10.886  0.00  0.00    +0.000 A 
ATOM      6  C   UNL     1      44.456   4.266  12.085  0.00  0.00    +0.000 A 
ATOM      7  C   UNL     1      45.117   4.564  13.278  0.00  0.00    +0.000 A 
BRANCH   5   8
ATOM      8  C   UNL     1      44.132   4.546   9.601  0.00  0.00    +0.000 C 
BRANCH   8   9
ATOM      9  N   UNL     1      45.058   4.194   8.553  0.00  0.00    +0.000 N 
ATOM     10  C   UNL     1      45.441   2.891   8.349  0.00  0.00    +0.000 C 
ATOM     11  O   UNL     1      45.043   1.969   9.052  0.00  0.00    +0.000 OA
ATOM     12  H   UNL     1      45.367   4.916   7.922  0.00  0.00    +0.000 HD
BRANCH  10  13
ATOM     13  C   UNL     1      46.346   2.679   7.239  0.00  0.00    +0.000 A 
ATOM     14  C   UNL     1      46.403   3.223   5.965  0.00  0.00    +0.000 A 
ATOM     15  C   UNL     1      47.505   2.649   5.284  0.00  0.00    +0.000 A 
ATOM     16  C   UNL     1      48.106   1.769   6.153  0.00  0.00    +0.000 A 
ATOM     17  N   UNL     1      47.405   1.796   7.329  0.00  0.00    +0.000 N 
ATOM     18  H   UNL     1      47.613   1.253   8.159  0.00  0.00    +0.000 HD
ENDBRANCH  10  13
ENDBRANCH   8   9
ENDBRANCH   5   8
ENDBRANCH   1   2
BRANCH   1  20
ATOM     19  N   UNL     1      47.147   4.643  16.795  0.00  0.00    +0.000 N 
ATOM     20  C   UNL     1      47.216   4.461  15.436  0.00  0.00    +0.000 C 
ATOM     21  O   UNL     1      47.534   3.359  14.994  0.00  0.00    +0.000 OA
ATOM     22  H   UNL     1      47.434   3.856  17.363  0.00  0.00    +0.000 HD
ATOM     23  H   UNL     1      47.278   5.572  17.185  0.00  0.00    +0.000 HD
ENDBRANCH   1  20
BRANCH   1  24
ATOM     24  N   UNL     1      48.254   6.349  14.256  0.00  0.00    +0.000 N 
ATOM     25  C   UNL     1      48.492   7.692  14.328  0.00  0.00    +0.000 C 
ATOM     26  O   UNL     1      47.633   8.480  14.719  0.00  0.00    +0.000 OA
ATOM     27  H   UNL     1      48.942   5.742  13.825  0.00  0.00    +0.000 HD
BRANCH  25  28
ATOM     28  C   UNL     1      49.854   8.124  13.981  0.00  0.00    +0.000 A 
ATOM     29  C   UNL     1      50.064   8.944  12.881  0.00  0.00    +0.000 A 
ATOM     30  S   UNL     1      51.693   9.410  12.673  0.00  0.00    +0.000 S 
ATOM     31  C   UNL     1      52.189   8.483  14.010  0.00  0.00    +0.000 A 
ATOM     32  N   UNL     1      53.498   8.427  14.377  0.00  0.00    +0.000 NA
ATOM     33  C   UNL     1      53.738   7.662  15.388  0.00  0.00    +0.000 A 
ATOM     34  N   UNL     1      52.788   6.948  16.069  0.00  0.00    +0.000 N 
ATOM     35  C   UNL     1      51.450   7.005  15.760  0.00  0.00    +0.000 A 
ATOM     36  O   UNL     1      50.619   6.407  16.432  0.00  0.00    +0.000 OA
ATOM     37  C   UNL     1      51.125   7.840  14.618  0.00  0.00    +0.000 A 
ATOM     38  H   UNL     1      53.038   6.378  16.863  0.00  0.00    +0.000 HD
ENDBRANCH  25  28
ENDBRANCH   1  24
TORSDOF 7
ENDMDL
MODEL 4
REMARK VINA RESULT:    -6.936      1.430      2.272
REMARK INTER + INTRA:         -11.207
REMARK INTER:                 -10.270
REMARK INTRA:                  -0.937
REMARK UNBOUND:                -1.433
REMARK  Name = 
REMARK  7 active torsions:
REMARK  status: ('A' for Active; 'I' for Inactive)
REMARK    1  A    between atoms: C_2  and  C_4
REMARK    2  A    between atoms: C_4  and  N_5
REMARK    3  A    between atoms: C_4  and  C_18
REMARK    4  A    between atoms: C_6  and  C_8
REMARK    5  A    between atoms: C_21  and  C_22
REMARK    6  A    between atoms: C_22  and  N_23
REMARK    7  A    between atoms: C_24  and  C_26
REMARK                            x       y       z     vdW  Elec       q    Type
REMARK                         _______ _______ _______ _____ _____    ______ ____
ROOT
ATOM      1  C   UNL     1      48.542   7.529  13.847  0.00  0.00    +0.000 C 
ENDROOT
BRANCH   1   2
ATOM      2  C   UNL     1      47.441   6.823  13.070  0.00  0.00    +0.000 A 
ATOM      3  C   UNL     1      46.784   7.480  12.021  0.00  0.00    +0.000 A 
ATOM      4  C   UNL     1      45.806   6.822  11.267  0.00  0.00    +0.000 A 
ATOM      5  C   UNL     1      45.463   5.492  11.545  0.00  0.00    +0.000 A 
ATOM      6  C   UNL     1      46.126   4.827  12.580  0.00  0.00    +0.000 A 
ATOM      7  C   UNL     1      47.094   5.487  13.339  0.00  0.00    +0.000 A 
BRANCH   5   8
ATOM      8  C   UNL     1      44.415   4.780  10.729  0.00  0.00    +0.000 C 
BRANCH   8   9
ATOM      9  N   UNL     1      44.980   3.678   9.992  0.00  0.00    +0.000 N 
ATOM     10  C   UNL     1      45.614   3.876   8.788  0.00  0.00    +0.000 C 
ATOM     11  O   UNL     1      45.711   4.981   8.269  0.00  0.00    +0.000 OA
ATOM     12  H   UNL     1      44.966   2.761  10.409  0.00  0.00    +0.000 HD
BRANCH  10  13
ATOM     13  C   UNL     1      46.164   2.685   8.176  0.00  0.00    +0.000 A 
ATOM     14  C   UNL     1      45.926   1.335   8.383  0.00  0.00    +0.000 A 
ATOM     15  C   UNL     1      46.754   0.596   7.503  0.00  0.00    +0.000 A 
ATOM     16  C   UNL     1      47.481   1.505   6.769  0.00  0.00    +0.000 A 
ATOM     17  N   UNL     1      47.117   2.760   7.178  0.00  0.00    +0.000 N 
ATOM     18  H   UNL     1      47.482   3.634   6.816  0.00  0.00    +0.000 HD
ENDBRANCH  10  13
ENDBRANCH   8   9
ENDBRANCH   5   8
ENDBRANCH   1   2
BRANCH   1  20
ATOM     19  N   UNL     1      49.413   9.346  12.412  0.00  0.00    +0.000 N 
ATOM     20  C   UNL     1      48.649   9.041  13.511  0.00  0.00    +0.000 C 
ATOM     21  O   UNL     1      48.179   9.953  14.187  0.00  0.00    +0.000 OA
ATOM     22  H   UNL     1      49.601  10.328  12.261  0.00  0.00    +0.000 HD
ATOM     23  H   UNL     1      50.108   8.681  12.084  0.00  0.00    +0.000 HD
ENDBRANCH   1  20
BRANCH   1  24
ATOM     24  N   UNL     1      48.310   7.365  15.275  0.00  0.00    +0.000 N 
ATOM     25  C   UNL     1      49.307   7.190  16.192  0.00  0.00    +0.000 C 
ATOM     26  O   UNL     1      50.492   7.199  15.866  0.00  0.00    +0.000 OA
ATOM     27  H   UNL     1      47.344   7.241  15.557  0.00  0.00    +0.000 HD
BRANCH  25  28
ATOM     28  C   UNL     1      48.879   7.066  17.594  0.00  0.00    +0.000 A 
ATOM     29  C   UNL     1      48.370   8.169  18.265  0.00  0.00    +0.000 A 
ATOM     30  S   UNL     1      47.852   7.827  19.855  0.00  0.00    +0.000 S 
ATOM     31  C   UNL     1      48.346   6.205  19.727  0.00  0.00    +0.000 A 
ATOM     32  N   UNL     1      48.200   5.344  20.772  0.00  0.00    +0.000 NA
ATOM     33  C   UNL     1      48.645   4.153  20.550  0.00  0.00    +0.000 A 
ATOM     34  N   UNL     1      49.222   3.742  19.377  0.00  0.00    +0.000 N 
ATOM     35  C   UNL     1      49.353   4.564  18.284  0.00  0.00    +0.000 A 
ATOM     36  O   UNL     1      49.812   4.145  17.228  0.00  0.00    +0.000 OA
ATOM     37  C   UNL     1      48.882   5.923  18.483  0.00  0.00    +0.000 A 
ATOM     38  H   UNL     1      49.538   2.791  19.260  0.00  0.00    +0.000 HD
ENDBRANCH  25  28
ENDBRANCH   1  24
TORSDOF 7
ENDMDL
MODEL 5
REMARK VINA RESULT:    -6.827      2.960      4.161
REMARK INTER + INTRA:         -11.054
REMARK INTER:                  -9.902
REMARK INTRA:                  -1.152
REMARK UNBOUND:                -1.433
REMARK  Name = 
REMARK  7 active torsions:
REMARK  status: ('A' for Active; 'I' for Inactive)
REMARK    1  A    between atoms: C_2  and  C_4
REMARK    2  A    between atoms: C_4  and  N_5
REMARK    3  A    between atoms: C_4  and  C_18
REMARK    4  A    between atoms: C_6  and  C_8
REMARK    5  A    between atoms: C_21  and  C_22
REMARK    6  A    between atoms: C_22  and  N_23
REMARK    7  A    between atoms: C_24  and  C_26
REMARK                            x       y       z     vdW  Elec       q    Type
REMARK                         _______ _______ _______ _____ _____    ______ ____
ROOT
ATOM      1  C   UNL     1      47.468   5.057  15.768  0.00  0.00    +0.000 C 
ENDROOT
BRANCH   1   2
ATOM      2  C   UNL     1      46.842   5.153  14.384  0.00  0.00    +0.000 A 
ATOM      3  C   UNL     1      45.963   4.158  13.936  0.00  0.00    +0.000 A 
ATOM      4  C   UNL     1      45.342   4.263  12.687  0.00  0.00    +0.000 A 
ATOM      5  C   UNL     1      45.588   5.365  11.856  0.00  0.00    +0.000 A 
ATOM      6  C   UNL     1      46.452   6.367  12.305  0.00  0.00    +0.000 A 
ATOM      7  C   UNL     1      47.080   6.258  13.547  0.00  0.00    +0.000 A 
BRANCH   5   8
ATOM      8  C   UNL     1      44.915   5.484  10.513  0.00  0.00    +0.000 C 
BRANCH   8   9
ATOM      9  N   UNL     1      45.647   4.778   9.492  0.00  0.00    +0.000 N 
ATOM     10  C   UNL     1      45.262   3.526   9.076  0.00  0.00    +0.000 C 
ATOM     11  O   UNL     1      44.304   2.936   9.560  0.00  0.00    +0.000 OA
ATOM     12  H   UNL     1      46.410   5.249   9.033  0.00  0.00    +0.000 HD
BRANCH  10  13
ATOM     13  C   UNL     1      46.068   2.951   8.019  0.00  0.00    +0.000 A 
ATOM     14  C   UNL     1      46.646   3.499   6.884  0.00  0.00    +0.000 A 
ATOM     15  C   UNL     1      47.329   2.470   6.191  0.00  0.00    +0.000 A 
ATOM     16  C   UNL     1      47.162   1.312   6.913  0.00  0.00    +0.000 A 
ATOM     17  N   UNL     1      46.405   1.611   8.015  0.00  0.00    +0.000 N 
ATOM     18  H   UNL     1      46.119   0.959   8.736  0.00  0.00    +0.000 HD
ENDBRANCH  10  13
ENDBRANCH   8   9
ENDBRANCH   5   8
ENDBRANCH   1   2
BRANCH   1  20
ATOM     19  N   UNL     1      48.243   2.710  15.861  0.00  0.00    +0.000 N 
ATOM     20  C   UNL     1      47.371   3.634  16.381  0.00  0.00    +0.000 C 
ATOM     21  O   UNL     1      46.540   3.274  17.212  0.00  0.00    +0.000 OA
ATOM     22  H   UNL     1      48.100   1.752  16.153  0.00  0.00    +0.000 HD
ATOM     23  H   UNL     1      48.646   2.863  14.941  0.00  0.00    +0.000 HD
ENDBRANCH   1  20
BRANCH   1  24
ATOM     24  N   UNL     1      48.865   5.461  15.698  0.00  0.00    +0.000 N 
ATOM     25  C   UNL     1      49.356   6.600  16.269  0.00  0.00    +0.000 C 
ATOM     26  O   UNL     1      48.641   7.353  16.925  0.00  0.00    +0.000 OA
ATOM     27  H   UNL     1      49.453   4.922  15.072  0.00  0.00    +0.000 HD
BRANCH  25  28
ATOM     28  C   UNL     1      50.801   6.828  16.112  0.00  0.00    +0.000 A 
ATOM     29  C   UNL     1      51.257   7.898  15.356  0.00  0.00    +0.000 A 
ATOM     30  S   UNL     1      52.957   8.056  15.345  0.00  0.00    +0.000 S 
ATOM     31  C   UNL     1      53.150   6.663  16.302  0.00  0.00    +0.000 A 
ATOM     32  N   UNL     1      54.388   6.219  16.652  0.00  0.00    +0.000 NA
ATOM     33  C   UNL     1      54.390   5.135  17.351  0.00  0.00    +0.000 A 
ATOM     34  N   UNL     1      53.265   4.453  17.735  0.00  0.00    +0.000 N 
ATOM     35  C   UNL     1      51.995   4.884  17.439  0.00  0.00    +0.000 A 
ATOM     36  O   UNL     1      51.011   4.287  17.856  0.00  0.00    +0.000 OA
ATOM     37  C   UNL     1      51.934   6.094  16.639  0.00  0.00    +0.000 A 
ATOM     38  H   UNL     1      53.333   3.616  18.295  0.00  0.00    +0.000 HD
ENDBRANCH  25  28
ENDBRANCH   1  24
TORSDOF 7
ENDMDL
MODEL 6
REMARK VINA RESULT:    -6.773      3.791      5.813
REMARK INTER + INTRA:         -10.978
REMARK INTER:                  -9.655
REMARK INTRA:                  -1.323
REMARK UNBOUND:                -1.433
REMARK  Name = 
REMARK  7 active torsions:
REMARK  status: ('A' for Active; 'I' for Inactive)
REMARK    1  A    between atoms: C_2  and  C_4
REMARK    2  A    between atoms: C_4  and  N_5
REMARK    3  A    between atoms: C_4  and  C_18
REMARK    4  A    between atoms: C_6  and  C_8
REMARK    5  A    between atoms: C_21  and  C_22
REMARK    6  A    between atoms: C_22  and  N_23
REMARK    7  A    between atoms: C_24  and  C_26
REMARK                            x       y       z     vdW  Elec       q    Type
REMARK                         _______ _______ _______ _____ _____    ______ ____
ROOT
ATOM      1  C   UNL     1      48.820   7.470  14.521  0.00  0.00    +0.000 C 
ENDROOT
BRANCH   1   2
ATOM      2  C   UNL     1      47.825   6.883  13.531  0.00  0.00    +0.000 A 
ATOM      3  C   UNL     1      47.253   5.625  13.766  0.00  0.00    +0.000 A 
ATOM      4  C   UNL     1      46.298   5.100  12.890  0.00  0.00    +0.000 A 
ATOM      5  C   UNL     1      45.894   5.819  11.757  0.00  0.00    +0.000 A 
ATOM      6  C   UNL     1      46.450   7.080  11.526  0.00  0.00    +0.000 A 
ATOM      7  C   UNL     1      47.410   7.601  12.395  0.00  0.00    +0.000 A 
BRANCH   5   8
ATOM      8  C   UNL     1      44.860   5.258  10.814  0.00  0.00    +0.000 C 
BRANCH   8   9
ATOM      9  N   UNL     1      45.473   4.638   9.667  0.00  0.00    +0.000 N 
ATOM     10  C   UNL     1      45.257   3.314   9.372  0.00  0.00    +0.000 C 
ATOM     11  O   UNL     1      44.560   2.588  10.071  0.00  0.00    +0.000 OA
ATOM     12  H   UNL     1      46.011   5.213   9.039  0.00  0.00    +0.000 HD
BRANCH  10  13
ATOM     13  C   UNL     1      45.907   2.834   8.170  0.00  0.00    +0.000 A 
ATOM     14  C   UNL     1      46.168   3.434   6.948  0.00  0.00    +0.000 A 
ATOM     15  C   UNL     1      46.833   2.494   6.123  0.00  0.00    +0.000 A 
ATOM     16  C   UNL     1      46.972   1.338   6.854  0.00  0.00    +0.000 A 
ATOM     17  N   UNL     1      46.415   1.551   8.087  0.00  0.00    +0.000 N 
ATOM     18  H   UNL     1      46.369   0.880   8.844  0.00  0.00    +0.000 HD
ENDBRANCH  10  13
ENDBRANCH   8   9
ENDBRANCH   5   8
ENDBRANCH   1   2
BRANCH   1  20
ATOM     19  N   UNL     1      48.151   7.074  16.869  0.00  0.00    +0.000 N 
ATOM     20  C   UNL     1      48.935   6.642  15.829  0.00  0.00    +0.000 C 
ATOM     21  O   UNL     1      49.715   5.710  16.013  0.00  0.00    +0.000 OA
ATOM     22  H   UNL     1      48.315   6.630  17.763  0.00  0.00    +0.000 HD
ATOM     23  H   UNL     1      47.814   8.033  16.879  0.00  0.00    +0.000 HD
ENDBRANCH   1  20
BRANCH   1  24
ATOM     24  N   UNL     1      50.130   7.568  13.892  0.00  0.00    +0.000 N 
ATOM     25  C   UNL     1      50.822   8.737  13.755  0.00  0.00    +0.000 C 
ATOM     26  O   UNL     1      50.390   9.798  14.199  0.00  0.00    +0.000 OA
ATOM     27  H   UNL     1      50.459   6.734  13.418  0.00  0.00    +0.000 HD
BRANCH  25  28
ATOM     28  C   UNL     1      52.141   8.634  13.114  0.00  0.00    +0.000 A 
ATOM     29  C   UNL     1      53.279   9.038  13.797  0.00  0.00    +0.000 A 
ATOM     30  S   UNL     1      54.729   8.776  12.934  0.00  0.00    +0.000 S 
ATOM     31  C   UNL     1      53.884   8.170  11.588  0.00  0.00    +0.000 A 
ATOM     32  N   UNL     1      54.545   7.772  10.467  0.00  0.00    +0.000 NA
ATOM     33  C   UNL     1      53.780   7.363   9.511  0.00  0.00    +0.000 A 
ATOM     34  N   UNL     1      52.413   7.315   9.573  0.00  0.00    +0.000 N 
ATOM     35  C   UNL     1      51.706   7.668  10.697  0.00  0.00    +0.000 A 
ATOM     36  O   UNL     1      50.487   7.547  10.742  0.00  0.00    +0.000 OA
ATOM     37  C   UNL     1      52.516   8.150  11.800  0.00  0.00    +0.000 A 
ATOM     38  H   UNL     1      51.870   6.970   8.795  0.00  0.00    +0.000 HD
ENDBRANCH  25  28
ENDBRANCH   1  24
TORSDOF 7
ENDMDL
MODEL 7
REMARK VINA RESULT:    -6.321      5.026      8.088
REMARK INTER + INTRA:         -10.341
REMARK INTER:                  -9.444
REMARK INTRA:                  -0.897
REMARK UNBOUND:                -1.433
REMARK  Name = 
REMARK  7 active torsions:
REMARK  status: ('A' for Active; 'I' for Inactive)
REMARK    1  A    between atoms: C_2  and  C_4
REMARK    2  A    between atoms: C_4  and  N_5
REMARK    3  A    between atoms: C_4  and  C_18
REMARK    4  A    between atoms: C_6  and  C_8
REMARK    5  A    between atoms: C_21  and  C_22
REMARK    6  A    between atoms: C_22  and  N_23
REMARK    7  A    between atoms: C_24  and  C_26
REMARK                            x       y       z     vdW  Elec       q    Type
REMARK                         _______ _______ _______ _____ _____    ______ ____
ROOT
ATOM      1  C   UNL     1      45.584   8.409  12.237  0.00  0.00    +0.000 C 
ENDROOT
BRANCH   1   2
ATOM      2  C   UNL     1      47.060   8.617  11.927  0.00  0.00    +0.000 A 
ATOM      3  C   UNL     1      47.580   9.912  11.806  0.00  0.00    +0.000 A 
ATOM      4  C   UNL     1      48.945  10.114  11.574  0.00  0.00    +0.000 A 
ATOM      5  C   UNL     1      49.820   9.026  11.455  0.00  0.00    +0.000 A 
ATOM      6  C   UNL     1      49.308   7.732  11.590  0.00  0.00    +0.000 A 
ATOM      7  C   UNL     1      47.945   7.530  11.813  0.00  0.00    +0.000 A 
BRANCH   5   8
ATOM      8  C   UNL     1      51.291   9.241  11.211  0.00  0.00    +0.000 C 
BRANCH   8   9
ATOM      9  N   UNL     1      51.874   8.138  10.490  0.00  0.00    +0.000 N 
ATOM     10  C   UNL     1      52.707   8.348   9.418  0.00  0.00    +0.000 C 
ATOM     11  O   UNL     1      52.979   9.469   9.004  0.00  0.00    +0.000 OA
ATOM     12  H   UNL     1      51.716   7.203  10.830  0.00  0.00    +0.000 HD
BRANCH  10  13
ATOM     13  C   UNL     1      53.248   7.150   8.811  0.00  0.00    +0.000 A 
ATOM     14  C   UNL     1      52.873   6.420   7.694  0.00  0.00    +0.000 A 
ATOM     15  C   UNL     1      53.759   5.322   7.561  0.00  0.00    +0.000 A 
ATOM     16  C   UNL     1      54.662   5.401   8.595  0.00  0.00    +0.000 A 
ATOM     17  N   UNL     1      54.351   6.507   9.340  0.00  0.00    +0.000 N 
ATOM     18  H   UNL     1      54.842   6.826  10.167  0.00  0.00    +0.000 HD
ENDBRANCH  10  13
ENDBRANCH   8   9
ENDBRANCH   5   8
ENDBRANCH   1   2
BRANCH   1  20
ATOM     19  N   UNL     1      44.125  10.384  12.534  0.00  0.00    +0.000 N 
ATOM     20  C   UNL     1      44.676   9.511  11.629  0.00  0.00    +0.000 C 
ATOM     21  O   UNL     1      44.363   9.599  10.443  0.00  0.00    +0.000 OA
ATOM     22  H   UNL     1      43.427  11.020  12.169  0.00  0.00    +0.000 HD
ATOM     23  H   UNL     1      44.042  10.110  13.509  0.00  0.00    +0.000 HD
ENDBRANCH   1  20
BRANCH   1  24
ATOM     24  N   UNL     1      45.163   7.106  11.743  0.00  0.00    +0.000 N 
ATOM     25  C   UNL     1      45.256   5.953  12.468  0.00  0.00    +0.000 C 
ATOM     26  O   UNL     1      45.674   5.948  13.623  0.00  0.00    +0.000 OA
ATOM     27  H   UNL     1      44.922   7.060  10.760  0.00  0.00    +0.000 HD
BRANCH  25  28
ATOM     28  C   UNL     1      44.758   4.735  11.809  0.00  0.00    +0.000 A 
ATOM     29  C   UNL     1      44.010   3.813  12.528  0.00  0.00    +0.000 A 
ATOM     30  S   UNL     1      43.449   2.502  11.589  0.00  0.00    +0.000 S 
ATOM     31  C   UNL     1      44.237   3.087  10.200  0.00  0.00    +0.000 A 
ATOM     32  N   UNL     1      44.175   2.408   9.021  0.00  0.00    +0.000 NA
ATOM     33  C   UNL     1      44.843   2.947   8.058  0.00  0.00    +0.000 A 
ATOM     34  N   UNL     1      45.568   4.104   8.164  0.00  0.00    +0.000 N 
ATOM     35  C   UNL     1      45.627   4.843   9.320  0.00  0.00    +0.000 A 
ATOM     36  O   UNL     1      46.229   5.909   9.360  0.00  0.00    +0.000 OA
ATOM     37  C   UNL     1      44.904   4.274  10.443  0.00  0.00    +0.000 A 
ATOM     38  H   UNL     1      46.059   4.483   7.367  0.00  0.00    +0.000 HD
ENDBRANCH  25  28
ENDBRANCH   1  24
TORSDOF 7
ENDMDL
MODEL 8
REMARK VINA RESULT:    -5.982      4.930      7.205
REMARK INTER + INTRA:          -9.863
REMARK INTER:                  -8.387
REMARK INTRA:                  -1.476
REMARK UNBOUND:                -1.433
REMARK  Name = 
REMARK  7 active torsions:
REMARK  status: ('A' for Active; 'I' for Inactive)
REMARK    1  A    between atoms: C_2  and  C_4
REMARK    2  A    between atoms: C_4  and  N_5
REMARK    3  A    between atoms: C_4  and  C_18
REMARK    4  A    between atoms: C_6  and  C_8
REMARK    5  A    between atoms: C_21  and  C_22
REMARK    6  A    between atoms: C_22  and  N_23
REMARK    7  A    between atoms: C_24  and  C_26
REMARK                            x       y       z     vdW  Elec       q    Type
REMARK                         _______ _______ _______ _____ _____    ______ ____
ROOT
ATOM      1  C   UNL     1      48.740   9.032  12.817  0.00  0.00    +0.000 C 
ENDROOT
BRANCH   1   2
ATOM      2  C   UNL     1      50.139   8.667  12.341  0.00  0.00    +0.000 A 
ATOM      3  C   UNL     1      50.313   7.910  11.175  0.00  0.00    +0.000 A 
ATOM      4  C   UNL     1      51.595   7.614  10.701  0.00  0.00    +0.000 A 
ATOM      5  C   UNL     1      52.733   8.067  11.382  0.00  0.00    +0.000 A 
ATOM      6  C   UNL     1      52.564   8.836  12.537  0.00  0.00    +0.000 A 
ATOM      7  C   UNL     1      51.285   9.123  13.017  0.00  0.00    +0.000 A 
BRANCH   5   8
ATOM      8  C   UNL     1      54.115   7.756  10.869  0.00  0.00    +0.000 C 
BRANCH   8   9
ATOM      9  N   UNL     1      54.065   6.964   9.666  0.00  0.00    +0.000 N 
ATOM     10  C   UNL     1      54.336   5.617   9.688  0.00  0.00    +0.000 C 
ATOM     11  O   UNL     1      54.655   5.025  10.712  0.00  0.00    +0.000 OA
ATOM     12  H   UNL     1      53.756   7.402   8.813  0.00  0.00    +0.000 HD
BRANCH  10  13
ATOM     13  C   UNL     1      54.213   4.941   8.413  0.00  0.00    +0.000 A 
ATOM     14  C   UNL     1      53.455   5.210   7.284  0.00  0.00    +0.000 A 
ATOM     15  C   UNL     1      53.722   4.208   6.319  0.00  0.00    +0.000 A 
ATOM     16  C   UNL     1      54.641   3.346   6.870  0.00  0.00    +0.000 A 
ATOM     17  N   UNL     1      54.935   3.797   8.130  0.00  0.00    +0.000 N 
ATOM     18  H   UNL     1      55.584   3.368   8.779  0.00  0.00    +0.000 HD
ENDBRANCH  10  13
ENDBRANCH   8   9
ENDBRANCH   5   8
ENDBRANCH   1   2
BRANCH   1  20
ATOM     19  N   UNL     1      46.902  10.655  12.496  0.00  0.00    +0.000 N 
ATOM     20  C   UNL     1      48.180  10.309  12.136  0.00  0.00    +0.000 C 
ATOM     21  O   UNL     1      48.756  10.961  11.267  0.00  0.00    +0.000 OA
ATOM     22  H   UNL     1      46.477  11.402  11.963  0.00  0.00    +0.000 HD
ATOM     23  H   UNL     1      46.282   9.950  12.886  0.00  0.00    +0.000 HD
ENDBRANCH   1  20
BRANCH   1  24
ATOM     24  N   UNL     1      47.838   7.915  12.570  0.00  0.00    +0.000 N 
ATOM     25  C   UNL     1      47.554   6.949  13.491  0.00  0.00    +0.000 C 
ATOM     26  O   UNL     1      48.023   6.983  14.627  0.00  0.00    +0.000 OA
ATOM     27  H   UNL     1      47.526   7.799  11.612  0.00  0.00    +0.000 HD
BRANCH  25  28
ATOM     28  C   UNL     1      46.600   5.913  13.067  0.00  0.00    +0.000 A 
ATOM     29  C   UNL     1      46.871   4.575  13.315  0.00  0.00    +0.000 A 
ATOM     30  S   UNL     1      45.623   3.519  12.825  0.00  0.00    +0.000 S 
ATOM     31  C   UNL     1      44.699   4.806  12.207  0.00  0.00    +0.000 A 
ATOM     32  N   UNL     1      43.494   4.583  11.615  0.00  0.00    +0.000 NA
ATOM     33  C   UNL     1      42.915   5.644  11.162  0.00  0.00    +0.000 A 
ATOM     34  N   UNL     1      43.431   6.910  11.248  0.00  0.00    +0.000 N 
ATOM     35  C   UNL     1      44.623   7.188  11.871  0.00  0.00    +0.000 A 
ATOM     36  O   UNL     1      45.021   8.340  11.989  0.00  0.00    +0.000 OA
ATOM     37  C   UNL     1      45.326   6.027  12.387  0.00  0.00    +0.000 A 
ATOM     38  H   UNL     1      42.921   7.702  10.886  0.00  0.00    +0.000 HD
ENDBRANCH  25  28
ENDBRANCH   1  24
TORSDOF 7
ENDMDL
MODEL 9
REMARK VINA RESULT:    -5.841      6.013      8.753
REMARK INTER + INTRA:          -9.665
REMARK INTER:                  -8.375
REMARK INTRA:                  -1.290
REMARK UNBOUND:                -1.433
REMARK  Name = 
REMARK  7 active torsions:
REMARK  status: ('A' for Active; 'I' for Inactive)
REMARK    1  A    between atoms: C_2  and  C_4
REMARK    2  A    between atoms: C_4  and  N_5
REMARK    3  A    between atoms: C_4  and  C_18
REMARK    4  A    between atoms: C_6  and  C_8
REMARK    5  A    between atoms: C_21  and  C_22
REMARK    6  A    between atoms: C_22  and  N_23
REMARK    7  A    between atoms: C_24  and  C_26
REMARK                            x       y       z     vdW  Elec       q    Type
REMARK                         _______ _______ _______ _____ _____    ______ ____
ROOT
ATOM      1  C   UNL     1      51.630   9.411  11.249  0.00  0.00    +0.000 C 
ENDROOT
BRANCH   1   2
ATOM      2  C   UNL     1      50.178   9.072  11.554  0.00  0.00    +0.000 A 
ATOM      3  C   UNL     1      49.726   7.749  11.451  0.00  0.00    +0.000 A 
ATOM      4  C   UNL     1      48.407   7.418  11.779  0.00  0.00    +0.000 A 
ATOM      5  C   UNL     1      47.509   8.402  12.216  0.00  0.00    +0.000 A 
ATOM      6  C   UNL     1      47.960   9.720  12.334  0.00  0.00    +0.000 A 
ATOM      7  C   UNL     1      49.273  10.052  11.998  0.00  0.00    +0.000 A 
BRANCH   5   8
ATOM      8  C   UNL     1      46.090   8.047  12.576  0.00  0.00    +0.000 C 
BRANCH   8   9
ATOM      9  N   UNL     1      45.610   6.935  11.794  0.00  0.00    +0.000 N 
ATOM     10  C   UNL     1      45.424   5.695  12.358  0.00  0.00    +0.000 C 
ATOM     11  O   UNL     1      45.677   5.462  13.533  0.00  0.00    +0.000 OA
ATOM     12  H   UNL     1      45.342   7.099  10.837  0.00  0.00    +0.000 HD
BRANCH  10  13
ATOM     13  C   UNL     1      44.903   4.682  11.464  0.00  0.00    +0.000 A 
ATOM     14  C   UNL     1      44.988   4.517  10.090  0.00  0.00    +0.000 A 
ATOM     15  C   UNL     1      44.283   3.341   9.738  0.00  0.00    +0.000 A 
ATOM     16  C   UNL     1      43.781   2.804  10.900  0.00  0.00    +0.000 A 
ATOM     17  N   UNL     1      44.163   3.615  11.936  0.00  0.00    +0.000 N 
ATOM     18  H   UNL     1      43.943   3.473  12.915  0.00  0.00    +0.000 HD
ENDBRANCH  10  13
ENDBRANCH   8   9
ENDBRANCH   5   8
ENDBRANCH   1   2
BRANCH   1  20
ATOM     19  N   UNL     1      53.100   7.676  12.222  0.00  0.00    +0.000 N 
ATOM     20  C   UNL     1      52.608   8.950  12.363  0.00  0.00    +0.000 C 
ATOM     21  O   UNL     1      52.895   9.597  13.368  0.00  0.00    +0.000 OA
ATOM     22  H   UNL     1      53.628   7.316  13.006  0.00  0.00    +0.000 HD
ATOM     23  H   UNL     1      52.596   7.004  11.650  0.00  0.00    +0.000 HD
ENDBRANCH   1  20
BRANCH   1  24
ATOM     24  N   UNL     1      52.015   8.803   9.984  0.00  0.00    +0.000 N 
ATOM     25  C   UNL     1      52.988   9.302   9.166  0.00  0.00    +0.000 C 
ATOM     26  O   UNL     1      53.641  10.297   9.472  0.00  0.00    +0.000 OA
ATOM     27  H   UNL     1      51.421   8.051   9.652  0.00  0.00    +0.000 HD
BRANCH  25  28
ATOM     28  C   UNL     1      53.254   8.535   7.939  0.00  0.00    +0.000 A 
ATOM     29  C   UNL     1      53.322   9.186   6.715  0.00  0.00    +0.000 A 
ATOM     30  S   UNL     1      53.715   8.157   5.411  0.00  0.00    +0.000 S 
ATOM     31  C   UNL     1      53.747   6.791   6.425  0.00  0.00    +0.000 A 
ATOM     32  N   UNL     1      54.011   5.553   5.924  0.00  0.00    +0.000 NA
ATOM     33  C   UNL     1      53.973   4.604   6.797  0.00  0.00    +0.000 A 
ATOM     34  N   UNL     1      53.696   4.778   8.127  0.00  0.00    +0.000 N 
ATOM     35  C   UNL     1      53.464   6.013   8.684  0.00  0.00    +0.000 A 
ATOM     36  O   UNL     1      53.288   6.141   9.889  0.00  0.00    +0.000 OA
ATOM     37  C   UNL     1      53.480   7.118   7.742  0.00  0.00    +0.000 A 
ATOM     38  H   UNL     1      53.696   3.995   8.764  0.00  0.00    +0.000 HD
ENDBRANCH  25  28
ENDBRANCH   1  24
TORSDOF 7
ENDMDL
