MODEL 1
REMARK VINA RESULT:    -7.475      0.000      0.000
REMARK INTER + INTRA:         -10.548
REMARK INTER:                  -9.878
REMARK INTRA:                  -0.670
REMARK UNBOUND:                -0.670
REMARK  Name = 
REMARK  6 active torsions:
REMARK  status: ('A' for Active; 'I' for Inactive)
REMARK    1  A    between atoms: C_2  and  C_18
REMARK    2  A    between atoms: N_3  and  C_4
REMARK    3  A    between atoms: C_4  and  C_5
REMARK    4  A    between atoms: C_8  and  C_9
REMARK    5  A    between atoms: C_9  and  N_10
REMARK    6  A    between atoms: C_13  and  O_14
REMARK                            x       y       z     vdW  Elec       q    Type
REMARK                         _______ _______ _______ _____ _____    ______ ____
ROOT
ATOM      1  O   UNL     1      48.095   6.951  12.803  0.00  0.00    +0.000 OA
ATOM      2  C   UNL     1      47.543   6.581  13.835  0.00  0.00    +0.000 C 
ATOM      3  N   UNL     1      46.193   6.352  13.912  0.00  0.00    +0.000 N 
ATOM      4  H   UNL     1      45.767   6.203  14.822  0.00  0.00    +0.000 HD
ENDROOT
BRANCH   2   5
ATOM      5  C   UNL     1      48.305   6.318  15.065  0.00  0.00    +0.000 A 
ATOM      6  C   UNL     1      49.221   7.254  15.524  0.00  0.00    +0.000 A 
ATOM      7  S   UNL     1      50.023   6.783  16.955  0.00  0.00    +0.000 S 
ATOM      8  C   UNL     1      49.139   5.332  17.038  0.00  0.00    +0.000 A 
ATOM      9  N   UNL     1      49.320   4.460  18.066  0.00  0.00    +0.000 NA
ATOM     10  C   UNL     1      48.551   3.422  18.029  0.00  0.00    +0.000 A 
ATOM     11  N   UNL     1      47.626   3.170  17.050  0.00  0.00    +0.000 N 
ATOM     12  C   UNL     1      47.466   3.981  15.953  0.00  0.00    +0.000 A 
ATOM     13  O   UNL     1      46.733   3.654  15.024  0.00  0.00    +0.000 OA
ATOM     14  C   UNL     1      48.266   5.193  15.972  0.00  0.00    +0.000 A 
ATOM     15  H   UNL     1      47.080   2.323  17.059  0.00  0.00    +0.000 HD
ENDBRANCH   2   5
BRANCH   3  16
ATOM     16  C   UNL     1      45.285   6.668  12.839  0.00  0.00    +0.000 C 
BRANCH  16  17
ATOM     17  C   UNL     1      45.283   5.600  11.788  0.00  0.00    +0.000 A 
ATOM     18  C   UNL     1      44.959   4.278  12.102  0.00  0.00    +0.000 A 
ATOM     19  C   UNL     1      44.942   3.311  11.101  0.00  0.00    +0.000 A 
ATOM     20  C   UNL     1      45.277   3.680   9.803  0.00  0.00    +0.000 A 
ATOM     21  N   UNL     1      45.628   4.955   9.476  0.00  0.00    +0.000 NA
ATOM     22  C   UNL     1      45.626   5.874  10.471  0.00  0.00    +0.000 A 
BRANCH  20  23
ATOM     23  C   UNL     1      45.262   2.653   8.682  0.00  0.00    +0.000 C 
BRANCH  23  24
ATOM     24  N   UNL     1      46.474   2.637   7.829  0.00  0.00    +0.000 NA
ATOM     25  C   UNL     1      46.292   3.508   6.657  0.00  0.00    +0.000 C 
ATOM     26  C   UNL     1      46.725   2.723   5.423  0.00  0.00    +0.000 C 
ATOM     27  C   UNL     1      47.418   1.491   5.965  0.00  0.00    +0.000 C 
ATOM     28  C   UNL     1      46.767   1.278   7.328  0.00  0.00    +0.000 C 
BRANCH  27  29
ATOM     29  O   UNL     1      48.815   1.743   6.090  0.00  0.00    +0.000 OA
ATOM     30  H   UNL     1      49.040   2.387   5.389  0.00  0.00    +0.000 HD
ENDBRANCH  27  29
ENDBRANCH  23  24
ENDBRANCH  20  23
ENDBRANCH  16  17
ENDBRANCH   3  16
TORSDOF 6
ENDMDL
MODEL 2
REMARK VINA RESULT:    -7.419      1.971      3.206
REMARK INTER + INTRA:         -10.475
REMARK INTER:                  -9.712
REMARK INTRA:                  -0.763
REMARK UNBOUND:                -0.670
REMARK  Name = 
REMARK  6 active torsions:
REMARK  status: ('A' for Active; 'I' for Inactive)
REMARK    1  A    between atoms: C_2  and  C_18
REMARK    2  A    between atoms: N_3  and  C_4
REMARK    3  A    between atoms: C_4  and  C_5
REMARK    4  A    between atoms: C_8  and  C_9
REMARK    5  A    between atoms: C_9  and  N_10
REMARK    6  A    between atoms: C_13  and  O_14
REMARK                            x       y       z     vdW  Elec       q    Type
REMARK                         _______ _______ _______ _____ _____    ______ ____
ROOT
ATOM      1  O   UNL     1      46.571   4.216  14.321  0.00  0.00    +0.000 OA
ATOM      2  C   UNL     1      46.675   5.421  14.109  0.00  0.00    +0.000 C 
ATOM      3  N   UNL     1      45.639   6.179  13.626  0.00  0.00    +0.000 N 
ATOM      4  H   UNL     1      45.823   7.130  13.320  0.00  0.00    +0.000 HD
ENDROOT
BRANCH   2   5
ATOM      5  C   UNL     1      47.918   6.149  14.397  0.00  0.00    +0.000 A 
ATOM      6  C   UNL     1      48.474   6.095  15.668  0.00  0.00    +0.000 A 
ATOM      7  S   UNL     1      49.908   7.005  15.830  0.00  0.00    +0.000 S 
ATOM      8  C   UNL     1      49.864   7.467  14.193  0.00  0.00    +0.000 A 
ATOM      9  N   UNL     1      50.844   8.244  13.658  0.00  0.00    +0.000 NA
ATOM     10  C   UNL     1      50.710   8.480  12.395  0.00  0.00    +0.000 A 
ATOM     11  N   UNL     1      49.677   8.021  11.620  0.00  0.00    +0.000 N 
ATOM     12  C   UNL     1      48.626   7.302  12.134  0.00  0.00    +0.000 A 
ATOM     13  O   UNL     1      47.647   7.030  11.444  0.00  0.00    +0.000 OA
ATOM     14  C   UNL     1      48.754   6.960  13.539  0.00  0.00    +0.000 A 
ATOM     15  H   UNL     1      49.611   8.270  10.645  0.00  0.00    +0.000 HD
ENDBRANCH   2   5
BRANCH   3  16
ATOM     16  C   UNL     1      44.393   5.609  13.184  0.00  0.00    +0.000 C 
BRANCH  16  17
ATOM     17  C   UNL     1      44.565   4.827  11.917  0.00  0.00    +0.000 A 
ATOM     18  C   UNL     1      45.015   5.439  10.746  0.00  0.00    +0.000 A 
ATOM     19  C   UNL     1      45.188   4.683   9.590  0.00  0.00    +0.000 A 
ATOM     20  C   UNL     1      44.882   3.327   9.620  0.00  0.00    +0.000 A 
ATOM     21  N   UNL     1      44.411   2.712  10.740  0.00  0.00    +0.000 NA
ATOM     22  C   UNL     1      44.262   3.473  11.851  0.00  0.00    +0.000 A 
BRANCH  20  23
ATOM     23  C   UNL     1      45.066   2.468   8.379  0.00  0.00    +0.000 C 
BRANCH  23  24
ATOM     24  N   UNL     1      46.373   2.619   7.699  0.00  0.00    +0.000 NA
ATOM     25  C   UNL     1      46.239   3.467   6.503  0.00  0.00    +0.000 C 
ATOM     26  C   UNL     1      46.935   2.755   5.348  0.00  0.00    +0.000 C 
ATOM     27  C   UNL     1      47.705   1.622   5.993  0.00  0.00    +0.000 C 
ATOM     28  C   UNL     1      46.909   1.315   7.257  0.00  0.00    +0.000 C 
BRANCH  27  29
ATOM     29  O   UNL     1      49.027   2.056   6.303  0.00  0.00    +0.000 OA
ATOM     30  H   UNL     1      48.961   3.011   6.502  0.00  0.00    +0.000 HD
ENDBRANCH  27  29
ENDBRANCH  23  24
ENDBRANCH  20  23
ENDBRANCH  16  17
ENDBRANCH   3  16
TORSDOF 6
ENDMDL
MODEL 3
REMARK VINA RESULT:    -7.293      4.174      9.069
REMARK INTER + INTRA:         -10.308
REMARK INTER:                  -9.743
REMARK INTRA:                  -0.564
REMARK UNBOUND:                -0.670
REMARK  Name = 
REMARK  6 active torsions:
REMARK  status: ('A' for Active; 'I' for Inactive)
REMARK    1  A    between atoms: C_2  and  C_18
REMARK    2  A    between atoms: N_3  and  C_4
REMARK    3  A    between atoms: C_4  and  C_5
REMARK    4  A    between atoms: C_8  and  C_9
REMARK    5  A    between atoms: C_9  and  N_10
REMARK    6  A    between atoms: C_13  and  O_14
REMARK                            x       y       z     vdW  Elec       q    Type
REMARK                         _______ _______ _______ _____ _____    ______ ____
ROOT
ATOM      1  O   UNL     1      47.212   3.029  14.035  0.00  0.00    +0.000 OA
ATOM      2  C   UNL     1      46.839   4.105  14.493  0.00  0.00    +0.000 C 
ATOM      3  N   UNL     1      46.836   4.378  15.837  0.00  0.00    +0.000 N 
ATOM      4  H   UNL     1      46.372   5.216  16.171  0.00  0.00    +0.000 HD
ENDROOT
BRANCH   2   5
ATOM      5  C   UNL     1      46.398   5.203  13.620  0.00  0.00    +0.000 A 
ATOM      6  C   UNL     1      47.250   6.268  13.363  0.00  0.00    +0.000 A 
ATOM      7  S   UNL     1      46.576   7.455  12.340  0.00  0.00    +0.000 S 
ATOM      8  C   UNL     1      45.137   6.565  12.165  0.00  0.00    +0.000 A 
ATOM      9  N   UNL     1      44.127   7.015  11.372  0.00  0.00    +0.000 NA
ATOM     10  C   UNL     1      43.113   6.218  11.293  0.00  0.00    +0.000 A 
ATOM     11  N   UNL     1      43.010   5.017  11.946  0.00  0.00    +0.000 N 
ATOM     12  C   UNL     1      43.969   4.562  12.818  0.00  0.00    +0.000 A 
ATOM     13  O   UNL     1      43.782   3.555  13.495  0.00  0.00    +0.000 OA
ATOM     14  C   UNL     1      45.157   5.392  12.901  0.00  0.00    +0.000 A 
ATOM     15  H   UNL     1      42.176   4.456  11.871  0.00  0.00    +0.000 HD
ENDBRANCH   2   5
BRANCH   3  16
ATOM     16  C   UNL     1      47.126   3.381  16.836  0.00  0.00    +0.000 C 
BRANCH  16  17
ATOM     17  C   UNL     1      48.601   3.242  17.063  0.00  0.00    +0.000 A 
ATOM     18  C   UNL     1      49.346   4.280  17.626  0.00  0.00    +0.000 A 
ATOM     19  C   UNL     1      50.710   4.115  17.846  0.00  0.00    +0.000 A 
ATOM     20  C   UNL     1      51.312   2.918  17.474  0.00  0.00    +0.000 A 
ATOM     21  N   UNL     1      50.615   1.902  16.894  0.00  0.00    +0.000 NA
ATOM     22  C   UNL     1      49.287   2.090  16.701  0.00  0.00    +0.000 A 
BRANCH  20  23
ATOM     23  C   UNL     1      52.799   2.697  17.707  0.00  0.00    +0.000 C 
BRANCH  23  24
ATOM     24  N   UNL     1      53.136   1.517  18.536  0.00  0.00    +0.000 NA
ATOM     25  C   UNL     1      54.284   1.810  19.409  0.00  0.00    +0.000 C 
ATOM     26  C   UNL     1      55.273   0.656  19.280  0.00  0.00    +0.000 C 
ATOM     27  C   UNL     1      54.520  -0.423  18.530  0.00  0.00    +0.000 C 
ATOM     28  C   UNL     1      53.502   0.354  17.702  0.00  0.00    +0.000 C 
BRANCH  27  29
ATOM     29  O   UNL     1      53.880  -1.294  19.459  0.00  0.00    +0.000 OA
ATOM     30  H   UNL     1      54.552  -1.517  20.132  0.00  0.00    +0.000 HD
ENDBRANCH  27  29
ENDBRANCH  23  24
ENDBRANCH  20  23
ENDBRANCH  16  17
ENDBRANCH   3  16
TORSDOF 6
ENDMDL
MODEL 4
REMARK VINA RESULT:    -7.140      3.516      4.465
REMARK INTER + INTRA:         -10.106
REMARK INTER:                  -9.947
REMARK INTRA:                  -0.160
REMARK UNBOUND:                -0.670
REMARK  Name = 
REMARK  6 active torsions:
REMARK  status: ('A' for Active; 'I' for Inactive)
REMARK    1  A    between atoms: C_2  and  C_18
REMARK    2  A    between atoms: N_3  and  C_4
REMARK    3  A    between atoms: C_4  and  C_5
REMARK    4  A    between atoms: C_8  and  C_9
REMARK    5  A    between atoms: C_9  and  N_10
REMARK    6  A    between atoms: C_13  and  O_14
REMARK                            x       y       z     vdW  Elec       q    Type
REMARK                         _______ _______ _______ _____ _____    ______ ____
ROOT
ATOM      1  O   UNL     1      46.774   6.493  13.442  0.00  0.00    +0.000 OA
ATOM      2  C   UNL     1      46.066   7.330  12.889  0.00  0.00    +0.000 C 
ATOM      3  N   UNL     1      44.722   7.148  12.689  0.00  0.00    +0.000 N 
ATOM      4  H   UNL     1      44.219   7.794  12.089  0.00  0.00    +0.000 HD
ENDROOT
BRANCH   2   5
ATOM      5  C   UNL     1      46.610   8.616  12.431  0.00  0.00    +0.000 A 
ATOM      6  C   UNL     1      45.781   9.725  12.335  0.00  0.00    +0.000 A 
ATOM      7  S   UNL     1      46.573  11.129  11.778  0.00  0.00    +0.000 S 
ATOM      8  C   UNL     1      48.066  10.318  11.689  0.00  0.00    +0.000 A 
ATOM      9  N   UNL     1      49.196  10.971  11.304  0.00  0.00    +0.000 NA
ATOM     10  C   UNL     1      50.265  10.246  11.326  0.00  0.00    +0.000 A 
ATOM     11  N   UNL     1      50.307   8.925  11.686  0.00  0.00    +0.000 N 
ATOM     12  C   UNL     1      49.180   8.206  12.004  0.00  0.00    +0.000 A 
ATOM     13  O   UNL     1      49.232   6.993  12.181  0.00  0.00    +0.000 OA
ATOM     14  C   UNL     1      47.956   8.986  12.050  0.00  0.00    +0.000 A 
ATOM     15  H   UNL     1      51.170   8.405  11.649  0.00  0.00    +0.000 HD
ENDBRANCH   2   5
BRANCH   3  16
ATOM     16  C   UNL     1      44.052   5.904  12.971  0.00  0.00    +0.000 C 
BRANCH  16  17
ATOM     17  C   UNL     1      44.308   4.886  11.902  0.00  0.00    +0.000 A 
ATOM     18  C   UNL     1      43.804   5.052  10.610  0.00  0.00    +0.000 A 
ATOM     19  C   UNL     1      44.077   4.102   9.631  0.00  0.00    +0.000 A 
ATOM     20  C   UNL     1      44.832   2.984   9.969  0.00  0.00    +0.000 A 
ATOM     21  N   UNL     1      45.309   2.782  11.229  0.00  0.00    +0.000 NA
ATOM     22  C   UNL     1      45.033   3.729  12.157  0.00  0.00    +0.000 A 
BRANCH  20  23
ATOM     23  C   UNL     1      45.158   1.929   8.924  0.00  0.00    +0.000 C 
BRANCH  23  24
ATOM     24  N   UNL     1      46.376   2.194   8.124  0.00  0.00    +0.000 NA
ATOM     25  C   UNL     1      46.139   3.287   7.167  0.00  0.00    +0.000 C 
ATOM     26  C   UNL     1      46.646   2.831   5.803  0.00  0.00    +0.000 C 
ATOM     27  C   UNL     1      47.428   1.564   6.080  0.00  0.00    +0.000 C 
ATOM     28  C   UNL     1      46.781   1.006   7.343  0.00  0.00    +0.000 C 
BRANCH  27  29
ATOM     29  O   UNL     1      48.800   1.886   6.297  0.00  0.00    +0.000 OA
ATOM     30  H   UNL     1      49.265   1.671   5.464  0.00  0.00    +0.000 HD
ENDBRANCH  27  29
ENDBRANCH  23  24
ENDBRANCH  20  23
ENDBRANCH  16  17
ENDBRANCH   3  16
TORSDOF 6
ENDMDL
MODEL 5
REMARK VINA RESULT:    -7.127      1.521      2.215
REMARK INTER + INTRA:         -10.089
REMARK INTER:                  -9.648
REMARK INTRA:                  -0.441
REMARK UNBOUND:                -0.670
REMARK  Name = 
REMARK  6 active torsions:
REMARK  status: ('A' for Active; 'I' for Inactive)
REMARK    1  A    between atoms: C_2  and  C_18
REMARK    2  A    between atoms: N_3  and  C_4
REMARK    3  A    between atoms: C_4  and  C_5
REMARK    4  A    between atoms: C_8  and  C_9
REMARK    5  A    between atoms: C_9  and  N_10
REMARK    6  A    between atoms: C_13  and  O_14
REMARK                            x       y       z     vdW  Elec       q    Type
REMARK                         _______ _______ _______ _____ _____    ______ ____
ROOT
ATOM      1  O   UNL     1      47.888   5.694  13.476  0.00  0.00    +0.000 OA
ATOM      2  C   UNL     1      47.178   5.262  14.380  0.00  0.00    +0.000 C 
ATOM      3  N   UNL     1      45.810   5.240  14.301  0.00  0.00    +0.000 N 
ATOM      4  H   UNL     1      45.270   5.022  15.133  0.00  0.00    +0.000 HD
ENDROOT
BRANCH   2   5
ATOM      5  C   UNL     1      47.756   4.697  15.608  0.00  0.00    +0.000 A 
ATOM      6  C   UNL     1      47.603   3.346  15.887  0.00  0.00    +0.000 A 
ATOM      7  S   UNL     1      48.325   2.862  17.355  0.00  0.00    +0.000 S 
ATOM      8  C   UNL     1      48.909   4.433  17.649  0.00  0.00    +0.000 A 
ATOM      9  N   UNL     1      49.657   4.707  18.751  0.00  0.00    +0.000 NA
ATOM     10  C   UNL     1      50.073   5.928  18.825  0.00  0.00    +0.000 A 
ATOM     11  N   UNL     1      49.799   6.904  17.903  0.00  0.00    +0.000 N 
ATOM     12  C   UNL     1      48.983   6.693  16.819  0.00  0.00    +0.000 A 
ATOM     13  O   UNL     1      48.640   7.622  16.093  0.00  0.00    +0.000 OA
ATOM     14  C   UNL     1      48.532   5.322  16.656  0.00  0.00    +0.000 A 
ATOM     15  H   UNL     1      50.125   7.849  18.036  0.00  0.00    +0.000 HD
ENDBRANCH   2   5
BRANCH   3  16
ATOM     16  C   UNL     1      45.079   5.856  13.223  0.00  0.00    +0.000 C 
BRANCH  16  17
ATOM     17  C   UNL     1      45.112   5.014  11.985  0.00  0.00    +0.000 A 
ATOM     18  C   UNL     1      45.316   5.586  10.727  0.00  0.00    +0.000 A 
ATOM     19  C   UNL     1      45.365   4.777   9.596  0.00  0.00    +0.000 A 
ATOM     20  C   UNL     1      45.183   3.406   9.740  0.00  0.00    +0.000 A 
ATOM     21  N   UNL     1      44.950   2.826  10.951  0.00  0.00    +0.000 NA
ATOM     22  C   UNL     1      44.917   3.639  12.033  0.00  0.00    +0.000 A 
BRANCH  20  23
ATOM     23  C   UNL     1      45.238   2.489   8.528  0.00  0.00    +0.000 C 
BRANCH  23  24
ATOM     24  N   UNL     1      46.488   2.567   7.739  0.00  0.00    +0.000 NA
ATOM     25  C   UNL     1      46.339   3.519   6.626  0.00  0.00    +0.000 C 
ATOM     26  C   UNL     1      46.852   2.839   5.361  0.00  0.00    +0.000 C 
ATOM     27  C   UNL     1      47.553   1.587   5.845  0.00  0.00    +0.000 C 
ATOM     28  C   UNL     1      46.844   1.257   7.154  0.00  0.00    +0.000 C 
BRANCH  27  29
ATOM     29  O   UNL     1      48.935   1.864   6.058  0.00  0.00    +0.000 OA
ATOM     30  H   UNL     1      49.021   2.122   6.997  0.00  0.00    +0.000 HD
ENDBRANCH  27  29
ENDBRANCH  23  24
ENDBRANCH  20  23
ENDBRANCH  16  17
ENDBRANCH   3  16
TORSDOF 6
ENDMDL
MODEL 6
REMARK VINA RESULT:    -7.040      3.337      4.093
REMARK INTER + INTRA:          -9.974
REMARK INTER:                  -9.097
REMARK INTRA:                  -0.877
REMARK UNBOUND:                -0.670
REMARK  Name = 
REMARK  6 active torsions:
REMARK  status: ('A' for Active; 'I' for Inactive)
REMARK    1  A    between atoms: C_2  and  C_18
REMARK    2  A    between atoms: N_3  and  C_4
REMARK    3  A    between atoms: C_4  and  C_5
REMARK    4  A    between atoms: C_8  and  C_9
REMARK    5  A    between atoms: C_9  and  N_10
REMARK    6  A    between atoms: C_13  and  O_14
REMARK                            x       y       z     vdW  Elec       q    Type
REMARK                         _______ _______ _______ _____ _____    ______ ____
ROOT
ATOM      1  O   UNL     1      48.528   8.626  15.836  0.00  0.00    +0.000 OA
ATOM      2  C   UNL     1      48.860   7.494  15.495  0.00  0.00    +0.000 C 
ATOM      3  N   UNL     1      48.990   7.125  14.181  0.00  0.00    +0.000 N 
ATOM      4  H   UNL     1      49.111   6.143  13.953  0.00  0.00    +0.000 HD
ENDROOT
BRANCH   2   5
ATOM      5  C   UNL     1      49.183   6.456  16.484  0.00  0.00    +0.000 A 
ATOM      6  C   UNL     1      50.201   6.668  17.404  0.00  0.00    +0.000 A 
ATOM      7  S   UNL     1      50.447   5.358  18.469  0.00  0.00    +0.000 S 
ATOM      8  C   UNL     1      49.170   4.478  17.769  0.00  0.00    +0.000 A 
ATOM      9  N   UNL     1      48.820   3.252  18.245  0.00  0.00    +0.000 NA
ATOM     10  C   UNL     1      47.805   2.718  17.652  0.00  0.00    +0.000 A 
ATOM     11  N   UNL     1      47.114   3.291  16.616  0.00  0.00    +0.000 N 
ATOM     12  C   UNL     1      47.481   4.488  16.052  0.00  0.00    +0.000 A 
ATOM     13  O   UNL     1      46.932   4.904  15.036  0.00  0.00    +0.000 OA
ATOM     14  C   UNL     1      48.583   5.160  16.717  0.00  0.00    +0.000 A 
ATOM     15  H   UNL     1      46.350   2.806  16.172  0.00  0.00    +0.000 HD
ENDBRANCH   2   5
BRANCH   3  16
ATOM     16  C   UNL     1      48.605   7.979  13.088  0.00  0.00    +0.000 C 
BRANCH  16  17
ATOM     17  C   UNL     1      47.260   7.603  12.544  0.00  0.00    +0.000 A 
ATOM     18  C   UNL     1      47.129   6.631  11.549  0.00  0.00    +0.000 A 
ATOM     19  C   UNL     1      45.866   6.286  11.079  0.00  0.00    +0.000 A 
ATOM     20  C   UNL     1      44.753   6.939  11.595  0.00  0.00    +0.000 A 
ATOM     21  N   UNL     1      44.855   7.913  12.542  0.00  0.00    +0.000 NA
ATOM     22  C   UNL     1      46.097   8.221  12.985  0.00  0.00    +0.000 A 
BRANCH  20  23
ATOM     23  C   UNL     1      43.356   6.582  11.112  0.00  0.00    +0.000 C 
BRANCH  23  24
ATOM     24  N   UNL     1      42.911   5.207  11.437  0.00  0.00    +0.000 NA
ATOM     25  C   UNL     1      43.082   4.935  12.874  0.00  0.00    +0.000 C 
ATOM     26  C   UNL     1      43.781   3.587  13.012  0.00  0.00    +0.000 C 
ATOM     27  C   UNL     1      43.742   2.982  11.624  0.00  0.00    +0.000 C 
ATOM     28  C   UNL     1      43.695   4.194  10.700  0.00  0.00    +0.000 C 
BRANCH  27  29
ATOM     29  O   UNL     1      42.575   2.176  11.485  0.00  0.00    +0.000 OA
ATOM     30  H   UNL     1      42.713   1.394  12.056  0.00  0.00    +0.000 HD
ENDBRANCH  27  29
ENDBRANCH  23  24
ENDBRANCH  20  23
ENDBRANCH  16  17
ENDBRANCH   3  16
TORSDOF 6
ENDMDL
MODEL 7
REMARK VINA RESULT:    -6.805      3.732      8.805
REMARK INTER + INTRA:          -9.663
REMARK INTER:                  -8.910
REMARK INTRA:                  -0.753
REMARK UNBOUND:                -0.670
REMARK  Name = 
REMARK  6 active torsions:
REMARK  status: ('A' for Active; 'I' for Inactive)
REMARK    1  A    between atoms: C_2  and  C_18
REMARK    2  A    between atoms: N_3  and  C_4
REMARK    3  A    between atoms: C_4  and  C_5
REMARK    4  A    between atoms: C_8  and  C_9
REMARK    5  A    between atoms: C_9  and  N_10
REMARK    6  A    between atoms: C_13  and  O_14
REMARK                            x       y       z     vdW  Elec       q    Type
REMARK                         _______ _______ _______ _____ _____    ______ ____
ROOT
ATOM      1  O   UNL     1      45.114   8.016  11.475  0.00  0.00    +0.000 OA
ATOM      2  C   UNL     1      45.831   7.019  11.462  0.00  0.00    +0.000 C 
ATOM      3  N   UNL     1      47.058   6.982  12.071  0.00  0.00    +0.000 N 
ATOM      4  H   UNL     1      47.674   6.194  11.896  0.00  0.00    +0.000 HD
ENDROOT
BRANCH   2   5
ATOM      5  C   UNL     1      45.401   5.771  10.816  0.00  0.00    +0.000 A 
ATOM      6  C   UNL     1      45.762   5.511   9.501  0.00  0.00    +0.000 A 
ATOM      7  S   UNL     1      45.171   4.025   8.908  0.00  0.00    +0.000 S 
ATOM      8  C   UNL     1      44.450   3.652  10.403  0.00  0.00    +0.000 A 
ATOM      9  N   UNL     1      43.792   2.476  10.590  0.00  0.00    +0.000 NA
ATOM     10  C   UNL     1      43.335   2.303  11.786  0.00  0.00    +0.000 A 
ATOM     11  N   UNL     1      43.464   3.204  12.810  0.00  0.00    +0.000 N 
ATOM     12  C   UNL     1      44.049   4.436  12.645  0.00  0.00    +0.000 A 
ATOM     13  O   UNL     1      44.020   5.276  13.540  0.00  0.00    +0.000 OA
ATOM     14  C   UNL     1      44.631   4.661  11.334  0.00  0.00    +0.000 A 
ATOM     15  H   UNL     1      43.053   3.025  13.713  0.00  0.00    +0.000 HD
ENDBRANCH   2   5
BRANCH   3  16
ATOM     16  C   UNL     1      47.680   8.147  12.648  0.00  0.00    +0.000 C 
BRANCH  16  17
ATOM     17  C   UNL     1      48.203   7.866  14.024  0.00  0.00    +0.000 A 
ATOM     18  C   UNL     1      48.239   8.864  15.001  0.00  0.00    +0.000 A 
ATOM     19  C   UNL     1      48.708   8.569  16.277  0.00  0.00    +0.000 A 
ATOM     20  C   UNL     1      49.160   7.282  16.548  0.00  0.00    +0.000 A 
ATOM     21  N   UNL     1      49.166   6.299  15.605  0.00  0.00    +0.000 NA
ATOM     22  C   UNL     1      48.694   6.615  14.375  0.00  0.00    +0.000 A 
BRANCH  20  23
ATOM     23  C   UNL     1      49.672   6.921  17.933  0.00  0.00    +0.000 C 
BRANCH  23  24
ATOM     24  N   UNL     1      48.963   5.799  18.592  0.00  0.00    +0.000 NA
ATOM     25  C   UNL     1      47.681   6.256  19.153  0.00  0.00    +0.000 C 
ATOM     26  C   UNL     1      47.590   5.739  20.585  0.00  0.00    +0.000 C 
ATOM     27  C   UNL     1      48.724   4.745  20.715  0.00  0.00    +0.000 C 
ATOM     28  C   UNL     1      49.755   5.235  19.704  0.00  0.00    +0.000 C 
BRANCH  27  29
ATOM     29  O   UNL     1      48.256   3.438  20.390  0.00  0.00    +0.000 OA
ATOM     30  H   UNL     1      47.314   3.538  20.148  0.00  0.00    +0.000 HD
ENDBRANCH  27  29
ENDBRANCH  23  24
ENDBRANCH  20  23
ENDBRANCH  16  17
ENDBRANCH   3  16
TORSDOF 6
ENDMDL
MODEL 8
REMARK VINA RESULT:    -6.793      1.680      2.302
REMARK INTER + INTRA:          -9.647
REMARK INTER:                  -9.318
REMARK INTRA:                  -0.329
REMARK UNBOUND:                -0.670
REMARK  Name = 
REMARK  6 active torsions:
REMARK  status: ('A' for Active; 'I' for Inactive)
REMARK    1  A    between atoms: C_2  and  C_18
REMARK    2  A    between atoms: N_3  and  C_4
REMARK    3  A    between atoms: C_4  and  C_5
REMARK    4  A    between atoms: C_8  and  C_9
REMARK    5  A    between atoms: C_9  and  N_10
REMARK    6  A    between atoms: C_13  and  O_14
REMARK                            x       y       z     vdW  Elec       q    Type
REMARK                         _______ _______ _______ _____ _____    ______ ____
ROOT
ATOM      1  O   UNL     1      49.438   6.654  13.856  0.00  0.00    +0.000 OA
ATOM      2  C   UNL     1      48.660   6.962  14.755  0.00  0.00    +0.000 C 
ATOM      3  N   UNL     1      47.447   7.553  14.514  0.00  0.00    +0.000 N 
ATOM      4  H   UNL     1      46.916   7.930  15.294  0.00  0.00    +0.000 HD
ENDROOT
BRANCH   2   5
ATOM      5  C   UNL     1      48.962   6.679  16.165  0.00  0.00    +0.000 A 
ATOM      6  C   UNL     1      49.546   7.657  16.958  0.00  0.00    +0.000 A 
ATOM      7  S   UNL     1      49.837   7.157  18.563  0.00  0.00    +0.000 S 
ATOM      8  C   UNL     1      49.151   5.628  18.269  0.00  0.00    +0.000 A 
ATOM      9  N   UNL     1      49.054   4.701  19.260  0.00  0.00    +0.000 NA
ATOM     10  C   UNL     1      48.470   3.603  18.910  0.00  0.00    +0.000 A 
ATOM     11  N   UNL     1      47.985   3.341  17.655  0.00  0.00    +0.000 N 
ATOM     12  C   UNL     1      48.133   4.215  16.605  0.00  0.00    +0.000 A 
ATOM     13  O   UNL     1      47.818   3.891  15.464  0.00  0.00    +0.000 OA
ATOM     14  C   UNL     1      48.733   5.490  16.956  0.00  0.00    +0.000 A 
ATOM     15  H   UNL     1      47.570   2.449  17.436  0.00  0.00    +0.000 HD
ENDBRANCH   2   5
BRANCH   3  16
ATOM     16  C   UNL     1      47.043   8.003  13.207  0.00  0.00    +0.000 C 
BRANCH  16  17
ATOM     17  C   UNL     1      46.153   7.004  12.532  0.00  0.00    +0.000 A 
ATOM     18  C   UNL     1      44.988   7.403  11.873  0.00  0.00    +0.000 A 
ATOM     19  C   UNL     1      44.192   6.456  11.236  0.00  0.00    +0.000 A 
ATOM     20  C   UNL     1      44.563   5.117  11.290  0.00  0.00    +0.000 A 
ATOM     21  N   UNL     1      45.677   4.698  11.953  0.00  0.00    +0.000 NA
ATOM     22  C   UNL     1      46.435   5.644  12.556  0.00  0.00    +0.000 A 
BRANCH  20  23
ATOM     23  C   UNL     1      43.724   4.055  10.599  0.00  0.00    +0.000 C 
BRANCH  23  24
ATOM     24  N   UNL     1      44.196   3.661   9.251  0.00  0.00    +0.000 NA
ATOM     25  C   UNL     1      44.550   2.232   9.225  0.00  0.00    +0.000 C 
ATOM     26  C   UNL     1      45.918   2.104   8.564  0.00  0.00    +0.000 C 
ATOM     27  C   UNL     1      46.193   3.468   7.966  0.00  0.00    +0.000 C 
ATOM     28  C   UNL     1      45.399   4.420   8.853  0.00  0.00    +0.000 C 
BRANCH  27  29
ATOM     29  O   UNL     1      45.729   3.503   6.618  0.00  0.00    +0.000 OA
ATOM     30  H   UNL     1      45.917   2.621   6.242  0.00  0.00    +0.000 HD
ENDBRANCH  27  29
ENDBRANCH  23  24
ENDBRANCH  20  23
ENDBRANCH  16  17
ENDBRANCH   3  16
TORSDOF 6
ENDMDL
MODEL 9
REMARK VINA RESULT:    -6.728      3.929      8.142
REMARK INTER + INTRA:          -9.562
REMARK INTER:                  -8.747
REMARK INTRA:                  -0.815
REMARK UNBOUND:                -0.670
REMARK  Name = 
REMARK  6 active torsions:
REMARK  status: ('A' for Active; 'I' for Inactive)
REMARK    1  A    between atoms: C_2  and  C_18
REMARK    2  A    between atoms: N_3  and  C_4
REMARK    3  A    between atoms: C_4  and  C_5
REMARK    4  A    between atoms: C_8  and  C_9
REMARK    5  A    between atoms: C_9  and  N_10
REMARK    6  A    between atoms: C_13  and  O_14
REMARK                            x       y       z     vdW  Elec       q    Type
REMARK                         _______ _______ _______ _____ _____    ______ ____
ROOT
ATOM      1  O   UNL     1      47.724   7.553  11.757  0.00  0.00    +0.000 OA
ATOM      2  C   UNL     1      46.906   7.211  12.607  0.00  0.00    +0.000 C 
ATOM      3  N   UNL     1      47.103   7.417  13.948  0.00  0.00    +0.000 N 
ATOM      4  H   UNL     1      46.475   6.976  14.613  0.00  0.00    +0.000 HD
ENDROOT
BRANCH   2   5
ATOM      5  C   UNL     1      45.628   6.586  12.238  0.00  0.00    +0.000 A 
ATOM      6  C   UNL     1      44.628   7.348  11.651  0.00  0.00    +0.000 A 
ATOM      7  S   UNL     1      43.210   6.467  11.299  0.00  0.00    +0.000 S 
ATOM      8  C   UNL     1      43.899   5.023  11.877  0.00  0.00    +0.000 A 
ATOM      9  N   UNL     1      43.210   3.851  11.832  0.00  0.00    +0.000 NA
ATOM     10  C   UNL     1      43.869   2.826  12.260  0.00  0.00    +0.000 A 
ATOM     11  N   UNL     1      45.152   2.866  12.741  0.00  0.00    +0.000 N 
ATOM     12  C   UNL     1      45.856   4.038  12.879  0.00  0.00    +0.000 A 
ATOM     13  O   UNL     1      46.945   4.059  13.445  0.00  0.00    +0.000 OA
ATOM     14  C   UNL     1      45.182   5.215  12.360  0.00  0.00    +0.000 A 
ATOM     15  H   UNL     1      45.600   2.035  13.093  0.00  0.00    +0.000 HD
ENDBRANCH   2   5
BRANCH   3  16
ATOM     16  C   UNL     1      48.344   7.910  14.489  0.00  0.00    +0.000 C 
BRANCH  16  17
ATOM     17  C   UNL     1      48.975   6.914  15.414  0.00  0.00    +0.000 A 
ATOM     18  C   UNL     1      50.286   7.077  15.866  0.00  0.00    +0.000 A 
ATOM     19  C   UNL     1      50.839   6.149  16.742  0.00  0.00    +0.000 A 
ATOM     20  C   UNL     1      50.076   5.054  17.133  0.00  0.00    +0.000 A 
ATOM     21  N   UNL     1      48.806   4.853  16.682  0.00  0.00    +0.000 NA
ATOM     22  C   UNL     1      48.294   5.779  15.837  0.00  0.00    +0.000 A 
BRANCH  20  23
ATOM     23  C   UNL     1      50.643   4.023  18.096  0.00  0.00    +0.000 C 
BRANCH  23  24
ATOM     24  N   UNL     1      51.680   3.133  17.523  0.00  0.00    +0.000 NA
ATOM     25  C   UNL     1      51.117   1.804  17.233  0.00  0.00    +0.000 C 
ATOM     26  C   UNL     1      52.069   0.760  17.806  0.00  0.00    +0.000 C 
ATOM     27  C   UNL     1      53.319   1.531  18.176  0.00  0.00    +0.000 C 
ATOM     28  C   UNL     1      52.807   2.939  18.460  0.00  0.00    +0.000 C 
BRANCH  27  29
ATOM     29  O   UNL     1      54.232   1.520  17.081  0.00  0.00    +0.000 OA
ATOM     30  H   UNL     1      54.754   0.698  17.169  0.00  0.00    +0.000 HD
ENDBRANCH  27  29
ENDBRANCH  23  24
ENDBRANCH  20  23
ENDBRANCH  16  17
ENDBRANCH   3  16
TORSDOF 6
ENDMDL
