MODEL 1
REMARK VINA RESULT:    -8.625      0.000      0.000
REMARK INTER + INTRA:         -13.674
REMARK INTER:                 -12.659
REMARK INTRA:                  -1.015
REMARK UNBOUND:                -1.015
REMARK  Name = 
REMARK  9 active torsions:
REMARK  status: ('A' for Active; 'I' for Inactive)
REMARK    1  A    between atoms: C_1  and  C_2
REMARK    2  A    between atoms: C_2  and  N_3
REMARK    3  A    between atoms: C_2  and  C_20
REMARK    4  A    between atoms: N_3  and  C_4
REMARK    5  A    between atoms: C_4  and  C_5
REMARK    6  A    between atoms: C_8  and  C_9
REMARK    7  A    between atoms: C_9  and  O_10
REMARK    8  A    between atoms: O_10  and  C_11
REMARK    9  A    between atoms: C_11  and  C_12
REMARK                            x       y       z     vdW  Elec       q    Type
REMARK                         _______ _______ _______ _____ _____    ______ ____
ROOT
ATOM      1  C   UNL     1      47.853   5.370  14.515  0.00  0.00    +0.000 C 
ENDROOT
BRANCH   1   2
ATOM      2  C   UNL     1      46.852   5.070  13.421  0.00  0.00    +0.000 A 
ATOM      3  C   UNL     1      46.294   3.792  13.274  0.00  0.00    +0.000 A 
ATOM      4  C   UNL     1      45.305   3.553  12.315  0.00  0.00    +0.000 A 
ATOM      5  C   UNL     1      44.843   4.587  11.490  0.00  0.00    +0.000 A 
ATOM      6  C   UNL     1      45.402   5.862  11.630  0.00  0.00    +0.000 A 
ATOM      7  C   UNL     1      46.396   6.100  12.584  0.00  0.00    +0.000 A 
BRANCH   5   8
ATOM      8  C   UNL     1      43.767   4.327  10.469  0.00  0.00    +0.000 C 
BRANCH   8   9
ATOM      9  O   UNL     1      44.231   3.347   9.545  0.00  0.00    +0.000 OA
BRANCH   9  10
ATOM     10  C   UNL     1      44.876   3.947   8.423  0.00  0.00    +0.000 C 
BRANCH  10  11
ATOM     11  C   UNL     1      45.874   2.992   7.822  0.00  0.00    +0.000 A 
ATOM     12  C   UNL     1      46.769   3.434   6.841  0.00  0.00    +0.000 A 
ATOM     13  C   UNL     1      47.694   2.538   6.329  0.00  0.00    +0.000 A 
ATOM     14  N   UNL     1      47.799   1.253   6.727  0.00  0.00    +0.000 NA
ATOM     15  C   UNL     1      46.935   0.847   7.682  0.00  0.00    +0.000 A 
ATOM     16  C   UNL     1      45.976   1.667   8.256  0.00  0.00    +0.000 A 
ENDBRANCH  10  11
ENDBRANCH   9  10
ENDBRANCH   8   9
ENDBRANCH   5   8
ENDBRANCH   1   2
BRANCH   1  17
ATOM     17  N   UNL     1      47.322   5.131  15.860  0.00  0.00    +0.000 NA
ATOM     18  H   UNL     1      47.611   5.913  16.446  0.00  0.00    +0.000 HD
BRANCH  17  20
ATOM     19  C   UNL     1      46.852   3.185  17.361  0.00  0.00    +0.000 C 
ATOM     20  C   UNL     1      47.870   3.907  16.465  0.00  0.00    +0.000 C 
BRANCH  20  21
ATOM     21  C   UNL     1      49.117   4.321  17.231  0.00  0.00    +0.000 A 
ATOM     22  C   UNL     1      49.314   5.556  17.833  0.00  0.00    +0.000 A 
ATOM     23  S   UNL     1      50.812   5.689  18.644  0.00  0.00    +0.000 S 
ATOM     24  C   UNL     1      51.266   4.113  18.187  0.00  0.00    +0.000 A 
ATOM     25  N   UNL     1      52.469   3.593  18.552  0.00  0.00    +0.000 NA
ATOM     26  C   UNL     1      52.678   2.393  18.124  0.00  0.00    +0.000 A 
ATOM     27  N   UNL     1      51.795   1.663  17.366  0.00  0.00    +0.000 N 
ATOM     28  C   UNL     1      50.574   2.154  16.958  0.00  0.00    +0.000 A 
ATOM     29  O   UNL     1      49.823   1.494  16.247  0.00  0.00    +0.000 OA
ATOM     30  C   UNL     1      50.289   3.495  17.431  0.00  0.00    +0.000 A 
ATOM     31  H   UNL     1      52.028   0.733  17.053  0.00  0.00    +0.000 HD
ENDBRANCH  20  21
ENDBRANCH  17  20
ENDBRANCH   1  17
TORSDOF 8
ENDMDL
MODEL 2
REMARK VINA RESULT:    -7.832      2.212      2.696
REMARK INTER + INTRA:         -12.509
REMARK INTER:                 -11.510
REMARK INTRA:                  -0.999
REMARK UNBOUND:                -1.015
REMARK  Name = 
REMARK  9 active torsions:
REMARK  status: ('A' for Active; 'I' for Inactive)
REMARK    1  A    between atoms: C_1  and  C_2
REMARK    2  A    between atoms: C_2  and  N_3
REMARK    3  A    between atoms: C_2  and  C_20
REMARK    4  A    between atoms: N_3  and  C_4
REMARK    5  A    between atoms: C_4  and  C_5
REMARK    6  A    between atoms: C_8  and  C_9
REMARK    7  A    between atoms: C_9  and  O_10
REMARK    8  A    between atoms: O_10  and  C_11
REMARK    9  A    between atoms: C_11  and  C_12
REMARK                            x       y       z     vdW  Elec       q    Type
REMARK                         _______ _______ _______ _____ _____    ______ ____
ROOT
ATOM      1  C   UNL     1      47.595   5.502  14.397  0.00  0.00    +0.000 C 
ENDROOT
BRANCH   1   2
ATOM      2  C   UNL     1      46.659   5.178  13.253  0.00  0.00    +0.000 A 
ATOM      3  C   UNL     1      45.945   3.973  13.216  0.00  0.00    +0.000 A 
ATOM      4  C   UNL     1      45.018   3.726  12.198  0.00  0.00    +0.000 A 
ATOM      5  C   UNL     1      44.777   4.682  11.202  0.00  0.00    +0.000 A 
ATOM      6  C   UNL     1      45.494   5.883  11.233  0.00  0.00    +0.000 A 
ATOM      7  C   UNL     1      46.425   6.128  12.247  0.00  0.00    +0.000 A 
BRANCH   5   8
ATOM      8  C   UNL     1      43.767   4.417  10.117  0.00  0.00    +0.000 C 
BRANCH   8   9
ATOM      9  O   UNL     1      44.301   3.456   9.211  0.00  0.00    +0.000 OA
BRANCH   9  10
ATOM     10  C   UNL     1      45.114   4.070   8.214  0.00  0.00    +0.000 C 
BRANCH  10  11
ATOM     11  C   UNL     1      46.055   3.058   7.611  0.00  0.00    +0.000 A 
ATOM     12  C   UNL     1      46.160   1.778   8.166  0.00  0.00    +0.000 A 
ATOM     13  C   UNL     1      47.013   0.861   7.571  0.00  0.00    +0.000 A 
ATOM     14  N   UNL     1      47.749   1.121   6.471  0.00  0.00    +0.000 NA
ATOM     15  C   UNL     1      47.627   2.357   5.943  0.00  0.00    +0.000 A 
ATOM     16  C   UNL     1      46.801   3.342   6.464  0.00  0.00    +0.000 A 
ENDBRANCH  10  11
ENDBRANCH   9  10
ENDBRANCH   8   9
ENDBRANCH   5   8
ENDBRANCH   1   2
BRANCH   1  17
ATOM     17  N   UNL     1      47.085   5.060  15.698  0.00  0.00    +0.000 NA
ATOM     18  H   UNL     1      46.713   5.880  16.176  0.00  0.00    +0.000 HD
BRANCH  17  20
ATOM     19  C   UNL     1      47.860   3.053  16.975  0.00  0.00    +0.000 C 
ATOM     20  C   UNL     1      48.145   4.503  16.552  0.00  0.00    +0.000 C 
BRANCH  20  21
ATOM     21  C   UNL     1      48.276   5.433  17.747  0.00  0.00    +0.000 A 
ATOM     22  C   UNL     1      47.376   5.517  18.800  0.00  0.00    +0.000 A 
ATOM     23  S   UNL     1      47.834   6.641  20.002  0.00  0.00    +0.000 S 
ATOM     24  C   UNL     1      49.233   7.084  19.139  0.00  0.00    +0.000 A 
ATOM     25  N   UNL     1      50.085   8.031  19.616  0.00  0.00    +0.000 NA
ATOM     26  C   UNL     1      51.096   8.268  18.848  0.00  0.00    +0.000 A 
ATOM     27  N   UNL     1      51.335   7.646  17.647  0.00  0.00    +0.000 N 
ATOM     28  C   UNL     1      50.491   6.693  17.116  0.00  0.00    +0.000 A 
ATOM     29  O   UNL     1      50.709   6.184  16.022  0.00  0.00    +0.000 OA
ATOM     30  C   UNL     1      49.350   6.382  17.955  0.00  0.00    +0.000 A 
ATOM     31  H   UNL     1      52.138   7.889  17.089  0.00  0.00    +0.000 HD
ENDBRANCH  20  21
ENDBRANCH  17  20
ENDBRANCH   1  17
TORSDOF 8
ENDMDL
MODEL 3
REMARK VINA RESULT:    -7.615      2.878      4.395
REMARK INTER + INTRA:         -12.191
REMARK INTER:                 -10.753
REMARK INTRA:                  -1.437
REMARK UNBOUND:                -1.015
REMARK  Name = 
REMARK  9 active torsions:
REMARK  status: ('A' for Active; 'I' for Inactive)
REMARK    1  A    between atoms: C_1  and  C_2
REMARK    2  A    between atoms: C_2  and  N_3
REMARK    3  A    between atoms: C_2  and  C_20
REMARK    4  A    between atoms: N_3  and  C_4
REMARK    5  A    between atoms: C_4  and  C_5
REMARK    6  A    between atoms: C_8  and  C_9
REMARK    7  A    between atoms: C_9  and  O_10
REMARK    8  A    between atoms: O_10  and  C_11
REMARK    9  A    between atoms: C_11  and  C_12
REMARK                            x       y       z     vdW  Elec       q    Type
REMARK                         _______ _______ _______ _____ _____    ______ ____
ROOT
ATOM      1  C   UNL     1      47.444   4.555  14.831  0.00  0.00    +0.000 C 
ENDROOT
BRANCH   1   2
ATOM      2  C   UNL     1      46.421   4.519  13.717  0.00  0.00    +0.000 A 
ATOM      3  C   UNL     1      45.851   5.697  13.213  0.00  0.00    +0.000 A 
ATOM      4  C   UNL     1      44.973   5.654  12.125  0.00  0.00    +0.000 A 
ATOM      5  C   UNL     1      44.653   4.436  11.511  0.00  0.00    +0.000 A 
ATOM      6  C   UNL     1      45.215   3.258  12.016  0.00  0.00    +0.000 A 
ATOM      7  C   UNL     1      46.087   3.299  13.108  0.00  0.00    +0.000 A 
BRANCH   5   8
ATOM      8  C   UNL     1      43.719   4.398  10.330  0.00  0.00    +0.000 C 
BRANCH   8   9
ATOM      9  O   UNL     1      44.185   3.423   9.402  0.00  0.00    +0.000 OA
BRANCH   9  10
ATOM     10  C   UNL     1      44.933   4.021   8.345  0.00  0.00    +0.000 C 
BRANCH  10  11
ATOM     11  C   UNL     1      45.885   3.018   7.746  0.00  0.00    +0.000 A 
ATOM     12  C   UNL     1      46.711   3.383   6.677  0.00  0.00    +0.000 A 
ATOM     13  C   UNL     1      47.596   2.446   6.167  0.00  0.00    +0.000 A 
ATOM     14  N   UNL     1      47.725   1.192   6.648  0.00  0.00    +0.000 NA
ATOM     15  C   UNL     1      46.928   0.861   7.687  0.00  0.00    +0.000 A 
ATOM     16  C   UNL     1      46.013   1.727   8.265  0.00  0.00    +0.000 A 
ENDBRANCH  10  11
ENDBRANCH   9  10
ENDBRANCH   8   9
ENDBRANCH   5   8
ENDBRANCH   1   2
BRANCH   1  17
ATOM     17  N   UNL     1      47.543   5.867  15.477  0.00  0.00    +0.000 NA
ATOM     18  H   UNL     1      47.140   6.553  14.840  0.00  0.00    +0.000 HD
BRANCH  17  20
ATOM     19  C   UNL     1      49.396   5.964  17.155  0.00  0.00    +0.000 C 
ATOM     20  C   UNL     1      48.939   6.264  15.719  0.00  0.00    +0.000 C 
BRANCH  20  21
ATOM     21  C   UNL     1      49.034   7.743  15.383  0.00  0.00    +0.000 A 
ATOM     22  C   UNL     1      48.967   8.780  16.304  0.00  0.00    +0.000 A 
ATOM     23  S   UNL     1      49.143  10.328  15.603  0.00  0.00    +0.000 S 
ATOM     24  C   UNL     1      49.277   9.670  14.039  0.00  0.00    +0.000 A 
ATOM     25  N   UNL     1      49.437  10.469  12.950  0.00  0.00    +0.000 NA
ATOM     26  C   UNL     1      49.513   9.829  11.831  0.00  0.00    +0.000 A 
ATOM     27  N   UNL     1      49.445   8.464  11.699  0.00  0.00    +0.000 N 
ATOM     28  C   UNL     1      49.266   7.616  12.771  0.00  0.00    +0.000 A 
ATOM     29  O   UNL     1      49.168   6.403  12.619  0.00  0.00    +0.000 OA
ATOM     30  C   UNL     1      49.193   8.291  14.052  0.00  0.00    +0.000 A 
ATOM     31  H   UNL     1      49.498   8.029  10.791  0.00  0.00    +0.000 HD
ENDBRANCH  20  21
ENDBRANCH  17  20
ENDBRANCH   1  17
TORSDOF 8
ENDMDL
MODEL 4
REMARK VINA RESULT:    -7.417      2.624      3.618
REMARK INTER + INTRA:         -11.901
REMARK INTER:                 -10.810
REMARK INTRA:                  -1.091
REMARK UNBOUND:                -1.015
REMARK  Name = 
REMARK  9 active torsions:
REMARK  status: ('A' for Active; 'I' for Inactive)
REMARK    1  A    between atoms: C_1  and  C_2
REMARK    2  A    between atoms: C_2  and  N_3
REMARK    3  A    between atoms: C_2  and  C_20
REMARK    4  A    between atoms: N_3  and  C_4
REMARK    5  A    between atoms: C_4  and  C_5
REMARK    6  A    between atoms: C_8  and  C_9
REMARK    7  A    between atoms: C_9  and  O_10
REMARK    8  A    between atoms: O_10  and  C_11
REMARK    9  A    between atoms: C_11  and  C_12
REMARK                            x       y       z     vdW  Elec       q    Type
REMARK                         _______ _______ _______ _____ _____    ______ ____
ROOT
ATOM      1  C   UNL     1      48.425   6.766  13.492  0.00  0.00    +0.000 C 
ENDROOT
BRANCH   1   2
ATOM      2  C   UNL     1      47.174   6.222  12.837  0.00  0.00    +0.000 A 
ATOM      3  C   UNL     1      46.695   6.749  11.630  0.00  0.00    +0.000 A 
ATOM      4  C   UNL     1      45.589   6.178  10.993  0.00  0.00    +0.000 A 
ATOM      5  C   UNL     1      44.942   5.063  11.543  0.00  0.00    +0.000 A 
ATOM      6  C   UNL     1      45.414   4.539  12.752  0.00  0.00    +0.000 A 
ATOM      7  C   UNL     1      46.515   5.113  13.392  0.00  0.00    +0.000 A 
BRANCH   5   8
ATOM      8  C   UNL     1      43.760   4.443  10.845  0.00  0.00    +0.000 C 
BRANCH   8   9
ATOM      9  O   UNL     1      44.133   4.107   9.511  0.00  0.00    +0.000 OA
BRANCH   9  10
ATOM     10  C   UNL     1      44.407   2.714   9.379  0.00  0.00    +0.000 C 
BRANCH  10  11
ATOM     11  C   UNL     1      45.539   2.493   8.409  0.00  0.00    +0.000 A 
ATOM     12  C   UNL     1      46.100   3.577   7.724  0.00  0.00    +0.000 A 
ATOM     13  C   UNL     1      47.159   3.344   6.860  0.00  0.00    +0.000 A 
ATOM     14  N   UNL     1      47.699   2.128   6.642  0.00  0.00    +0.000 NA
ATOM     15  C   UNL     1      47.153   1.096   7.319  0.00  0.00    +0.000 A 
ATOM     16  C   UNL     1      46.094   1.227   8.204  0.00  0.00    +0.000 A 
ENDBRANCH  10  11
ENDBRANCH   9  10
ENDBRANCH   8   9
ENDBRANCH   5   8
ENDBRANCH   1   2
BRANCH   1  17
ATOM     17  N   UNL     1      48.799   6.037  14.707  0.00  0.00    +0.000 NA
ATOM     18  H   UNL     1      48.044   5.387  14.919  0.00  0.00    +0.000 HD
BRANCH  17  20
ATOM     19  C   UNL     1      50.287   7.677  15.871  0.00  0.00    +0.000 C 
ATOM     20  C   UNL     1      48.945   6.928  15.868  0.00  0.00    +0.000 C 
BRANCH  20  21
ATOM     21  C   UNL     1      48.768   6.063  17.105  0.00  0.00    +0.000 A 
ATOM     22  C   UNL     1      49.015   4.700  17.172  0.00  0.00    +0.000 A 
ATOM     23  S   UNL     1      48.748   4.032  18.721  0.00  0.00    +0.000 S 
ATOM     24  C   UNL     1      48.256   5.536  19.350  0.00  0.00    +0.000 A 
ATOM     25  N   UNL     1      47.871   5.665  20.648  0.00  0.00    +0.000 NA
ATOM     26  C   UNL     1      47.516   6.861  20.978  0.00  0.00    +0.000 A 
ATOM     27  N   UNL     1      47.510   7.942  20.130  0.00  0.00    +0.000 N 
ATOM     28  C   UNL     1      47.874   7.855  18.803  0.00  0.00    +0.000 A 
ATOM     29  O   UNL     1      47.819   8.829  18.059  0.00  0.00    +0.000 OA
ATOM     30  C   UNL     1      48.299   6.531  18.393  0.00  0.00    +0.000 A 
ATOM     31  H   UNL     1      47.206   8.848  20.450  0.00  0.00    +0.000 HD
ENDBRANCH  20  21
ENDBRANCH  17  20
ENDBRANCH   1  17
TORSDOF 8
ENDMDL
MODEL 5
REMARK VINA RESULT:    -7.302      2.001      2.723
REMARK INTER + INTRA:         -11.731
REMARK INTER:                 -10.455
REMARK INTRA:                  -1.276
REMARK UNBOUND:                -1.015
REMARK  Name = 
REMARK  9 active torsions:
REMARK  status: ('A' for Active; 'I' for Inactive)
REMARK    1  A    between atoms: C_1  and  C_2
REMARK    2  A    between atoms: C_2  and  N_3
REMARK    3  A    between atoms: C_2  and  C_20
REMARK    4  A    between atoms: N_3  and  C_4
REMARK    5  A    between atoms: C_4  and  C_5
REMARK    6  A    between atoms: C_8  and  C_9
REMARK    7  A    between atoms: C_9  and  O_10
REMARK    8  A    between atoms: O_10  and  C_11
REMARK    9  A    between atoms: C_11  and  C_12
REMARK                            x       y       z     vdW  Elec       q    Type
REMARK                         _______ _______ _______ _____ _____    ______ ____
ROOT
ATOM      1  C   UNL     1      48.536   6.463  13.446  0.00  0.00    +0.000 C 
ENDROOT
BRANCH   1   2
ATOM      2  C   UNL     1      47.217   6.079  12.813  0.00  0.00    +0.000 A 
ATOM      3  C   UNL     1      46.819   6.610  11.579  0.00  0.00    +0.000 A 
ATOM      4  C   UNL     1      45.638   6.179  10.966  0.00  0.00    +0.000 A 
ATOM      5  C   UNL     1      44.835   5.202  11.567  0.00  0.00    +0.000 A 
ATOM      6  C   UNL     1      45.226   4.674  12.803  0.00  0.00    +0.000 A 
ATOM      7  C   UNL     1      46.402   5.110  13.420  0.00  0.00    +0.000 A 
BRANCH   5   8
ATOM      8  C   UNL     1      43.572   4.730  10.895  0.00  0.00    +0.000 C 
BRANCH   8   9
ATOM      9  O   UNL     1      43.894   4.236   9.598  0.00  0.00    +0.000 OA
BRANCH   9  10
ATOM     10  C   UNL     1      44.409   2.908   9.655  0.00  0.00    +0.000 C 
BRANCH  10  11
ATOM     11  C   UNL     1      45.490   2.722   8.622  0.00  0.00    +0.000 A 
ATOM     12  C   UNL     1      45.997   1.445   8.356  0.00  0.00    +0.000 A 
ATOM     13  C   UNL     1      46.970   1.304   7.379  0.00  0.00    +0.000 A 
ATOM     14  N   UNL     1      47.459   2.328   6.649  0.00  0.00    +0.000 NA
ATOM     15  C   UNL     1      46.950   3.551   6.911  0.00  0.00    +0.000 A 
ATOM     16  C   UNL     1      45.976   3.793   7.867  0.00  0.00    +0.000 A 
ENDBRANCH  10  11
ENDBRANCH   9  10
ENDBRANCH   8   9
ENDBRANCH   5   8
ENDBRANCH   1   2
BRANCH   1  17
ATOM     17  N   UNL     1      48.529   7.815  14.012  0.00  0.00    +0.000 NA
ATOM     18  H   UNL     1      49.391   8.274  13.718  0.00  0.00    +0.000 HD
BRANCH  17  20
ATOM     19  C   UNL     1      48.279   9.198  16.082  0.00  0.00    +0.000 C 
ATOM     20  C   UNL     1      48.521   7.804  15.482  0.00  0.00    +0.000 C 
BRANCH  20  21
ATOM     21  C   UNL     1      49.852   7.214  15.920  0.00  0.00    +0.000 A 
ATOM     22  C   UNL     1      51.096   7.786  15.691  0.00  0.00    +0.000 A 
ATOM     23  S   UNL     1      52.392   6.885  16.343  0.00  0.00    +0.000 S 
ATOM     24  C   UNL     1      51.340   5.678  16.922  0.00  0.00    +0.000 A 
ATOM     25  N   UNL     1      51.815   4.587  17.582  0.00  0.00    +0.000 NA
ATOM     26  C   UNL     1      50.900   3.754  17.951  0.00  0.00    +0.000 A 
ATOM     27  N   UNL     1      49.555   3.910  17.724  0.00  0.00    +0.000 N 
ATOM     28  C   UNL     1      49.030   4.989  17.045  0.00  0.00    +0.000 A 
ATOM     29  O   UNL     1      47.828   5.081  16.820  0.00  0.00    +0.000 OA
ATOM     30  C   UNL     1      50.021   5.961  16.625  0.00  0.00    +0.000 A 
ATOM     31  H   UNL     1      48.895   3.211  18.028  0.00  0.00    +0.000 HD
ENDBRANCH  20  21
ENDBRANCH  17  20
ENDBRANCH   1  17
TORSDOF 8
ENDMDL
MODEL 6
REMARK VINA RESULT:    -6.964      3.984      8.782
REMARK INTER + INTRA:         -11.236
REMARK INTER:                  -9.477
REMARK INTRA:                  -1.759
REMARK UNBOUND:                -1.015
REMARK  Name = 
REMARK  9 active torsions:
REMARK  status: ('A' for Active; 'I' for Inactive)
REMARK    1  A    between atoms: C_1  and  C_2
REMARK    2  A    between atoms: C_2  and  N_3
REMARK    3  A    between atoms: C_2  and  C_20
REMARK    4  A    between atoms: N_3  and  C_4
REMARK    5  A    between atoms: C_4  and  C_5
REMARK    6  A    between atoms: C_8  and  C_9
REMARK    7  A    between atoms: C_9  and  O_10
REMARK    8  A    between atoms: O_10  and  C_11
REMARK    9  A    between atoms: C_11  and  C_12
REMARK                            x       y       z     vdW  Elec       q    Type
REMARK                         _______ _______ _______ _____ _____    ______ ____
ROOT
ATOM      1  C   UNL     1      48.018   8.256  14.179  0.00  0.00    +0.000 C 
ENDROOT
BRANCH   1   2
ATOM      2  C   UNL     1      48.906   7.921  15.357  0.00  0.00    +0.000 A 
ATOM      3  C   UNL     1      48.633   8.417  16.639  0.00  0.00    +0.000 A 
ATOM      4  C   UNL     1      49.411   8.028  17.734  0.00  0.00    +0.000 A 
ATOM      5  C   UNL     1      50.473   7.127  17.574  0.00  0.00    +0.000 A 
ATOM      6  C   UNL     1      50.752   6.636  16.294  0.00  0.00    +0.000 A 
ATOM      7  C   UNL     1      49.978   7.030  15.198  0.00  0.00    +0.000 A 
BRANCH   5   8
ATOM      8  C   UNL     1      51.298   6.700  18.759  0.00  0.00    +0.000 C 
BRANCH   8   9
ATOM      9  O   UNL     1      51.282   5.277  18.846  0.00  0.00    +0.000 OA
BRANCH   9  10
ATOM     10  C   UNL     1      50.107   4.806  19.501  0.00  0.00    +0.000 C 
BRANCH  10  11
ATOM     11  C   UNL     1      49.178   4.159  18.507  0.00  0.00    +0.000 A 
ATOM     12  C   UNL     1      47.889   4.668  18.314  0.00  0.00    +0.000 A 
ATOM     13  C   UNL     1      47.069   4.069  17.370  0.00  0.00    +0.000 A 
ATOM     14  N   UNL     1      47.440   3.021  16.607  0.00  0.00    +0.000 NA
ATOM     15  C   UNL     1      48.691   2.550  16.798  0.00  0.00    +0.000 A 
ATOM     16  C   UNL     1      49.584   3.081  17.715  0.00  0.00    +0.000 A 
ENDBRANCH  10  11
ENDBRANCH   9  10
ENDBRANCH   8   9
ENDBRANCH   5   8
ENDBRANCH   1   2
BRANCH   1  17
ATOM     17  N   UNL     1      46.922   7.301  13.997  0.00  0.00    +0.000 NA
ATOM     18  H   UNL     1      46.921   6.678  14.804  0.00  0.00    +0.000 HD
BRANCH  17  20
ATOM     19  C   UNL     1      48.043   7.109  11.769  0.00  0.00    +0.000 C 
ATOM     20  C   UNL     1      47.105   6.464  12.802  0.00  0.00    +0.000 C 
BRANCH  20  21
ATOM     21  C   UNL     1      45.718   6.205  12.235  0.00  0.00    +0.000 A 
ATOM     22  C   UNL     1      44.884   7.169  11.687  0.00  0.00    +0.000 A 
ATOM     23  S   UNL     1      43.404   6.543  11.109  0.00  0.00    +0.000 S 
ATOM     24  C   UNL     1      43.809   4.966  11.604  0.00  0.00    +0.000 A 
ATOM     25  N   UNL     1      42.954   3.925  11.414  0.00  0.00    +0.000 NA
ATOM     26  C   UNL     1      43.393   2.793  11.850  0.00  0.00    +0.000 A 
ATOM     27  N   UNL     1      44.610   2.602  12.459  0.00  0.00    +0.000 N 
ATOM     28  C   UNL     1      45.501   3.628  12.688  0.00  0.00    +0.000 A 
ATOM     29  O   UNL     1      46.563   3.436  13.271  0.00  0.00    +0.000 OA
ATOM     30  C   UNL     1      45.056   4.918  12.198  0.00  0.00    +0.000 A 
ATOM     31  H   UNL     1      44.886   1.691  12.789  0.00  0.00    +0.000 HD
ENDBRANCH  20  21
ENDBRANCH  17  20
ENDBRANCH   1  17
TORSDOF 8
ENDMDL
MODEL 7
REMARK VINA RESULT:    -6.516      2.650      3.915
REMARK INTER + INTRA:         -10.579
REMARK INTER:                  -9.432
REMARK INTRA:                  -1.147
REMARK UNBOUND:                -1.015
REMARK  Name = 
REMARK  9 active torsions:
REMARK  status: ('A' for Active; 'I' for Inactive)
REMARK    1  A    between atoms: C_1  and  C_2
REMARK    2  A    between atoms: C_2  and  N_3
REMARK    3  A    between atoms: C_2  and  C_20
REMARK    4  A    between atoms: N_3  and  C_4
REMARK    5  A    between atoms: C_4  and  C_5
REMARK    6  A    between atoms: C_8  and  C_9
REMARK    7  A    between atoms: C_9  and  O_10
REMARK    8  A    between atoms: O_10  and  C_11
REMARK    9  A    between atoms: C_11  and  C_12
REMARK                            x       y       z     vdW  Elec       q    Type
REMARK                         _______ _______ _______ _____ _____    ______ ____
ROOT
ATOM      1  C   UNL     1      49.535   8.064  14.082  0.00  0.00    +0.000 C 
ENDROOT
BRANCH   1   2
ATOM      2  C   UNL     1      48.179   7.598  13.602  0.00  0.00    +0.000 A 
ATOM      3  C   UNL     1      47.097   8.483  13.504  0.00  0.00    +0.000 A 
ATOM      4  C   UNL     1      45.874   8.058  12.975  0.00  0.00    +0.000 A 
ATOM      5  C   UNL     1      45.708   6.742  12.524  0.00  0.00    +0.000 A 
ATOM      6  C   UNL     1      46.785   5.853  12.627  0.00  0.00    +0.000 A 
ATOM      7  C   UNL     1      48.005   6.276  13.161  0.00  0.00    +0.000 A 
BRANCH   5   8
ATOM      8  C   UNL     1      44.394   6.293  11.942  0.00  0.00    +0.000 C 
BRANCH   8   9
ATOM      9  O   UNL     1      44.605   5.857  10.601  0.00  0.00    +0.000 OA
BRANCH   9  10
ATOM     10  C   UNL     1      44.023   4.576  10.368  0.00  0.00    +0.000 C 
BRANCH  10  11
ATOM     11  C   UNL     1      44.871   3.785   9.407  0.00  0.00    +0.000 A 
ATOM     12  C   UNL     1      44.902   2.388   9.482  0.00  0.00    +0.000 A 
ATOM     13  C   UNL     1      45.670   1.687   8.565  0.00  0.00    +0.000 A 
ATOM     14  N   UNL     1      46.389   2.270   7.583  0.00  0.00    +0.000 NA
ATOM     15  C   UNL     1      46.338   3.617   7.519  0.00  0.00    +0.000 A 
ATOM     16  C   UNL     1      45.600   4.405   8.388  0.00  0.00    +0.000 A 
ENDBRANCH  10  11
ENDBRANCH   9  10
ENDBRANCH   8   9
ENDBRANCH   5   8
ENDBRANCH   1   2
BRANCH   1  17
ATOM     17  N   UNL     1      50.331   6.989  14.683  0.00  0.00    +0.000 NA
ATOM     18  H   UNL     1      49.687   6.249  14.958  0.00  0.00    +0.000 HD
BRANCH  17  20
ATOM     19  C   UNL     1      52.542   7.622  15.668  0.00  0.00    +0.000 C 
ATOM     20  C   UNL     1      51.035   7.430  15.897  0.00  0.00    +0.000 C 
BRANCH  20  21
ATOM     21  C   UNL     1      50.745   6.391  16.969  0.00  0.00    +0.000 A 
ATOM     22  C   UNL     1      51.549   5.300  17.265  0.00  0.00    +0.000 A 
ATOM     23  S   UNL     1      50.955   4.342  18.549  0.00  0.00    +0.000 S 
ATOM     24  C   UNL     1      49.581   5.331  18.729  0.00  0.00    +0.000 A 
ATOM     25  N   UNL     1      48.634   5.057  19.667  0.00  0.00    +0.000 NA
ATOM     26  C   UNL     1      47.646   5.888  19.678  0.00  0.00    +0.000 A 
ATOM     27  N   UNL     1      47.516   6.968  18.840  0.00  0.00    +0.000 N 
ATOM     28  C   UNL     1      48.440   7.274  17.864  0.00  0.00    +0.000 A 
ATOM     29  O   UNL     1      48.277   8.222  17.103  0.00  0.00    +0.000 OA
ATOM     30  C   UNL     1      49.579   6.377  17.827  0.00  0.00    +0.000 A 
ATOM     31  H   UNL     1      46.709   7.570  18.894  0.00  0.00    +0.000 HD
ENDBRANCH  20  21
ENDBRANCH  17  20
ENDBRANCH   1  17
TORSDOF 8
ENDMDL
MODEL 8
REMARK VINA RESULT:    -6.455      5.593      8.566
REMARK INTER + INTRA:         -10.489
REMARK INTER:                  -9.109
REMARK INTRA:                  -1.380
REMARK UNBOUND:                -1.015
REMARK  Name = 
REMARK  9 active torsions:
REMARK  status: ('A' for Active; 'I' for Inactive)
REMARK    1  A    between atoms: C_1  and  C_2
REMARK    2  A    between atoms: C_2  and  N_3
REMARK    3  A    between atoms: C_2  and  C_20
REMARK    4  A    between atoms: N_3  and  C_4
REMARK    5  A    between atoms: C_4  and  C_5
REMARK    6  A    between atoms: C_8  and  C_9
REMARK    7  A    between atoms: C_9  and  O_10
REMARK    8  A    between atoms: O_10  and  C_11
REMARK    9  A    between atoms: C_11  and  C_12
REMARK                            x       y       z     vdW  Elec       q    Type
REMARK                         _______ _______ _______ _____ _____    ______ ____
ROOT
ATOM      1  C   UNL     1      47.230   7.596  12.400  0.00  0.00    +0.000 C 
ENDROOT
BRANCH   1   2
ATOM      2  C   UNL     1      48.510   8.298  12.006  0.00  0.00    +0.000 A 
ATOM      3  C   UNL     1      49.689   7.581  11.761  0.00  0.00    +0.000 A 
ATOM      4  C   UNL     1      50.841   8.236  11.313  0.00  0.00    +0.000 A 
ATOM      5  C   UNL     1      50.837   9.619  11.091  0.00  0.00    +0.000 A 
ATOM      6  C   UNL     1      49.664  10.339  11.341  0.00  0.00    +0.000 A 
ATOM      7  C   UNL     1      48.514   9.686  11.795  0.00  0.00    +0.000 A 
BRANCH   5   8
ATOM      8  C   UNL     1      52.076  10.317  10.594  0.00  0.00    +0.000 C 
BRANCH   8   9
ATOM      9  O   UNL     1      53.202   9.471  10.808  0.00  0.00    +0.000 OA
BRANCH   9  10
ATOM     10  C   UNL     1      54.058   9.438   9.668  0.00  0.00    +0.000 C 
BRANCH  10  11
ATOM     11  C   UNL     1      53.544   8.446   8.658  0.00  0.00    +0.000 A 
ATOM     12  C   UNL     1      53.126   8.880   7.395  0.00  0.00    +0.000 A 
ATOM     13  C   UNL     1      52.685   7.939   6.477  0.00  0.00    +0.000 A 
ATOM     14  N   UNL     1      52.643   6.613   6.720  0.00  0.00    +0.000 NA
ATOM     15  C   UNL     1      53.059   6.211   7.939  0.00  0.00    +0.000 A 
ATOM     16  C   UNL     1      53.518   7.074   8.923  0.00  0.00    +0.000 A 
ENDBRANCH  10  11
ENDBRANCH   9  10
ENDBRANCH   8   9
ENDBRANCH   5   8
ENDBRANCH   1   2
BRANCH   1  17
ATOM     17  N   UNL     1      46.799   6.596  11.418  0.00  0.00    +0.000 NA
ATOM     18  H   UNL     1      47.322   6.765  10.559  0.00  0.00    +0.000 HD
BRANCH  17  20
ATOM     19  C   UNL     1      44.645   7.737  11.982  0.00  0.00    +0.000 C 
ATOM     20  C   UNL     1      45.371   6.718  11.090  0.00  0.00    +0.000 C 
BRANCH  20  21
ATOM     21  C   UNL     1      44.776   5.323  11.210  0.00  0.00    +0.000 A 
ATOM     22  C   UNL     1      44.098   4.834  12.317  0.00  0.00    +0.000 A 
ATOM     23  S   UNL     1      43.526   3.237  12.118  0.00  0.00    +0.000 S 
ATOM     24  C   UNL     1      44.197   3.129  10.557  0.00  0.00    +0.000 A 
ATOM     25  N   UNL     1      44.079   1.994   9.816  0.00  0.00    +0.000 NA
ATOM     26  C   UNL     1      44.647   2.056   8.659  0.00  0.00    +0.000 A 
ATOM     27  N   UNL     1      45.321   3.149   8.171  0.00  0.00    +0.000 N 
ATOM     28  C   UNL     1      45.482   4.313   8.891  0.00  0.00    +0.000 A 
ATOM     29  O   UNL     1      46.125   5.258   8.447  0.00  0.00    +0.000 OA
ATOM     30  C   UNL     1      44.844   4.294  10.194  0.00  0.00    +0.000 A 
ATOM     31  H   UNL     1      45.755   3.125   7.261  0.00  0.00    +0.000 HD
ENDBRANCH  20  21
ENDBRANCH  17  20
ENDBRANCH   1  17
TORSDOF 8
ENDMDL
MODEL 9
REMARK VINA RESULT:    -6.291      3.094      4.691
REMARK INTER + INTRA:         -10.248
REMARK INTER:                  -8.608
REMARK INTRA:                  -1.640
REMARK UNBOUND:                -1.015
REMARK  Name = 
REMARK  9 active torsions:
REMARK  status: ('A' for Active; 'I' for Inactive)
REMARK    1  A    between atoms: C_1  and  C_2
REMARK    2  A    between atoms: C_2  and  N_3
REMARK    3  A    between atoms: C_2  and  C_20
REMARK    4  A    between atoms: N_3  and  C_4
REMARK    5  A    between atoms: C_4  and  C_5
REMARK    6  A    between atoms: C_8  and  C_9
REMARK    7  A    between atoms: C_9  and  O_10
REMARK    8  A    between atoms: O_10  and  C_11
REMARK    9  A    between atoms: C_11  and  C_12
REMARK                            x       y       z     vdW  Elec       q    Type
REMARK                         _______ _______ _______ _____ _____    ______ ____
ROOT
ATOM      1  C   UNL     1      48.823   8.149  17.547  0.00  0.00    +0.000 C 
ENDROOT
BRANCH   1   2
ATOM      2  C   UNL     1      48.545   8.046  16.064  0.00  0.00    +0.000 A 
ATOM      3  C   UNL     1      48.236   9.179  15.300  0.00  0.00    +0.000 A 
ATOM      4  C   UNL     1      48.068   9.080  13.915  0.00  0.00    +0.000 A 
ATOM      5  C   UNL     1      48.216   7.849  13.262  0.00  0.00    +0.000 A 
ATOM      6  C   UNL     1      48.517   6.714  14.023  0.00  0.00    +0.000 A 
ATOM      7  C   UNL     1      48.678   6.812  15.408  0.00  0.00    +0.000 A 
BRANCH   5   8
ATOM      8  C   UNL     1      48.049   7.751  11.768  0.00  0.00    +0.000 C 
BRANCH   8   9
ATOM      9  O   UNL     1      47.180   6.662  11.469  0.00  0.00    +0.000 OA
BRANCH   9  10
ATOM     10  C   UNL     1      45.811   7.021  11.643  0.00  0.00    +0.000 C 
BRANCH  10  11
ATOM     11  C   UNL     1      44.958   5.785  11.761  0.00  0.00    +0.000 A 
ATOM     12  C   UNL     1      44.236   5.537  12.933  0.00  0.00    +0.000 A 
ATOM     13  C   UNL     1      43.437   4.406  12.999  0.00  0.00    +0.000 A 
ATOM     14  N   UNL     1      43.299   3.521  11.990  0.00  0.00    +0.000 NA
ATOM     15  C   UNL     1      43.994   3.782  10.862  0.00  0.00    +0.000 A 
ATOM     16  C   UNL     1      44.817   4.886  10.699  0.00  0.00    +0.000 A 
ENDBRANCH  10  11
ENDBRANCH   9  10
ENDBRANCH   8   9
ENDBRANCH   5   8
ENDBRANCH   1   2
BRANCH   1  17
ATOM     17  N   UNL     1      47.968   7.272  18.353  0.00  0.00    +0.000 NA
ATOM     18  H   UNL     1      47.252   7.856  18.786  0.00  0.00    +0.000 HD
BRANCH  17  20
ATOM     19  C   UNL     1      49.496   7.616  20.305  0.00  0.00    +0.000 C 
ATOM     20  C   UNL     1      48.711   6.617  19.440  0.00  0.00    +0.000 C 
BRANCH  20  21
ATOM     21  C   UNL     1      49.619   5.586  18.787  0.00  0.00    +0.000 A 
ATOM     22  C   UNL     1      51.006   5.608  18.816  0.00  0.00    +0.000 A 
ATOM     23  S   UNL     1      51.726   4.284  18.013  0.00  0.00    +0.000 S 
ATOM     24  C   UNL     1      50.209   3.654  17.564  0.00  0.00    +0.000 A 
ATOM     25  N   UNL     1      50.109   2.512  16.832  0.00  0.00    +0.000 NA
ATOM     26  C   UNL     1      48.896   2.164  16.560  0.00  0.00    +0.000 A 
ATOM     27  N   UNL     1      47.773   2.850  16.953  0.00  0.00    +0.000 N 
ATOM     28  C   UNL     1      47.826   4.020  17.680  0.00  0.00    +0.000 A 
ATOM     29  O   UNL     1      46.808   4.633  17.982  0.00  0.00    +0.000 OA
ATOM     30  C   UNL     1      49.171   4.440  18.024  0.00  0.00    +0.000 A 
ATOM     31  H   UNL     1      46.853   2.528  16.693  0.00  0.00    +0.000 HD
ENDBRANCH  20  21
ENDBRANCH  17  20
ENDBRANCH   1  17
TORSDOF 8
ENDMDL
