MODEL 1
REMARK VINA RESULT:    -8.764      0.000      0.000
REMARK INTER + INTRA:         -11.307
REMARK INTER:                 -11.326
REMARK INTRA:                   0.019
REMARK UNBOUND:                 0.019
REMARK  Name = 
REMARK  5 active torsions:
REMARK  status: ('A' for Active; 'I' for Inactive)
REMARK    1  A    between atoms: C_2  and  C_3
REMARK    2  A    between atoms: C_6  and  N_7
REMARK    3  A    between atoms: N_7  and  C_8
REMARK    4  A    between atoms: C_8  and  C_9
REMARK    5  A    between atoms: C_13  and  C_14
REMARK                            x       y       z     vdW  Elec       q    Type
REMARK                         _______ _______ _______ _____ _____    ______ ____
ROOT
ATOM      1  C   UNL     1      43.957   4.873  11.575  0.00  0.00    +0.000 C 
ATOM      2  C   UNL     1      43.363   3.714  12.364  0.00  0.00    +0.000 C 
ATOM      3  C   UNL     1      42.815   5.089  12.541  0.00  0.00    +0.000 C 
ENDROOT
BRANCH   1   4
ATOM      4  C   UNL     1      45.363   5.354  11.922  0.00  0.00    +0.000 A 
ATOM      5  C   UNL     1      46.033   6.267  11.092  0.00  0.00    +0.000 A 
ATOM      6  C   UNL     1      47.183   6.920  11.526  0.00  0.00    +0.000 A 
ATOM      7  C   UNL     1      47.703   6.649  12.791  0.00  0.00    +0.000 A 
ATOM      8  C   UNL     1      47.112   5.694  13.630  0.00  0.00    +0.000 A 
ATOM      9  C   UNL     1      45.946   5.054  13.166  0.00  0.00    +0.000 A 
BRANCH   8  10
ATOM     10  C   UNL     1      47.668   5.393  14.974  0.00  0.00    +0.000 A 
ATOM     11  C   UNL     1      48.641   6.219  15.566  0.00  0.00    +0.000 A 
ATOM     12  C   UNL     1      49.181   5.926  16.826  0.00  0.00    +0.000 A 
ATOM     13  C   UNL     1      48.750   4.804  17.520  0.00  0.00    +0.000 A 
ATOM     14  C   UNL     1      47.781   3.980  16.962  0.00  0.00    +0.000 A 
ATOM     15 CL   UNL     1      47.232   2.598  17.824  0.00  0.00    +0.000 Cl
ATOM     16  C   UNL     1      47.249   4.265  15.701  0.00  0.00    +0.000 A 
ENDBRANCH   8  10
ENDBRANCH   1   4
BRANCH   1  17
ATOM     17  N   UNL     1      43.791   4.746  10.120  0.00  0.00    +0.000 N 
ATOM     18  H   UNL     1      42.826   4.653   9.802  0.00  0.00    +0.000 HD
BRANCH  17  22
ATOM     19  C   UNL     1      46.324   2.533   7.798  0.00  0.00    +0.000 A 
ATOM     20  C   UNL     1      46.112   3.885   7.590  0.00  0.00    +0.000 A 
ATOM     21  N   UNL     1      45.222   4.599   8.319  0.00  0.00    +0.000 NA
ATOM     22  C   UNL     1      44.536   3.931   9.274  0.00  0.00    +0.000 A 
ATOM     23  C   UNL     1      44.721   2.558   9.432  0.00  0.00    +0.000 A 
ATOM     24  N   UNL     1      45.616   1.830   8.708  0.00  0.00    +0.000 NA
BRANCH  19  26
ATOM     25  N   UNL     1      48.201   1.332   6.463  0.00  0.00    +0.000 NA
ATOM     26  C   UNL     1      47.362   1.842   7.080  0.00  0.00    +0.000 C 
ENDBRANCH  19  26
ENDBRANCH  17  22
ENDBRANCH   1  17
TORSDOF 5
ENDMDL
MODEL 2
REMARK VINA RESULT:    -8.372      2.640      3.948
REMARK INTER + INTRA:         -10.800
REMARK INTER:                  -9.855
REMARK INTRA:                  -0.945
REMARK UNBOUND:                 0.019
REMARK  Name = 
REMARK  5 active torsions:
REMARK  status: ('A' for Active; 'I' for Inactive)
REMARK    1  A    between atoms: C_2  and  C_3
REMARK    2  A    between atoms: C_6  and  N_7
REMARK    3  A    between atoms: N_7  and  C_8
REMARK    4  A    between atoms: C_8  and  C_9
REMARK    5  A    between atoms: C_13  and  C_14
REMARK                            x       y       z     vdW  Elec       q    Type
REMARK                         _______ _______ _______ _____ _____    ______ ____
ROOT
ATOM      1  C   UNL     1      43.880   5.047  11.392  0.00  0.00    +0.000 C 
ATOM      2  C   UNL     1      42.517   5.211  12.051  0.00  0.00    +0.000 C 
ATOM      3  C   UNL     1      42.963   6.189  11.017  0.00  0.00    +0.000 C 
ENDROOT
BRANCH   1   4
ATOM      4  C   UNL     1      45.133   5.305  12.223  0.00  0.00    +0.000 A 
ATOM      5  C   UNL     1      45.582   4.354  13.154  0.00  0.00    +0.000 A 
ATOM      6  C   UNL     1      46.853   4.444  13.714  0.00  0.00    +0.000 A 
ATOM      7  C   UNL     1      47.692   5.505  13.373  0.00  0.00    +0.000 A 
ATOM      8  C   UNL     1      47.266   6.517  12.502  0.00  0.00    +0.000 A 
ATOM      9  C   UNL     1      45.976   6.397  11.947  0.00  0.00    +0.000 A 
BRANCH   8  10
ATOM     10  C   UNL     1      48.150   7.656  12.144  0.00  0.00    +0.000 A 
ATOM     11  C   UNL     1      47.676   8.980  12.151  0.00  0.00    +0.000 A 
ATOM     12  C   UNL     1      48.503  10.055  11.795  0.00  0.00    +0.000 A 
ATOM     13  C   UNL     1      49.822   9.823  11.432  0.00  0.00    +0.000 A 
ATOM     14  C   UNL     1      50.317   8.524  11.430  0.00  0.00    +0.000 A 
ATOM     15 CL   UNL     1      51.955   8.232  10.998  0.00  0.00    +0.000 Cl
ATOM     16  C   UNL     1      49.490   7.450  11.775  0.00  0.00    +0.000 A 
ENDBRANCH   8  10
ENDBRANCH   1   4
BRANCH   1  17
ATOM     17  N   UNL     1      44.015   3.810  10.610  0.00  0.00    +0.000 N 
ATOM     18  H   UNL     1      43.964   2.948  11.153  0.00  0.00    +0.000 HD
BRANCH  17  22
ATOM     19  C   UNL     1      46.470   2.887   7.475  0.00  0.00    +0.000 A 
ATOM     20  C   UNL     1      46.011   1.934   8.368  0.00  0.00    +0.000 A 
ATOM     21  N   UNL     1      45.253   2.254   9.442  0.00  0.00    +0.000 NA
ATOM     22  C   UNL     1      44.955   3.563   9.615  0.00  0.00    +0.000 A 
ATOM     23  C   UNL     1      45.473   4.515   8.738  0.00  0.00    +0.000 A 
ATOM     24  N   UNL     1      46.233   4.205   7.651  0.00  0.00    +0.000 NA
BRANCH  19  26
ATOM     25  N   UNL     1      47.786   2.147   5.361  0.00  0.00    +0.000 NA
ATOM     26  C   UNL     1      47.173   2.488   6.285  0.00  0.00    +0.000 C 
ENDBRANCH  19  26
ENDBRANCH  17  22
ENDBRANCH   1  17
TORSDOF 5
ENDMDL
MODEL 3
REMARK VINA RESULT:    -8.248      3.699      7.506
REMARK INTER + INTRA:         -10.639
REMARK INTER:                  -9.910
REMARK INTRA:                  -0.730
REMARK UNBOUND:                 0.019
REMARK  Name = 
REMARK  5 active torsions:
REMARK  status: ('A' for Active; 'I' for Inactive)
REMARK    1  A    between atoms: C_2  and  C_3
REMARK    2  A    between atoms: C_6  and  N_7
REMARK    3  A    between atoms: N_7  and  C_8
REMARK    4  A    between atoms: C_8  and  C_9
REMARK    5  A    between atoms: C_13  and  C_14
REMARK                            x       y       z     vdW  Elec       q    Type
REMARK                         _______ _______ _______ _____ _____    ______ ____
ROOT
ATOM      1  C   UNL     1      46.038   7.060  12.287  0.00  0.00    +0.000 C 
ATOM      2  C   UNL     1      46.078   8.436  11.635  0.00  0.00    +0.000 C 
ATOM      3  C   UNL     1      45.307   8.234  12.896  0.00  0.00    +0.000 C 
ENDROOT
BRANCH   1   4
ATOM      4  C   UNL     1      45.263   5.942  11.596  0.00  0.00    +0.000 A 
ATOM      5  C   UNL     1      43.888   5.778  11.824  0.00  0.00    +0.000 A 
ATOM      6  C   UNL     1      43.119   4.955  11.006  0.00  0.00    +0.000 A 
ATOM      7  C   UNL     1      43.719   4.256   9.958  0.00  0.00    +0.000 A 
ATOM      8  C   UNL     1      45.100   4.331   9.732  0.00  0.00    +0.000 A 
ATOM      9  C   UNL     1      45.852   5.176  10.573  0.00  0.00    +0.000 A 
BRANCH   8  10
ATOM     10  C   UNL     1      45.747   3.580   8.626  0.00  0.00    +0.000 A 
ATOM     11  C   UNL     1      46.249   4.241   7.489  0.00  0.00    +0.000 A 
ATOM     12  C   UNL     1      46.843   3.532   6.435  0.00  0.00    +0.000 A 
ATOM     13  C   UNL     1      46.951   2.151   6.503  0.00  0.00    +0.000 A 
ATOM     14  C   UNL     1      46.473   1.477   7.622  0.00  0.00    +0.000 A 
ATOM     15 CL   UNL     1      46.619  -0.233   7.719  0.00  0.00    +0.000 Cl
ATOM     16  C   UNL     1      45.872   2.181   8.669  0.00  0.00    +0.000 A 
ENDBRANCH   8  10
ENDBRANCH   1   4
BRANCH   1  17
ATOM     17  N   UNL     1      47.352   6.583  12.744  0.00  0.00    +0.000 N 
ATOM     18  H   UNL     1      47.934   6.163  12.019  0.00  0.00    +0.000 HD
BRANCH  17  22
ATOM     19  C   UNL     1      47.914   4.720  16.338  0.00  0.00    +0.000 A 
ATOM     20  C   UNL     1      48.631   5.842  15.959  0.00  0.00    +0.000 A 
ATOM     21  N   UNL     1      48.490   6.415  14.742  0.00  0.00    +0.000 NA
ATOM     22  C   UNL     1      47.605   5.842  13.893  0.00  0.00    +0.000 A 
ATOM     23  C   UNL     1      46.932   4.681  14.270  0.00  0.00    +0.000 A 
ATOM     24  N   UNL     1      47.063   4.096  15.494  0.00  0.00    +0.000 NA
BRANCH  19  26
ATOM     25  N   UNL     1      48.109   3.755  18.742  0.00  0.00    +0.000 NA
ATOM     26  C   UNL     1      48.010   4.215  17.682  0.00  0.00    +0.000 C 
ENDBRANCH  19  26
ENDBRANCH  17  22
ENDBRANCH   1  17
TORSDOF 5
ENDMDL
MODEL 4
REMARK VINA RESULT:    -7.702      3.004      3.547
REMARK INTER + INTRA:          -9.935
REMARK INTER:                  -9.960
REMARK INTRA:                   0.026
REMARK UNBOUND:                 0.019
REMARK  Name = 
REMARK  5 active torsions:
REMARK  status: ('A' for Active; 'I' for Inactive)
REMARK    1  A    between atoms: C_2  and  C_3
REMARK    2  A    between atoms: C_6  and  N_7
REMARK    3  A    between atoms: N_7  and  C_8
REMARK    4  A    between atoms: C_8  and  C_9
REMARK    5  A    between atoms: C_13  and  C_14
REMARK                            x       y       z     vdW  Elec       q    Type
REMARK                         _______ _______ _______ _____ _____    ______ ____
ROOT
ATOM      1  C   UNL     1      44.531   4.952  11.541  0.00  0.00    +0.000 C 
ATOM      2  C   UNL     1      45.257   3.827  12.268  0.00  0.00    +0.000 C 
ATOM      3  C   UNL     1      43.978   4.361  12.818  0.00  0.00    +0.000 C 
ENDROOT
BRANCH   1   4
ATOM      4  C   UNL     1      45.152   6.346  11.542  0.00  0.00    +0.000 A 
ATOM      5  C   UNL     1      44.340   7.491  11.480  0.00  0.00    +0.000 A 
ATOM      6  C   UNL     1      44.859   8.753  11.754  0.00  0.00    +0.000 A 
ATOM      7  C   UNL     1      46.210   8.898  12.069  0.00  0.00    +0.000 A 
ATOM      8  C   UNL     1      47.077   7.797  12.075  0.00  0.00    +0.000 A 
ATOM      9  C   UNL     1      46.522   6.531  11.799  0.00  0.00    +0.000 A 
BRANCH   8  10
ATOM     10  C   UNL     1      48.519   7.946  12.399  0.00  0.00    +0.000 A 
ATOM     11  C   UNL     1      48.962   8.067  13.729  0.00  0.00    +0.000 A 
ATOM     12  C   UNL     1      50.321   8.227  14.035  0.00  0.00    +0.000 A 
ATOM     13  C   UNL     1      51.261   8.262  13.015  0.00  0.00    +0.000 A 
ATOM     14  C   UNL     1      50.849   8.133  11.694  0.00  0.00    +0.000 A 
ATOM     15 CL   UNL     1      52.011   8.159  10.427  0.00  0.00    +0.000 Cl
ATOM     16  C   UNL     1      49.493   7.983  11.387  0.00  0.00    +0.000 A 
ENDBRANCH   8  10
ENDBRANCH   1   4
BRANCH   1  17
ATOM     17  N   UNL     1      44.067   4.585  10.196  0.00  0.00    +0.000 N 
ATOM     18  H   UNL     1      43.120   4.207  10.154  0.00  0.00    +0.000 HD
BRANCH  17  22
ATOM     19  C   UNL     1      46.535   2.634   7.586  0.00  0.00    +0.000 A 
ATOM     20  C   UNL     1      46.400   4.012   7.596  0.00  0.00    +0.000 A 
ATOM     21  N   UNL     1      45.532   4.648   8.416  0.00  0.00    +0.000 NA
ATOM     22  C   UNL     1      44.788   3.876   9.241  0.00  0.00    +0.000 A 
ATOM     23  C   UNL     1      44.896   2.487   9.178  0.00  0.00    +0.000 A 
ATOM     24  N   UNL     1      45.768   1.835   8.360  0.00  0.00    +0.000 NA
BRANCH  19  26
ATOM     25  N   UNL     1      48.339   1.522   6.084  0.00  0.00    +0.000 NA
ATOM     26  C   UNL     1      47.551   2.009   6.783  0.00  0.00    +0.000 C 
ENDBRANCH  19  26
ENDBRANCH  17  22
ENDBRANCH   1  17
TORSDOF 5
ENDMDL
MODEL 5
REMARK VINA RESULT:    -7.490      4.327      7.976
REMARK INTER + INTRA:          -9.660
REMARK INTER:                  -8.766
REMARK INTRA:                  -0.894
REMARK UNBOUND:                 0.019
REMARK  Name = 
REMARK  5 active torsions:
REMARK  status: ('A' for Active; 'I' for Inactive)
REMARK    1  A    between atoms: C_2  and  C_3
REMARK    2  A    between atoms: C_6  and  N_7
REMARK    3  A    between atoms: N_7  and  C_8
REMARK    4  A    between atoms: C_8  and  C_9
REMARK    5  A    between atoms: C_13  and  C_14
REMARK                            x       y       z     vdW  Elec       q    Type
REMARK                         _______ _______ _______ _____ _____    ______ ____
ROOT
ATOM      1  C   UNL     1      48.611   8.032  12.666  0.00  0.00    +0.000 C 
ATOM      2  C   UNL     1      49.540   8.477  11.543  0.00  0.00    +0.000 C 
ATOM      3  C   UNL     1      49.120   9.454  12.589  0.00  0.00    +0.000 C 
ENDROOT
BRANCH   1   4
ATOM      4  C   UNL     1      47.157   7.714  12.331  0.00  0.00    +0.000 A 
ATOM      5  C   UNL     1      46.157   8.688  12.488  0.00  0.00    +0.000 A 
ATOM      6  C   UNL     1      44.892   8.510  11.936  0.00  0.00    +0.000 A 
ATOM      7  C   UNL     1      44.592   7.339  11.239  0.00  0.00    +0.000 A 
ATOM      8  C   UNL     1      45.533   6.308  11.116  0.00  0.00    +0.000 A 
ATOM      9  C   UNL     1      46.807   6.518  11.679  0.00  0.00    +0.000 A 
BRANCH   8  10
ATOM     10  C   UNL     1      45.217   5.053  10.385  0.00  0.00    +0.000 A 
ATOM     11  C   UNL     1      44.436   4.041  10.973  0.00  0.00    +0.000 A 
ATOM     12  C   UNL     1      44.153   2.848  10.293  0.00  0.00    +0.000 A 
ATOM     13  C   UNL     1      44.639   2.651   9.009  0.00  0.00    +0.000 A 
ATOM     14  C   UNL     1      45.402   3.642   8.402  0.00  0.00    +0.000 A 
ATOM     15 CL   UNL     1      45.994   3.410   6.805  0.00  0.00    +0.000 Cl
ATOM     16  C   UNL     1      45.695   4.827   9.083  0.00  0.00    +0.000 A 
ENDBRANCH   8  10
ENDBRANCH   1   4
BRANCH   1  17
ATOM     17  N   UNL     1      49.187   6.999  13.537  0.00  0.00    +0.000 N 
ATOM     18  H   UNL     1      49.286   6.078  13.108  0.00  0.00    +0.000 HD
BRANCH  17  22
ATOM     19  C   UNL     1      48.455   5.958  17.421  0.00  0.00    +0.000 A 
ATOM     20  C   UNL     1      48.050   5.178  16.351  0.00  0.00    +0.000 A 
ATOM     21  N   UNL     1      48.236   5.559  15.066  0.00  0.00    +0.000 NA
ATOM     22  C   UNL     1      48.842   6.751  14.861  0.00  0.00    +0.000 A 
ATOM     23  C   UNL     1      49.193   7.549  15.950  0.00  0.00    +0.000 A 
ATOM     24  N   UNL     1      49.015   7.175  17.247  0.00  0.00    +0.000 NA
BRANCH  19  26
ATOM     25  N   UNL     1      48.314   5.050  19.851  0.00  0.00    +0.000 NA
ATOM     26  C   UNL     1      48.343   5.460  18.766  0.00  0.00    +0.000 C 
ENDBRANCH  19  26
ENDBRANCH  17  22
ENDBRANCH   1  17
TORSDOF 5
ENDMDL
MODEL 6
REMARK VINA RESULT:    -7.045      3.783      7.345
REMARK INTER + INTRA:          -9.085
REMARK INTER:                  -8.198
REMARK INTRA:                  -0.887
REMARK UNBOUND:                 0.019
REMARK  Name = 
REMARK  5 active torsions:
REMARK  status: ('A' for Active; 'I' for Inactive)
REMARK    1  A    between atoms: C_2  and  C_3
REMARK    2  A    between atoms: C_6  and  N_7
REMARK    3  A    between atoms: N_7  and  C_8
REMARK    4  A    between atoms: C_8  and  C_9
REMARK    5  A    between atoms: C_13  and  C_14
REMARK                            x       y       z     vdW  Elec       q    Type
REMARK                         _______ _______ _______ _____ _____    ______ ____
ROOT
ATOM      1  C   UNL     1      46.148   5.218  13.354  0.00  0.00    +0.000 C 
ATOM      2  C   UNL     1      46.041   4.465  14.674  0.00  0.00    +0.000 C 
ATOM      3  C   UNL     1      47.262   4.313  13.832  0.00  0.00    +0.000 C 
ENDROOT
BRANCH   1   4
ATOM      4  C   UNL     1      45.254   4.794  12.193  0.00  0.00    +0.000 A 
ATOM      5  C   UNL     1      43.923   5.234  12.118  0.00  0.00    +0.000 A 
ATOM      6  C   UNL     1      43.186   5.090  10.946  0.00  0.00    +0.000 A 
ATOM      7  C   UNL     1      43.759   4.476   9.832  0.00  0.00    +0.000 A 
ATOM      8  C   UNL     1      45.061   3.958   9.878  0.00  0.00    +0.000 A 
ATOM      9  C   UNL     1      45.785   4.123  11.076  0.00  0.00    +0.000 A 
BRANCH   8  10
ATOM     10  C   UNL     1      45.673   3.292   8.700  0.00  0.00    +0.000 A 
ATOM     11  C   UNL     1      46.071   4.029   7.569  0.00  0.00    +0.000 A 
ATOM     12  C   UNL     1      46.632   3.401   6.448  0.00  0.00    +0.000 A 
ATOM     13  C   UNL     1      46.811   2.025   6.442  0.00  0.00    +0.000 A 
ATOM     14  C   UNL     1      46.437   1.278   7.553  0.00  0.00    +0.000 A 
ATOM     15 CL   UNL     1      46.671  -0.425   7.558  0.00  0.00    +0.000 Cl
ATOM     16  C   UNL     1      45.868   1.901   8.667  0.00  0.00    +0.000 A 
ENDBRANCH   8  10
ENDBRANCH   1   4
BRANCH   1  17
ATOM     17  N   UNL     1      46.155   6.680  13.506  0.00  0.00    +0.000 N 
ATOM     18  H   UNL     1      45.270   7.140  13.290  0.00  0.00    +0.000 HD
BRANCH  17  22
ATOM     19  C   UNL     1      49.306   9.069  12.473  0.00  0.00    +0.000 A 
ATOM     20  C   UNL     1      48.598   9.236  13.650  0.00  0.00    +0.000 A 
ATOM     21  N   UNL     1      47.514   8.487  13.957  0.00  0.00    +0.000 NA
ATOM     22  C   UNL     1      47.141   7.550  13.055  0.00  0.00    +0.000 A 
ATOM     23  C   UNL     1      47.832   7.432  11.848  0.00  0.00    +0.000 A 
ATOM     24  N   UNL     1      48.926   8.178  11.530  0.00  0.00    +0.000 NA
BRANCH  19  26
ATOM     25  N   UNL     1      51.499  10.416  12.117  0.00  0.00    +0.000 NA
ATOM     26  C   UNL     1      50.519   9.807  12.243  0.00  0.00    +0.000 C 
ENDBRANCH  19  26
ENDBRANCH  17  22
ENDBRANCH   1  17
TORSDOF 5
ENDMDL
MODEL 7
REMARK VINA RESULT:    -7.007      2.536      2.773
REMARK INTER + INTRA:          -9.037
REMARK INTER:                  -9.380
REMARK INTRA:                   0.344
REMARK UNBOUND:                 0.019
REMARK  Name = 
REMARK  5 active torsions:
REMARK  status: ('A' for Active; 'I' for Inactive)
REMARK    1  A    between atoms: C_2  and  C_3
REMARK    2  A    between atoms: C_6  and  N_7
REMARK    3  A    between atoms: N_7  and  C_8
REMARK    4  A    between atoms: C_8  and  C_9
REMARK    5  A    between atoms: C_13  and  C_14
REMARK                            x       y       z     vdW  Elec       q    Type
REMARK                         _______ _______ _______ _____ _____    ______ ____
ROOT
ATOM      1  C   UNL     1      44.110   5.531  11.738  0.00  0.00    +0.000 C 
ATOM      2  C   UNL     1      44.578   4.330  12.551  0.00  0.00    +0.000 C 
ATOM      3  C   UNL     1      43.328   5.046  12.937  0.00  0.00    +0.000 C 
ENDROOT
BRANCH   1   4
ATOM      4  C   UNL     1      44.914   6.826  11.813  0.00  0.00    +0.000 A 
ATOM      5  C   UNL     1      44.401   8.018  11.278  0.00  0.00    +0.000 A 
ATOM      6  C   UNL     1      44.984   9.246  11.576  0.00  0.00    +0.000 A 
ATOM      7  C   UNL     1      46.112   9.302  12.395  0.00  0.00    +0.000 A 
ATOM      8  C   UNL     1      46.704   8.135  12.897  0.00  0.00    +0.000 A 
ATOM      9  C   UNL     1      46.088   6.907  12.584  0.00  0.00    +0.000 A 
BRANCH   8  10
ATOM     10  C   UNL     1      47.912   8.187  13.761  0.00  0.00    +0.000 A 
ATOM     11  C   UNL     1      49.116   7.572  13.371  0.00  0.00    +0.000 A 
ATOM     12  C   UNL     1      50.252   7.604  14.193  0.00  0.00    +0.000 A 
ATOM     13  C   UNL     1      50.204   8.258  15.416  0.00  0.00    +0.000 A 
ATOM     14  C   UNL     1      49.029   8.883  15.816  0.00  0.00    +0.000 A 
ATOM     15 CL   UNL     1      48.969   9.709  17.323  0.00  0.00    +0.000 Cl
ATOM     16  C   UNL     1      47.893   8.844  15.003  0.00  0.00    +0.000 A 
ENDBRANCH   8  10
ENDBRANCH   1   4
BRANCH   1  17
ATOM     17  N   UNL     1      43.767   5.207  10.346  0.00  0.00    +0.000 N 
ATOM     18  H   UNL     1      42.770   5.088  10.164  0.00  0.00    +0.000 HD
BRANCH  17  22
ATOM     19  C   UNL     1      45.994   2.570   8.157  0.00  0.00    +0.000 A 
ATOM     20  C   UNL     1      46.040   3.937   7.949  0.00  0.00    +0.000 A 
ATOM     21  N   UNL     1      45.252   4.801   8.630  0.00  0.00    +0.000 NA
ATOM     22  C   UNL     1      44.402   4.270   9.538  0.00  0.00    +0.000 A 
ATOM     23  C   UNL     1      44.328   2.886   9.696  0.00  0.00    +0.000 A 
ATOM     24  N   UNL     1      45.118   2.007   9.019  0.00  0.00    +0.000 NA
BRANCH  19  26
ATOM     25  N   UNL     1      47.732   1.027   6.996  0.00  0.00    +0.000 NA
ATOM     26  C   UNL     1      46.931   1.701   7.496  0.00  0.00    +0.000 C 
ENDBRANCH  19  26
ENDBRANCH  17  22
ENDBRANCH   1  17
TORSDOF 5
ENDMDL
MODEL 8
REMARK VINA RESULT:    -6.987      4.147      7.776
REMARK INTER + INTRA:          -9.011
REMARK INTER:                  -9.367
REMARK INTRA:                   0.357
REMARK UNBOUND:                 0.019
REMARK  Name = 
REMARK  5 active torsions:
REMARK  status: ('A' for Active; 'I' for Inactive)
REMARK    1  A    between atoms: C_2  and  C_3
REMARK    2  A    between atoms: C_6  and  N_7
REMARK    3  A    between atoms: N_7  and  C_8
REMARK    4  A    between atoms: C_8  and  C_9
REMARK    5  A    between atoms: C_13  and  C_14
REMARK                            x       y       z     vdW  Elec       q    Type
REMARK                         _______ _______ _______ _____ _____    ______ ____
ROOT
ATOM      1  C   UNL     1      46.272   5.214  13.702  0.00  0.00    +0.000 C 
ATOM      2  C   UNL     1      47.694   5.569  13.286  0.00  0.00    +0.000 C 
ATOM      3  C   UNL     1      46.729   6.653  13.630  0.00  0.00    +0.000 C 
ENDROOT
BRANCH   1   4
ATOM      4  C   UNL     1      45.318   4.653  12.652  0.00  0.00    +0.000 A 
ATOM      5  C   UNL     1      43.935   4.871  12.752  0.00  0.00    +0.000 A 
ATOM      6  C   UNL     1      43.089   4.612  11.678  0.00  0.00    +0.000 A 
ATOM      7  C   UNL     1      43.608   4.101  10.488  0.00  0.00    +0.000 A 
ATOM      8  C   UNL     1      44.971   3.801  10.361  0.00  0.00    +0.000 A 
ATOM      9  C   UNL     1      45.804   4.079  11.463  0.00  0.00    +0.000 A 
BRANCH   8  10
ATOM     10  C   UNL     1      45.529   3.246   9.101  0.00  0.00    +0.000 A 
ATOM     11  C   UNL     1      45.827   4.077   8.005  0.00  0.00    +0.000 A 
ATOM     12  C   UNL     1      46.336   3.553   6.808  0.00  0.00    +0.000 A 
ATOM     13  C   UNL     1      46.562   2.189   6.690  0.00  0.00    +0.000 A 
ATOM     14  C   UNL     1      46.286   1.350   7.763  0.00  0.00    +0.000 A 
ATOM     15 CL   UNL     1      46.579  -0.339   7.628  0.00  0.00    +0.000 Cl
ATOM     16  C   UNL     1      45.769   1.869   8.953  0.00  0.00    +0.000 A 
ENDBRANCH   8  10
ENDBRANCH   1   4
BRANCH   1  17
ATOM     17  N   UNL     1      46.196   4.437  14.947  0.00  0.00    +0.000 N 
ATOM     18  H   UNL     1      45.435   4.699  15.575  0.00  0.00    +0.000 HD
BRANCH  17  22
ATOM     19  C   UNL     1      49.568   3.473  17.047  0.00  0.00    +0.000 A 
ATOM     20  C   UNL     1      48.935   2.578  16.202  0.00  0.00    +0.000 A 
ATOM     21  N   UNL     1      47.782   2.879  15.561  0.00  0.00    +0.000 NA
ATOM     22  C   UNL     1      47.261   4.109  15.779  0.00  0.00    +0.000 A 
ATOM     23  C   UNL     1      47.882   4.977  16.677  0.00  0.00    +0.000 A 
ATOM     24  N   UNL     1      49.044   4.687  17.326  0.00  0.00    +0.000 NA
BRANCH  19  26
ATOM     25  N   UNL     1      51.871   2.836  18.066  0.00  0.00    +0.000 NA
ATOM     26  C   UNL     1      50.851   3.154  17.614  0.00  0.00    +0.000 C 
ENDBRANCH  19  26
ENDBRANCH  17  22
ENDBRANCH   1  17
TORSDOF 5
ENDMDL
MODEL 9
REMARK VINA RESULT:    -6.942      5.121      8.077
REMARK INTER + INTRA:          -8.952
REMARK INTER:                  -8.423
REMARK INTRA:                  -0.529
REMARK UNBOUND:                 0.019
REMARK  Name = 
REMARK  5 active torsions:
REMARK  status: ('A' for Active; 'I' for Inactive)
REMARK    1  A    between atoms: C_2  and  C_3
REMARK    2  A    between atoms: C_6  and  N_7
REMARK    3  A    between atoms: N_7  and  C_8
REMARK    4  A    between atoms: C_8  and  C_9
REMARK    5  A    between atoms: C_13  and  C_14
REMARK                            x       y       z     vdW  Elec       q    Type
REMARK                         _______ _______ _______ _____ _____    ______ ____
ROOT
ATOM      1  C   UNL     1      48.360   4.489  17.164  0.00  0.00    +0.000 C 
ATOM      2  C   UNL     1      47.325   4.535  18.281  0.00  0.00    +0.000 C 
ATOM      3  C   UNL     1      47.395   3.346  17.383  0.00  0.00    +0.000 C 
ENDROOT
BRANCH   1   4
ATOM      4  C   UNL     1      48.192   5.423  15.969  0.00  0.00    +0.000 A 
ATOM      5  C   UNL     1      49.072   6.499  15.773  0.00  0.00    +0.000 A 
ATOM      6  C   UNL     1      49.107   7.185  14.562  0.00  0.00    +0.000 A 
ATOM      7  C   UNL     1      48.239   6.824  13.531  0.00  0.00    +0.000 A 
ATOM      8  C   UNL     1      47.295   5.803  13.701  0.00  0.00    +0.000 A 
ATOM      9  C   UNL     1      47.287   5.123  14.935  0.00  0.00    +0.000 A 
BRANCH   8  10
ATOM     10  C   UNL     1      46.360   5.422  12.611  0.00  0.00    +0.000 A 
ATOM     11  C   UNL     1      46.392   6.067  11.361  0.00  0.00    +0.000 A 
ATOM     12  C   UNL     1      45.498   5.722  10.337  0.00  0.00    +0.000 A 
ATOM     13  C   UNL     1      44.561   4.719  10.545  0.00  0.00    +0.000 A 
ATOM     14  C   UNL     1      44.519   4.059  11.767  0.00  0.00    +0.000 A 
ATOM     15 CL   UNL     1      43.371   2.805  12.025  0.00  0.00    +0.000 Cl
ATOM     16  C   UNL     1      45.402   4.409  12.792  0.00  0.00    +0.000 A 
ENDBRANCH   8  10
ENDBRANCH   1   4
BRANCH   1  17
ATOM     17  N   UNL     1      49.750   4.495  17.644  0.00  0.00    +0.000 N 
ATOM     18  H   UNL     1      50.277   5.342  17.428  0.00  0.00    +0.000 HD
BRANCH  17  22
ATOM     19  C   UNL     1      52.436   1.416  17.733  0.00  0.00    +0.000 A 
ATOM     20  C   UNL     1      52.764   2.703  18.123  0.00  0.00    +0.000 A 
ATOM     21  N   UNL     1      51.891   3.733  18.029  0.00  0.00    +0.000 NA
ATOM     22  C   UNL     1      50.665   3.454  17.530  0.00  0.00    +0.000 A 
ATOM     23  C   UNL     1      50.370   2.164  17.090  0.00  0.00    +0.000 A 
ATOM     24  N   UNL     1      51.238   1.119  17.183  0.00  0.00    +0.000 NA
BRANCH  19  26
ATOM     25  N   UNL     1      54.047  -0.582  18.135  0.00  0.00    +0.000 NA
ATOM     26  C   UNL     1      53.353   0.332  17.960  0.00  0.00    +0.000 C 
ENDBRANCH  19  26
ENDBRANCH  17  22
ENDBRANCH   1  17
TORSDOF 5
ENDMDL
