MODEL 1
REMARK VINA RESULT:    -8.070      0.000      0.000
REMARK INTER + INTRA:         -12.027
REMARK INTER:                 -10.901
REMARK INTRA:                  -1.126
REMARK UNBOUND:                -1.126
REMARK  Name = 
REMARK  7 active torsions:
REMARK  status: ('A' for Active; 'I' for Inactive)
REMARK    1  A    between atoms: C_1  and  O_2
REMARK    2  A    between atoms: O_2  and  C_3
REMARK    3  A    between atoms: C_8  and  C_9
REMARK    4  A    between atoms: C_9  and  C_10
REMARK    5  A    between atoms: C_13  and  C_14
REMARK    6  A    between atoms: C_14  and  N_15
REMARK    7  A    between atoms: C_16  and  C_18
REMARK                            x       y       z     vdW  Elec       q    Type
REMARK                         _______ _______ _______ _____ _____    ______ ____
ROOT
ATOM      1  C   UNL     1      47.606   8.527  13.796  0.00  0.00    +0.000 C 
ENDROOT
BRANCH   1   5
ATOM      2  C   UNL     1      44.880   6.393  11.208  0.00  0.00    +0.000 A 
ATOM      3  C   UNL     1      46.106   5.823  11.574  0.00  0.00    +0.000 A 
ATOM      4  C   UNL     1      47.015   6.533  12.365  0.00  0.00    +0.000 A 
ATOM      5  C   UNL     1      46.706   7.821  12.820  0.00  0.00    +0.000 A 
ATOM      6  C   UNL     1      45.520   8.424  12.382  0.00  0.00    +0.000 A 
ATOM      7  C   UNL     1      44.613   7.715  11.589  0.00  0.00    +0.000 A 
BRANCH   2   8
ATOM      8  C   UNL     1      43.858   5.580  10.445  0.00  0.00    +0.000 C 
BRANCH   8  14
ATOM      9  C   UNL     1      44.093   3.047  10.116  0.00  0.00    +0.000 A 
ATOM     10  C   UNL     1      44.690   1.965   9.454  0.00  0.00    +0.000 A 
ATOM     11  C   UNL     1      45.605   2.176   8.421  0.00  0.00    +0.000 A 
ATOM     12  C   UNL     1      45.914   3.470   8.021  0.00  0.00    +0.000 A 
ATOM     13  C   UNL     1      45.322   4.555   8.667  0.00  0.00    +0.000 A 
ATOM     14  C   UNL     1      44.418   4.362   9.730  0.00  0.00    +0.000 A 
BRANCH   9  16
ATOM     15  C   UNL     1      43.704   2.793  12.450  0.00  0.00    +0.000 C 
ATOM     16  O   UNL     1      43.180   2.912  11.132  0.00  0.00    +0.000 OA
ENDBRANCH   9  16
ENDBRANCH   8  14
ENDBRANCH   2   8
ENDBRANCH   1   5
BRANCH   1  17
ATOM     17  N   UNL     1      47.894   7.730  14.958  0.00  0.00    +0.000 N 
ATOM     18  C   UNL     1      49.085   7.055  15.056  0.00  0.00    +0.000 C 
ATOM     19  O   UNL     1      49.965   7.160  14.204  0.00  0.00    +0.000 OA
ATOM     20  H   UNL     1      47.109   7.456  15.540  0.00  0.00    +0.000 HD
BRANCH  18  21
ATOM     21  C   UNL     1      49.290   6.245  16.263  0.00  0.00    +0.000 A 
ATOM     22  C   UNL     1      50.316   6.571  17.140  0.00  0.00    +0.000 A 
ATOM     23  S   UNL     1      50.382   5.571  18.519  0.00  0.00    +0.000 S 
ATOM     24  C   UNL     1      49.078   4.629  17.964  0.00  0.00    +0.000 A 
ATOM     25  N   UNL     1      48.630   3.565  18.683  0.00  0.00    +0.000 NA
ATOM     26  C   UNL     1      47.660   2.918  18.127  0.00  0.00    +0.000 A 
ATOM     27  N   UNL     1      47.094   3.240  16.924  0.00  0.00    +0.000 N 
ATOM     28  C   UNL     1      47.495   4.324  16.179  0.00  0.00    +0.000 A 
ATOM     29  O   UNL     1      46.947   4.605  15.120  0.00  0.00    +0.000 OA
ATOM     30  C   UNL     1      48.589   5.081  16.754  0.00  0.00    +0.000 A 
ATOM     31  H   UNL     1      46.333   2.697  16.543  0.00  0.00    +0.000 HD
ENDBRANCH  18  21
ENDBRANCH   1  17
TORSDOF 6
ENDMDL
MODEL 2
REMARK VINA RESULT:    -7.188      1.822      2.211
REMARK INTER + INTRA:         -10.835
REMARK INTER:                  -9.722
REMARK INTRA:                  -1.112
REMARK UNBOUND:                -1.126
REMARK  Name = 
REMARK  7 active torsions:
REMARK  status: ('A' for Active; 'I' for Inactive)
REMARK    1  A    between atoms: C_1  and  O_2
REMARK    2  A    between atoms: O_2  and  C_3
REMARK    3  A    between atoms: C_8  and  C_9
REMARK    4  A    between atoms: C_9  and  C_10
REMARK    5  A    between atoms: C_13  and  C_14
REMARK    6  A    between atoms: C_14  and  N_15
REMARK    7  A    between atoms: C_16  and  C_18
REMARK                            x       y       z     vdW  Elec       q    Type
REMARK                         _______ _______ _______ _____ _____    ______ ____
ROOT
ATOM      1  C   UNL     1      48.797   6.967  14.223  0.00  0.00    +0.000 C 
ENDROOT
BRANCH   1   5
ATOM      2  C   UNL     1      45.465   6.049  11.627  0.00  0.00    +0.000 A 
ATOM      3  C   UNL     1      46.128   7.278  11.524  0.00  0.00    +0.000 A 
ATOM      4  C   UNL     1      47.170   7.601  12.399  0.00  0.00    +0.000 A 
ATOM      5  C   UNL     1      47.580   6.692  13.383  0.00  0.00    +0.000 A 
ATOM      6  C   UNL     1      46.859   5.501  13.543  0.00  0.00    +0.000 A 
ATOM      7  C   UNL     1      45.816   5.180  12.669  0.00  0.00    +0.000 A 
BRANCH   2   8
ATOM      8  C   UNL     1      44.414   5.662  10.611  0.00  0.00    +0.000 C 
BRANCH   8  14
ATOM      9  C   UNL     1      44.205   3.194   9.943  0.00  0.00    +0.000 A 
ATOM     10  C   UNL     1      44.625   2.118   9.148  0.00  0.00    +0.000 A 
ATOM     11  C   UNL     1      45.601   2.293   8.167  0.00  0.00    +0.000 A 
ATOM     12  C   UNL     1      46.152   3.550   7.952  0.00  0.00    +0.000 A 
ATOM     13  C   UNL     1      45.738   4.630   8.731  0.00  0.00    +0.000 A 
ATOM     14  C   UNL     1      44.775   4.468   9.744  0.00  0.00    +0.000 A 
BRANCH   9  16
ATOM     15  C   UNL     1      43.637   2.489  12.144  0.00  0.00    +0.000 C 
ATOM     16  O   UNL     1      43.244   3.096  10.917  0.00  0.00    +0.000 OA
ENDBRANCH   9  16
ENDBRANCH   8  14
ENDBRANCH   2   8
ENDBRANCH   1   5
BRANCH   1  17
ATOM     17  N   UNL     1      48.551   6.785  15.627  0.00  0.00    +0.000 N 
ATOM     18  C   UNL     1      48.831   7.794  16.515  0.00  0.00    +0.000 C 
ATOM     19  O   UNL     1      49.229   8.896  16.143  0.00  0.00    +0.000 OA
ATOM     20  H   UNL     1      48.447   5.833  15.963  0.00  0.00    +0.000 HD
BRANCH  18  21
ATOM     21  C   UNL     1      48.574   7.519  17.934  0.00  0.00    +0.000 A 
ATOM     22  C   UNL     1      48.074   8.527  18.747  0.00  0.00    +0.000 A 
ATOM     23  S   UNL     1      47.776   8.030  20.350  0.00  0.00    +0.000 S 
ATOM     24  C   UNL     1      48.359   6.464  20.030  0.00  0.00    +0.000 A 
ATOM     25  N   UNL     1      48.401   5.521  21.008  0.00  0.00    +0.000 NA
ATOM     26  C   UNL     1      48.900   4.389  20.636  0.00  0.00    +0.000 A 
ATOM     27  N   UNL     1      49.355   4.113  19.375  0.00  0.00    +0.000 N 
ATOM     28  C   UNL     1      49.303   5.026  18.349  0.00  0.00    +0.000 A 
ATOM     29  O   UNL     1      49.690   4.738  17.222  0.00  0.00    +0.000 OA
ATOM     30  C   UNL     1      48.760   6.318  18.715  0.00  0.00    +0.000 A 
ATOM     31  H   UNL     1      49.731   3.205  19.143  0.00  0.00    +0.000 HD
ENDBRANCH  18  21
ENDBRANCH   1  17
TORSDOF 6
ENDMDL
MODEL 3
REMARK VINA RESULT:    -7.130      2.415      3.013
REMARK INTER + INTRA:         -10.757
REMARK INTER:                  -9.685
REMARK INTRA:                  -1.072
REMARK UNBOUND:                -1.126
REMARK  Name = 
REMARK  7 active torsions:
REMARK  status: ('A' for Active; 'I' for Inactive)
REMARK    1  A    between atoms: C_1  and  O_2
REMARK    2  A    between atoms: O_2  and  C_3
REMARK    3  A    between atoms: C_8  and  C_9
REMARK    4  A    between atoms: C_9  and  C_10
REMARK    5  A    between atoms: C_13  and  C_14
REMARK    6  A    between atoms: C_14  and  N_15
REMARK    7  A    between atoms: C_16  and  C_18
REMARK                            x       y       z     vdW  Elec       q    Type
REMARK                         _______ _______ _______ _____ _____    ______ ____
ROOT
ATOM      1  C   UNL     1      49.059   7.246  14.344  0.00  0.00    +0.000 C 
ENDROOT
BRANCH   1   5
ATOM      2  C   UNL     1      45.860   5.998  11.719  0.00  0.00    +0.000 A 
ATOM      3  C   UNL     1      46.116   5.304  12.908  0.00  0.00    +0.000 A 
ATOM      4  C   UNL     1      47.184   5.670  13.732  0.00  0.00    +0.000 A 
ATOM      5  C   UNL     1      48.008   6.750  13.390  0.00  0.00    +0.000 A 
ATOM      6  C   UNL     1      47.807   7.387  12.158  0.00  0.00    +0.000 A 
ATOM      7  C   UNL     1      46.740   7.019  11.334  0.00  0.00    +0.000 A 
BRANCH   2   8
ATOM      8  C   UNL     1      44.640   5.666  10.889  0.00  0.00    +0.000 C 
BRANCH   8  14
ATOM      9  C   UNL     1      44.157   3.304  10.015  0.00  0.00    +0.000 A 
ATOM     10  C   UNL     1      44.425   2.276   9.100  0.00  0.00    +0.000 A 
ATOM     11  C   UNL     1      45.355   2.456   8.075  0.00  0.00    +0.000 A 
ATOM     12  C   UNL     1      46.011   3.674   7.939  0.00  0.00    +0.000 A 
ATOM     13  C   UNL     1      45.748   4.706   8.839  0.00  0.00    +0.000 A 
ATOM     14  C   UNL     1      44.834   4.534   9.895  0.00  0.00    +0.000 A 
BRANCH   9  16
ATOM     15  C   UNL     1      43.704   2.573  12.235  0.00  0.00    +0.000 C 
ATOM     16  O   UNL     1      43.250   3.198  11.039  0.00  0.00    +0.000 OA
ENDBRANCH   9  16
ENDBRANCH   8  14
ENDBRANCH   2   8
ENDBRANCH   1   5
BRANCH   1  17
ATOM     17  N   UNL     1      48.609   7.246  15.709  0.00  0.00    +0.000 N 
ATOM     18  C   UNL     1      49.287   6.525  16.661  0.00  0.00    +0.000 C 
ATOM     19  O   UNL     1      50.325   5.921  16.402  0.00  0.00    +0.000 OA
ATOM     20  H   UNL     1      47.654   7.540  15.885  0.00  0.00    +0.000 HD
BRANCH  18  21
ATOM     21  C   UNL     1      48.748   6.559  18.026  0.00  0.00    +0.000 A 
ATOM     22  C   UNL     1      48.704   5.390  18.774  0.00  0.00    +0.000 A 
ATOM     23  S   UNL     1      48.106   5.610  20.355  0.00  0.00    +0.000 S 
ATOM     24  C   UNL     1      47.829   7.266  20.077  0.00  0.00    +0.000 A 
ATOM     25  N   UNL     1      47.293   8.056  21.045  0.00  0.00    +0.000 NA
ATOM     26  C   UNL     1      47.103   9.282  20.687  0.00  0.00    +0.000 A 
ATOM     27  N   UNL     1      47.405   9.791  19.453  0.00  0.00    +0.000 N 
ATOM     28  C   UNL     1      47.976   9.036  18.456  0.00  0.00    +0.000 A 
ATOM     29  O   UNL     1      48.264   9.529  17.372  0.00  0.00    +0.000 OA
ATOM     30  C   UNL     1      48.203   7.648  18.803  0.00  0.00    +0.000 A 
ATOM     31  H   UNL     1      47.237  10.762  19.234  0.00  0.00    +0.000 HD
ENDBRANCH  18  21
ENDBRANCH   1  17
TORSDOF 6
ENDMDL
MODEL 4
REMARK VINA RESULT:    -6.901      3.755      8.796
REMARK INTER + INTRA:         -10.447
REMARK INTER:                  -9.253
REMARK INTRA:                  -1.194
REMARK UNBOUND:                -1.126
REMARK  Name = 
REMARK  7 active torsions:
REMARK  status: ('A' for Active; 'I' for Inactive)
REMARK    1  A    between atoms: C_1  and  O_2
REMARK    2  A    between atoms: O_2  and  C_3
REMARK    3  A    between atoms: C_8  and  C_9
REMARK    4  A    between atoms: C_9  and  C_10
REMARK    5  A    between atoms: C_13  and  C_14
REMARK    6  A    between atoms: C_14  and  N_15
REMARK    7  A    between atoms: C_16  and  C_18
REMARK                            x       y       z     vdW  Elec       q    Type
REMARK                         _______ _______ _______ _____ _____    ______ ____
ROOT
ATOM      1  C   UNL     1      47.440   3.425  16.498  0.00  0.00    +0.000 C 
ENDROOT
BRANCH   1   5
ATOM      2  C   UNL     1      51.194   4.964  17.989  0.00  0.00    +0.000 A 
ATOM      3  C   UNL     1      50.997   3.584  17.846  0.00  0.00    +0.000 A 
ATOM      4  C   UNL     1      49.766   3.080  17.418  0.00  0.00    +0.000 A 
ATOM      5  C   UNL     1      48.712   3.949  17.106  0.00  0.00    +0.000 A 
ATOM      6  C   UNL     1      48.880   5.321  17.332  0.00  0.00    +0.000 A 
ATOM      7  C   UNL     1      50.111   5.824  17.764  0.00  0.00    +0.000 A 
BRANCH   2   8
ATOM      8  C   UNL     1      52.559   5.507  18.348  0.00  0.00    +0.000 C 
BRANCH   8  14
ATOM      9  C   UNL     1      54.646   4.654  17.124  0.00  0.00    +0.000 A 
ATOM     10  C   UNL     1      55.562   4.775  16.070  0.00  0.00    +0.000 A 
ATOM     11  C   UNL     1      55.407   5.765  15.098  0.00  0.00    +0.000 A 
ATOM     12  C   UNL     1      54.320   6.630  15.156  0.00  0.00    +0.000 A 
ATOM     13  C   UNL     1      53.397   6.515  16.195  0.00  0.00    +0.000 A 
ATOM     14  C   UNL     1      53.553   5.540  17.199  0.00  0.00    +0.000 A 
BRANCH   9  16
ATOM     15  C   UNL     1      54.744   2.341  17.678  0.00  0.00    +0.000 C 
ATOM     16  O   UNL     1      54.732   3.699  18.106  0.00  0.00    +0.000 OA
ENDBRANCH   9  16
ENDBRANCH   8  14
ENDBRANCH   2   8
ENDBRANCH   1   5
BRANCH   1  17
ATOM     17  N   UNL     1      46.799   4.388  15.644  0.00  0.00    +0.000 N 
ATOM     18  C   UNL     1      46.780   4.203  14.284  0.00  0.00    +0.000 C 
ATOM     19  O   UNL     1      47.239   3.191  13.759  0.00  0.00    +0.000 OA
ATOM     20  H   UNL     1      46.627   5.311  16.029  0.00  0.00    +0.000 HD
BRANCH  18  21
ATOM     21  C   UNL     1      46.126   5.244  13.482  0.00  0.00    +0.000 A 
ATOM     22  C   UNL     1      46.775   6.454  13.273  0.00  0.00    +0.000 A 
ATOM     23  S   UNL     1      45.908   7.532  12.276  0.00  0.00    +0.000 S 
ATOM     24  C   UNL     1      44.609   6.442  12.135  0.00  0.00    +0.000 A 
ATOM     25  N   UNL     1      43.502   6.764  11.415  0.00  0.00    +0.000 NA
ATOM     26  C   UNL     1      42.579   5.860  11.423  0.00  0.00    +0.000 A 
ATOM     27  N   UNL     1      42.665   4.663  12.080  0.00  0.00    +0.000 N 
ATOM     28  C   UNL     1      43.776   4.284  12.795  0.00  0.00    +0.000 A 
ATOM     29  O   UNL     1      43.835   3.191  13.347  0.00  0.00    +0.000 OA
ATOM     30  C   UNL     1      44.840   5.267  12.826  0.00  0.00    +0.000 A 
ATOM     31  H   UNL     1      41.910   3.994  12.046  0.00  0.00    +0.000 HD
ENDBRANCH  18  21
ENDBRANCH   1  17
TORSDOF 6
ENDMDL
MODEL 5
REMARK VINA RESULT:    -6.877      4.246      9.066
REMARK INTER + INTRA:         -10.415
REMARK INTER:                  -9.933
REMARK INTRA:                  -0.483
REMARK UNBOUND:                -1.126
REMARK  Name = 
REMARK  7 active torsions:
REMARK  status: ('A' for Active; 'I' for Inactive)
REMARK    1  A    between atoms: C_1  and  O_2
REMARK    2  A    between atoms: O_2  and  C_3
REMARK    3  A    between atoms: C_8  and  C_9
REMARK    4  A    between atoms: C_9  and  C_10
REMARK    5  A    between atoms: C_13  and  C_14
REMARK    6  A    between atoms: C_14  and  N_15
REMARK    7  A    between atoms: C_16  and  C_18
REMARK                            x       y       z     vdW  Elec       q    Type
REMARK                         _______ _______ _______ _____ _____    ______ ____
ROOT
ATOM      1  C   UNL     1      47.268   3.305  16.837  0.00  0.00    +0.000 C 
ENDROOT
BRANCH   1   5
ATOM      2  C   UNL     1      51.440   3.324  17.966  0.00  0.00    +0.000 A 
ATOM      3  C   UNL     1      50.664   4.483  18.094  0.00  0.00    +0.000 A 
ATOM      4  C   UNL     1      49.329   4.497  17.677  0.00  0.00    +0.000 A 
ATOM      5  C   UNL     1      48.740   3.344  17.141  0.00  0.00    +0.000 A 
ATOM      6  C   UNL     1      49.540   2.213  16.932  0.00  0.00    +0.000 A 
ATOM      7  C   UNL     1      50.875   2.201  17.346  0.00  0.00    +0.000 A 
BRANCH   2   8
ATOM      8  C   UNL     1      52.848   3.285  18.517  0.00  0.00    +0.000 C 
BRANCH   8  14
ATOM      9  C   UNL     1      54.947   2.917  17.091  0.00  0.00    +0.000 A 
ATOM     10  C   UNL     1      55.764   2.059  16.342  0.00  0.00    +0.000 A 
ATOM     11  C   UNL     1      55.462   0.700  16.232  0.00  0.00    +0.000 A 
ATOM     12  C   UNL     1      54.354   0.181  16.890  0.00  0.00    +0.000 A 
ATOM     13  C   UNL     1      53.537   1.023  17.644  0.00  0.00    +0.000 A 
ATOM     14  C   UNL     1      53.811   2.401  17.743  0.00  0.00    +0.000 A 
BRANCH   9  16
ATOM     15  C   UNL     1      55.623   4.970  16.094  0.00  0.00    +0.000 C 
ATOM     16  O   UNL     1      55.190   4.259  17.249  0.00  0.00    +0.000 OA
ENDBRANCH   9  16
ENDBRANCH   8  14
ENDBRANCH   2   8
ENDBRANCH   1   5
BRANCH   1  17
ATOM     17  N   UNL     1      46.869   4.327  15.907  0.00  0.00    +0.000 N 
ATOM     18  C   UNL     1      46.969   4.109  14.555  0.00  0.00    +0.000 C 
ATOM     19  O   UNL     1      47.328   3.027  14.095  0.00  0.00    +0.000 OA
ATOM     20  H   UNL     1      46.795   5.275  16.260  0.00  0.00    +0.000 HD
BRANCH  18  21
ATOM     21  C   UNL     1      46.564   5.211  13.674  0.00  0.00    +0.000 A 
ATOM     22  C   UNL     1      47.442   6.261  13.444  0.00  0.00    +0.000 A 
ATOM     23  S   UNL     1      46.844   7.429  12.356  0.00  0.00    +0.000 S 
ATOM     24  C   UNL     1      45.365   6.602  12.198  0.00  0.00    +0.000 A 
ATOM     25  N   UNL     1      44.373   7.090  11.407  0.00  0.00    +0.000 NA
ATOM     26  C   UNL     1      43.293   6.382  11.409  0.00  0.00    +0.000 A 
ATOM     27  N   UNL     1      43.117   5.228  12.123  0.00  0.00    +0.000 N 
ATOM     28  C   UNL     1      44.103   4.682  12.911  0.00  0.00    +0.000 A 
ATOM     29  O   UNL     1      43.925   3.631  13.514  0.00  0.00    +0.000 OA
ATOM     30  C   UNL     1      45.334   5.444  12.952  0.00  0.00    +0.000 A 
ATOM     31  H   UNL     1      42.249   4.715  12.080  0.00  0.00    +0.000 HD
ENDBRANCH  18  21
ENDBRANCH   1  17
TORSDOF 6
ENDMDL
MODEL 6
REMARK VINA RESULT:    -6.596      2.004      2.856
REMARK INTER + INTRA:         -10.036
REMARK INTER:                  -8.926
REMARK INTRA:                  -1.110
REMARK UNBOUND:                -1.126
REMARK  Name = 
REMARK  7 active torsions:
REMARK  status: ('A' for Active; 'I' for Inactive)
REMARK    1  A    between atoms: C_1  and  O_2
REMARK    2  A    between atoms: O_2  and  C_3
REMARK    3  A    between atoms: C_8  and  C_9
REMARK    4  A    between atoms: C_9  and  C_10
REMARK    5  A    between atoms: C_13  and  C_14
REMARK    6  A    between atoms: C_14  and  N_15
REMARK    7  A    between atoms: C_16  and  C_18
REMARK                            x       y       z     vdW  Elec       q    Type
REMARK                         _______ _______ _______ _____ _____    ______ ____
ROOT
ATOM      1  C   UNL     1      48.218   7.540  14.419  0.00  0.00    +0.000 C 
ENDROOT
BRANCH   1   5
ATOM      2  C   UNL     1      45.193   6.265  11.608  0.00  0.00    +0.000 A 
ATOM      3  C   UNL     1      45.316   7.616  11.956  0.00  0.00    +0.000 A 
ATOM      4  C   UNL     1      46.256   8.025  12.907  0.00  0.00    +0.000 A 
ATOM      5  C   UNL     1      47.104   7.091  13.515  0.00  0.00    +0.000 A 
ATOM      6  C   UNL     1      46.921   5.731  13.233  0.00  0.00    +0.000 A 
ATOM      7  C   UNL     1      45.979   5.322  12.284  0.00  0.00    +0.000 A 
BRANCH   2   8
ATOM      8  C   UNL     1      44.251   5.845  10.502  0.00  0.00    +0.000 C 
BRANCH   8  14
ATOM      9  C   UNL     1      44.117   3.322  10.061  0.00  0.00    +0.000 A 
ATOM     10  C   UNL     1      44.582   2.187   9.381  0.00  0.00    +0.000 A 
ATOM     11  C   UNL     1      45.581   2.295   8.412  0.00  0.00    +0.000 A 
ATOM     12  C   UNL     1      46.109   3.541   8.095  0.00  0.00    +0.000 A 
ATOM     13  C   UNL     1      45.650   4.678   8.760  0.00  0.00    +0.000 A 
ATOM     14  C   UNL     1      44.663   4.585   9.759  0.00  0.00    +0.000 A 
BRANCH   9  16
ATOM     15  C   UNL     1      43.421   2.567  12.208  0.00  0.00    +0.000 C 
ATOM     16  O   UNL     1      43.132   3.289  11.016  0.00  0.00    +0.000 OA
ENDBRANCH   9  16
ENDBRANCH   8  14
ENDBRANCH   2   8
ENDBRANCH   1   5
BRANCH   1  17
ATOM     17  N   UNL     1      48.887   6.441  15.060  0.00  0.00    +0.000 N 
ATOM     18  C   UNL     1      49.014   6.409  16.427  0.00  0.00    +0.000 C 
ATOM     19  O   UNL     1      48.508   7.267  17.147  0.00  0.00    +0.000 OA
ATOM     20  H   UNL     1      49.493   5.865  14.484  0.00  0.00    +0.000 HD
BRANCH  18  21
ATOM     21  C   UNL     1      49.731   5.263  16.999  0.00  0.00    +0.000 A 
ATOM     22  C   UNL     1      49.023   4.127  17.368  0.00  0.00    +0.000 A 
ATOM     23  S   UNL     1      50.008   2.869  17.960  0.00  0.00    +0.000 S 
ATOM     24  C   UNL     1      51.411   3.819  17.800  0.00  0.00    +0.000 A 
ATOM     25  N   UNL     1      52.628   3.334  18.163  0.00  0.00    +0.000 NA
ATOM     26  C   UNL     1      53.600   4.173  18.023  0.00  0.00    +0.000 A 
ATOM     27  N   UNL     1      53.466   5.450  17.549  0.00  0.00    +0.000 N 
ATOM     28  C   UNL     1      52.260   5.971  17.142  0.00  0.00    +0.000 A 
ATOM     29  O   UNL     1      52.179   7.108  16.692  0.00  0.00    +0.000 OA
ATOM     30  C   UNL     1      51.134   5.072  17.287  0.00  0.00    +0.000 A 
ATOM     31  H   UNL     1      54.266   6.059  17.457  0.00  0.00    +0.000 HD
ENDBRANCH  18  21
ENDBRANCH   1  17
TORSDOF 6
ENDMDL
MODEL 7
REMARK VINA RESULT:    -6.568      4.995      7.769
REMARK INTER + INTRA:          -9.998
REMARK INTER:                  -8.947
REMARK INTRA:                  -1.050
REMARK UNBOUND:                -1.126
REMARK  Name = 
REMARK  7 active torsions:
REMARK  status: ('A' for Active; 'I' for Inactive)
REMARK    1  A    between atoms: C_1  and  O_2
REMARK    2  A    between atoms: O_2  and  C_3
REMARK    3  A    between atoms: C_8  and  C_9
REMARK    4  A    between atoms: C_9  and  C_10
REMARK    5  A    between atoms: C_13  and  C_14
REMARK    6  A    between atoms: C_14  and  N_15
REMARK    7  A    between atoms: C_16  and  C_18
REMARK                            x       y       z     vdW  Elec       q    Type
REMARK                         _______ _______ _______ _____ _____    ______ ____
ROOT
ATOM      1  C   UNL     1      46.791   8.408  12.611  0.00  0.00    +0.000 C 
ENDROOT
BRANCH   1   5
ATOM      2  C   UNL     1      50.804   8.936  11.095  0.00  0.00    +0.000 A 
ATOM      3  C   UNL     1      50.329   7.660  11.419  0.00  0.00    +0.000 A 
ATOM      4  C   UNL     1      49.052   7.491  11.962  0.00  0.00    +0.000 A 
ATOM      5  C   UNL     1      48.218   8.596  12.175  0.00  0.00    +0.000 A 
ATOM      6  C   UNL     1      48.725   9.879  11.933  0.00  0.00    +0.000 A 
ATOM      7  C   UNL     1      50.003  10.048  11.393  0.00  0.00    +0.000 A 
BRANCH   2   8
ATOM      8  C   UNL     1      52.142   9.101  10.408  0.00  0.00    +0.000 C 
BRANCH   8  14
ATOM      9  C   UNL     1      53.757   7.138  10.750  0.00  0.00    +0.000 A 
ATOM     10  C   UNL     1      54.366   5.975  10.257  0.00  0.00    +0.000 A 
ATOM     11  C   UNL     1      54.033   5.472   8.999  0.00  0.00    +0.000 A 
ATOM     12  C   UNL     1      53.069   6.111   8.228  0.00  0.00    +0.000 A 
ATOM     13  C   UNL     1      52.451   7.265   8.710  0.00  0.00    +0.000 A 
ATOM     14  C   UNL     1      52.794   7.803   9.965  0.00  0.00    +0.000 A 
BRANCH   9  16
ATOM     15  C   UNL     1      54.973   6.989  12.790  0.00  0.00    +0.000 C 
ATOM     16  O   UNL     1      54.029   7.682  11.980  0.00  0.00    +0.000 OA
ENDBRANCH   9  16
ENDBRANCH   8  14
ENDBRANCH   2   8
ENDBRANCH   1   5
BRANCH   1  17
ATOM     17  N   UNL     1      46.328   7.060  12.421  0.00  0.00    +0.000 N 
ATOM     18  C   UNL     1      45.197   6.814  11.682  0.00  0.00    +0.000 C 
ATOM     19  O   UNL     1      44.588   7.713  11.107  0.00  0.00    +0.000 OA
ATOM     20  H   UNL     1      46.675   6.354  13.062  0.00  0.00    +0.000 HD
BRANCH  18  21
ATOM     21  C   UNL     1      44.780   5.413  11.557  0.00  0.00    +0.000 A 
ATOM     22  C   UNL     1      44.137   4.792  12.620  0.00  0.00    +0.000 A 
ATOM     23  S   UNL     1      43.668   3.186  12.294  0.00  0.00    +0.000 S 
ATOM     24  C   UNL     1      44.358   3.244  10.739  0.00  0.00    +0.000 A 
ATOM     25  N   UNL     1      44.323   2.160   9.919  0.00  0.00    +0.000 NA
ATOM     26  C   UNL     1      44.916   2.331   8.785  0.00  0.00    +0.000 A 
ATOM     27  N   UNL     1      45.536   3.486   8.393  0.00  0.00    +0.000 N 
ATOM     28  C   UNL     1      45.569   4.615   9.178  0.00  0.00    +0.000 A 
ATOM     29  O   UNL     1      46.105   5.646   8.786  0.00  0.00    +0.000 OA
ATOM     30  C   UNL     1      44.924   4.475  10.467  0.00  0.00    +0.000 A 
ATOM     31  H   UNL     1      45.980   3.561   7.490  0.00  0.00    +0.000 HD
ENDBRANCH  18  21
ENDBRANCH   1  17
TORSDOF 6
ENDMDL
MODEL 8
REMARK VINA RESULT:    -6.505      3.801      5.117
REMARK INTER + INTRA:          -9.913
REMARK INTER:                  -8.608
REMARK INTRA:                  -1.305
REMARK UNBOUND:                -1.126
REMARK  Name = 
REMARK  7 active torsions:
REMARK  status: ('A' for Active; 'I' for Inactive)
REMARK    1  A    between atoms: C_1  and  O_2
REMARK    2  A    between atoms: O_2  and  C_3
REMARK    3  A    between atoms: C_8  and  C_9
REMARK    4  A    between atoms: C_9  and  C_10
REMARK    5  A    between atoms: C_13  and  C_14
REMARK    6  A    between atoms: C_14  and  N_15
REMARK    7  A    between atoms: C_16  and  C_18
REMARK                            x       y       z     vdW  Elec       q    Type
REMARK                         _______ _______ _______ _____ _____    ______ ____
ROOT
ATOM      1  C   UNL     1      48.939   7.508  14.377  0.00  0.00    +0.000 C 
ENDROOT
BRANCH   1   5
ATOM      2  C   UNL     1      45.729   6.206  11.793  0.00  0.00    +0.000 A 
ATOM      3  C   UNL     1      46.497   5.271  12.499  0.00  0.00    +0.000 A 
ATOM      4  C   UNL     1      47.571   5.685  13.292  0.00  0.00    +0.000 A 
ATOM      5  C   UNL     1      47.887   7.044  13.408  0.00  0.00    +0.000 A 
ATOM      6  C   UNL     1      47.176   7.970  12.634  0.00  0.00    +0.000 A 
ATOM      7  C   UNL     1      46.103   7.556  11.839  0.00  0.00    +0.000 A 
BRANCH   2   8
ATOM      8  C   UNL     1      44.503   5.762  11.025  0.00  0.00    +0.000 C 
BRANCH   8  14
ATOM      9  C   UNL     1      44.107   3.408  10.087  0.00  0.00    +0.000 A 
ATOM     10  C   UNL     1      44.425   2.409   9.156  0.00  0.00    +0.000 A 
ATOM     11  C   UNL     1      45.373   2.639   8.157  0.00  0.00    +0.000 A 
ATOM     12  C   UNL     1      45.997   3.877   8.064  0.00  0.00    +0.000 A 
ATOM     13  C   UNL     1      45.685   4.881   8.981  0.00  0.00    +0.000 A 
ATOM     14  C   UNL     1      44.752   4.659  10.011  0.00  0.00    +0.000 A 
BRANCH   9  16
ATOM     15  C   UNL     1      43.650   2.717  12.319  0.00  0.00    +0.000 C 
ATOM     16  O   UNL     1      43.180   3.254  11.087  0.00  0.00    +0.000 OA
ENDBRANCH   9  16
ENDBRANCH   8  14
ENDBRANCH   2   8
ENDBRANCH   1   5
BRANCH   1  17
ATOM     17  N   UNL     1      50.240   7.609  13.774  0.00  0.00    +0.000 N 
ATOM     18  C   UNL     1      50.832   8.836  13.607  0.00  0.00    +0.000 C 
ATOM     19  O   UNL     1      50.314   9.870  14.022  0.00  0.00    +0.000 OA
ATOM     20  H   UNL     1      50.566   6.814  13.233  0.00  0.00    +0.000 HD
BRANCH  18  21
ATOM     21  C   UNL     1      52.150   8.854  12.961  0.00  0.00    +0.000 A 
ATOM     22  C   UNL     1      53.214   9.483  13.594  0.00  0.00    +0.000 A 
ATOM     23  S   UNL     1      54.686   9.364  12.741  0.00  0.00    +0.000 S 
ATOM     24  C   UNL     1      53.940   8.517  11.467  0.00  0.00    +0.000 A 
ATOM     25  N   UNL     1      54.654   8.124  10.379  0.00  0.00    +0.000 NA
ATOM     26  C   UNL     1      53.956   7.523   9.472  0.00  0.00    +0.000 A 
ATOM     27  N   UNL     1      52.614   7.275   9.558  0.00  0.00    +0.000 N 
ATOM     28  C   UNL     1      51.860   7.628  10.652  0.00  0.00    +0.000 A 
ATOM     29  O   UNL     1      50.664   7.363  10.712  0.00  0.00    +0.000 OA
ATOM     30  C   UNL     1      52.593   8.314  11.696  0.00  0.00    +0.000 A 
ATOM     31  H   UNL     1      52.123   6.796   8.817  0.00  0.00    +0.000 HD
ENDBRANCH  18  21
ENDBRANCH   1  17
TORSDOF 6
ENDMDL
MODEL 9
REMARK VINA RESULT:    -6.418      4.269      8.276
REMARK INTER + INTRA:          -9.795
REMARK INTER:                  -8.648
REMARK INTRA:                  -1.147
REMARK UNBOUND:                -1.126
REMARK  Name = 
REMARK  7 active torsions:
REMARK  status: ('A' for Active; 'I' for Inactive)
REMARK    1  A    between atoms: C_1  and  O_2
REMARK    2  A    between atoms: O_2  and  C_3
REMARK    3  A    between atoms: C_8  and  C_9
REMARK    4  A    between atoms: C_9  and  C_10
REMARK    5  A    between atoms: C_13  and  C_14
REMARK    6  A    between atoms: C_14  and  N_15
REMARK    7  A    between atoms: C_16  and  C_18
REMARK                            x       y       z     vdW  Elec       q    Type
REMARK                         _______ _______ _______ _____ _____    ______ ____
ROOT
ATOM      1  C   UNL     1      43.916   3.338  11.849  0.00  0.00    +0.000 C 
ENDROOT
BRANCH   1   5
ATOM      2  C   UNL     1      45.825   7.086  12.844  0.00  0.00    +0.000 A 
ATOM      3  C   UNL     1      46.366   5.873  13.286  0.00  0.00    +0.000 A 
ATOM      4  C   UNL     1      45.722   4.663  13.014  0.00  0.00    +0.000 A 
ATOM      5  C   UNL     1      44.530   4.642  12.278  0.00  0.00    +0.000 A 
ATOM      6  C   UNL     1      43.943   5.860  11.911  0.00  0.00    +0.000 A 
ATOM      7  C   UNL     1      44.587   7.070  12.187  0.00  0.00    +0.000 A 
BRANCH   2   8
ATOM      8  C   UNL     1      46.582   8.379  13.048  0.00  0.00    +0.000 C 
BRANCH   8  14
ATOM      9  C   UNL     1      48.944   8.329  14.047  0.00  0.00    +0.000 A 
ATOM     10  C   UNL     1      50.333   8.271  13.864  0.00  0.00    +0.000 A 
ATOM     11  C   UNL     1      50.880   8.150  12.585  0.00  0.00    +0.000 A 
ATOM     12  C   UNL     1      50.045   8.060  11.478  0.00  0.00    +0.000 A 
ATOM     13  C   UNL     1      48.661   8.109  11.648  0.00  0.00    +0.000 A 
ATOM     14  C   UNL     1      48.092   8.259  12.927  0.00  0.00    +0.000 A 
BRANCH   9  16
ATOM     15  C   UNL     1      49.119   8.069  16.407  0.00  0.00    +0.000 C 
ATOM     16  O   UNL     1      48.339   8.438  15.274  0.00  0.00    +0.000 OA
ENDBRANCH   9  16
ENDBRANCH   8  14
ENDBRANCH   2   8
ENDBRANCH   1   5
BRANCH   1  17
ATOM     17  N   UNL     1      44.737   2.623  10.910  0.00  0.00    +0.000 N 
ATOM     18  C   UNL     1      44.627   2.871   9.564  0.00  0.00    +0.000 C 
ATOM     19  O   UNL     1      43.886   3.747   9.123  0.00  0.00    +0.000 OA
ATOM     20  H   UNL     1      45.169   1.762  11.231  0.00  0.00    +0.000 HD
BRANCH  18  21
ATOM     21  C   UNL     1      45.484   2.081   8.673  0.00  0.00    +0.000 A 
ATOM     22  C   UNL     1      45.439   0.694   8.731  0.00  0.00    +0.000 A 
ATOM     23  S   UNL     1      46.450  -0.073   7.593  0.00  0.00    +0.000 S 
ATOM     24  C   UNL     1      47.029   1.422   7.021  0.00  0.00    +0.000 A 
ATOM     25  N   UNL     1      47.962   1.477   6.034  0.00  0.00    +0.000 NA
ATOM     26  C   UNL     1      48.339   2.673   5.723  0.00  0.00    +0.000 A 
ATOM     27  N   UNL     1      47.864   3.817   6.304  0.00  0.00    +0.000 N 
ATOM     28  C   UNL     1      46.899   3.809   7.284  0.00  0.00    +0.000 A 
ATOM     29  O   UNL     1      46.472   4.853   7.763  0.00  0.00    +0.000 OA
ATOM     30  C   UNL     1      46.448   2.490   7.677  0.00  0.00    +0.000 A 
ATOM     31  H   UNL     1      48.194   4.726   6.015  0.00  0.00    +0.000 HD
ENDBRANCH  18  21
ENDBRANCH   1  17
TORSDOF 6
ENDMDL
