MODEL 1
REMARK VINA RESULT:    -7.519      0.000      0.000
REMARK INTER + INTRA:         -10.770
REMARK INTER:                 -10.156
REMARK INTRA:                  -0.614
REMARK UNBOUND:                -0.614
REMARK  Name = 
REMARK  7 active torsions:
REMARK  status: ('A' for Active; 'I' for Inactive)
REMARK    1  A    between atoms: N_1  and  C_2
REMARK    2  A    between atoms: C_2  and  C_3
REMARK    3  A    between atoms: C_6  and  C_7
REMARK    4  A    between atoms: C_7  and  O_8
REMARK    5  A    between atoms: O_8  and  C_9
REMARK    6  A    between atoms: C_13  and  C_14
REMARK    7  A    between atoms: C_14  and  O_15
REMARK                            x       y       z     vdW  Elec       q    Type
REMARK                         _______ _______ _______ _____ _____    ______ ____
ROOT
ATOM      1  C   UNL     1      43.918   4.427   9.823  0.00  0.00    +0.000 C 
ENDROOT
BRANCH   1   5
ATOM      2  C   UNL     1      46.734   2.108   7.472  0.00  0.00    +0.000 A 
ATOM      3  C   UNL     1      45.891   1.480   8.400  0.00  0.00    +0.000 A 
ATOM      4  C   UNL     1      44.984   2.223   9.160  0.00  0.00    +0.000 A 
ATOM      5  C   UNL     1      44.894   3.614   9.003  0.00  0.00    +0.000 A 
ATOM      6  C   UNL     1      45.735   4.240   8.075  0.00  0.00    +0.000 A 
ATOM      7  C   UNL     1      46.641   3.496   7.314  0.00  0.00    +0.000 A 
BRANCH   2   8
ATOM      8  C   UNL     1      47.745   1.308   6.689  0.00  0.00    +0.000 C 
BRANCH   8   9
ATOM      9  N   UNL     1      48.347   2.094   5.618  0.00  0.00    +0.000 NA
ATOM     10  H   UNL     1      49.349   1.915   5.596  0.00  0.00    +0.000 HD
ATOM     11  H   UNL     1      48.234   3.083   5.838  0.00  0.00    +0.000 HD
ENDBRANCH   8   9
ENDBRANCH   2   8
ENDBRANCH   1   5
BRANCH   1  12
ATOM     12  O   UNL     1      44.160   4.202  11.209  0.00  0.00    +0.000 OA
BRANCH  12  13
ATOM     13  C   UNL     1      45.187   4.906  11.786  0.00  0.00    +0.000 A 
ATOM     14  C   UNL     1      45.739   6.100  11.314  0.00  0.00    +0.000 A 
ATOM     15  C   UNL     1      46.772   6.721  12.023  0.00  0.00    +0.000 A 
ATOM     16  C   UNL     1      47.257   6.162  13.206  0.00  0.00    +0.000 A 
ATOM     17  C   UNL     1      46.728   4.957  13.689  0.00  0.00    +0.000 A 
ATOM     18  C   UNL     1      45.691   4.344  12.964  0.00  0.00    +0.000 A 
BRANCH  17  19
ATOM     19  C   UNL     1      47.160   4.363  15.005  0.00  0.00    +0.000 C 
BRANCH  19  20
ATOM     20  O   UNL     1      47.618   3.024  14.868  0.00  0.00    +0.000 OA
ATOM     21  H   UNL     1      46.865   2.507  14.538  0.00  0.00    +0.000 HD
ENDBRANCH  19  20
ENDBRANCH  17  19
ENDBRANCH  12  13
ENDBRANCH   1  12
TORSDOF 7
ENDMDL
MODEL 2
REMARK VINA RESULT:    -7.243      2.917      6.378
REMARK INTER + INTRA:         -10.398
REMARK INTER:                  -9.823
REMARK INTRA:                  -0.575
REMARK UNBOUND:                -0.614
REMARK  Name = 
REMARK  7 active torsions:
REMARK  status: ('A' for Active; 'I' for Inactive)
REMARK    1  A    between atoms: N_1  and  C_2
REMARK    2  A    between atoms: C_2  and  C_3
REMARK    3  A    between atoms: C_6  and  C_7
REMARK    4  A    between atoms: C_7  and  O_8
REMARK    5  A    between atoms: O_8  and  C_9
REMARK    6  A    between atoms: C_13  and  C_14
REMARK    7  A    between atoms: C_14  and  O_15
REMARK                            x       y       z     vdW  Elec       q    Type
REMARK                         _______ _______ _______ _____ _____    ______ ____
ROOT
ATOM      1  C   UNL     1      43.909   4.416  10.134  0.00  0.00    +0.000 C 
ENDROOT
BRANCH   1   5
ATOM      2  C   UNL     1      46.946   5.884  12.866  0.00  0.00    +0.000 A 
ATOM      3  C   UNL     1      46.734   6.509  11.629  0.00  0.00    +0.000 A 
ATOM      4  C   UNL     1      45.759   6.040  10.746  0.00  0.00    +0.000 A 
ATOM      5  C   UNL     1      44.965   4.934  11.084  0.00  0.00    +0.000 A 
ATOM      6  C   UNL     1      45.175   4.310  12.320  0.00  0.00    +0.000 A 
ATOM      7  C   UNL     1      46.150   4.781  13.203  0.00  0.00    +0.000 A 
BRANCH   2   8
ATOM      8  C   UNL     1      48.032   6.364  13.794  0.00  0.00    +0.000 C 
BRANCH   8   9
ATOM      9  N   UNL     1      49.281   6.616  13.084  0.00  0.00    +0.000 NA
ATOM     10  H   UNL     1      49.092   7.211  12.280  0.00  0.00    +0.000 HD
ATOM     11  H   UNL     1      49.629   5.732  12.715  0.00  0.00    +0.000 HD
ENDBRANCH   8   9
ENDBRANCH   2   8
ENDBRANCH   1   5
BRANCH   1  12
ATOM     12  O   UNL     1      44.420   4.430   8.803  0.00  0.00    +0.000 OA
BRANCH  12  13
ATOM     13  C   UNL     1      45.151   3.341   8.403  0.00  0.00    +0.000 A 
ATOM     14  C   UNL     1      45.129   2.071   8.985  0.00  0.00    +0.000 A 
ATOM     15  C   UNL     1      45.915   1.044   8.452  0.00  0.00    +0.000 A 
ATOM     16  C   UNL     1      46.721   1.273   7.337  0.00  0.00    +0.000 A 
ATOM     17  C   UNL     1      46.770   2.544   6.747  0.00  0.00    +0.000 A 
ATOM     18  C   UNL     1      45.975   3.566   7.295  0.00  0.00    +0.000 A 
BRANCH  17  19
ATOM     19  C   UNL     1      47.558   2.815   5.491  0.00  0.00    +0.000 C 
BRANCH  19  20
ATOM     20  O   UNL     1      48.571   1.843   5.271  0.00  0.00    +0.000 OA
ATOM     21  H   UNL     1      48.691   1.782   4.309  0.00  0.00    +0.000 HD
ENDBRANCH  19  20
ENDBRANCH  17  19
ENDBRANCH  12  13
ENDBRANCH   1  12
TORSDOF 7
ENDMDL
MODEL 3
REMARK VINA RESULT:    -7.208      1.341      2.241
REMARK INTER + INTRA:         -10.350
REMARK INTER:                  -9.681
REMARK INTRA:                  -0.669
REMARK UNBOUND:                -0.614
REMARK  Name = 
REMARK  7 active torsions:
REMARK  status: ('A' for Active; 'I' for Inactive)
REMARK    1  A    between atoms: N_1  and  C_2
REMARK    2  A    between atoms: C_2  and  C_3
REMARK    3  A    between atoms: C_6  and  C_7
REMARK    4  A    between atoms: C_7  and  O_8
REMARK    5  A    between atoms: O_8  and  C_9
REMARK    6  A    between atoms: C_13  and  C_14
REMARK    7  A    between atoms: C_14  and  O_15
REMARK                            x       y       z     vdW  Elec       q    Type
REMARK                         _______ _______ _______ _____ _____    ______ ____
ROOT
ATOM      1  C   UNL     1      43.787   4.120  10.398  0.00  0.00    +0.000 C 
ENDROOT
BRANCH   1   5
ATOM      2  C   UNL     1      46.529   2.443   7.480  0.00  0.00    +0.000 A 
ATOM      3  C   UNL     1      46.255   3.818   7.496  0.00  0.00    +0.000 A 
ATOM      4  C   UNL     1      45.372   4.362   8.432  0.00  0.00    +0.000 A 
ATOM      5  C   UNL     1      44.746   3.541   9.382  0.00  0.00    +0.000 A 
ATOM      6  C   UNL     1      45.021   2.168   9.368  0.00  0.00    +0.000 A 
ATOM      7  C   UNL     1      45.906   1.625   8.431  0.00  0.00    +0.000 A 
BRANCH   2   8
ATOM      8  C   UNL     1      47.445   1.854   6.437  0.00  0.00    +0.000 C 
BRANCH   8   9
ATOM      9  N   UNL     1      48.760   2.485   6.451  0.00  0.00    +0.000 NA
ATOM     10  H   UNL     1      48.938   2.863   7.379  0.00  0.00    +0.000 HD
ATOM     11  H   UNL     1      48.746   3.279   5.812  0.00  0.00    +0.000 HD
ENDBRANCH   8   9
ENDBRANCH   2   8
ENDBRANCH   1   5
BRANCH   1  12
ATOM     12  O   UNL     1      44.272   5.384  10.842  0.00  0.00    +0.000 OA
BRANCH  12  13
ATOM     13  C   UNL     1      45.201   5.376  11.853  0.00  0.00    +0.000 A 
ATOM     14  C   UNL     1      45.158   4.592  13.009  0.00  0.00    +0.000 A 
ATOM     15  C   UNL     1      46.193   4.673  13.947  0.00  0.00    +0.000 A 
ATOM     16  C   UNL     1      47.276   5.527  13.736  0.00  0.00    +0.000 A 
ATOM     17  C   UNL     1      47.330   6.333  12.591  0.00  0.00    +0.000 A 
ATOM     18  C   UNL     1      46.282   6.242  11.659  0.00  0.00    +0.000 A 
BRANCH  17  19
ATOM     19  C   UNL     1      48.520   7.205  12.281  0.00  0.00    +0.000 C 
BRANCH  19  20
ATOM     20  O   UNL     1      49.743   6.619  12.707  0.00  0.00    +0.000 OA
ATOM     21  H   UNL     1      50.412   7.322  12.674  0.00  0.00    +0.000 HD
ENDBRANCH  19  20
ENDBRANCH  17  19
ENDBRANCH  12  13
ENDBRANCH   1  12
TORSDOF 7
ENDMDL
MODEL 4
REMARK VINA RESULT:    -7.101      1.500      2.745
REMARK INTER + INTRA:         -10.206
REMARK INTER:                  -9.561
REMARK INTRA:                  -0.646
REMARK UNBOUND:                -0.614
REMARK  Name = 
REMARK  7 active torsions:
REMARK  status: ('A' for Active; 'I' for Inactive)
REMARK    1  A    between atoms: N_1  and  C_2
REMARK    2  A    between atoms: C_2  and  C_3
REMARK    3  A    between atoms: C_6  and  C_7
REMARK    4  A    between atoms: C_7  and  O_8
REMARK    5  A    between atoms: O_8  and  C_9
REMARK    6  A    between atoms: C_13  and  C_14
REMARK    7  A    between atoms: C_14  and  O_15
REMARK                            x       y       z     vdW  Elec       q    Type
REMARK                         _______ _______ _______ _____ _____    ______ ____
ROOT
ATOM      1  C   UNL     1      43.725   4.233  10.147  0.00  0.00    +0.000 C 
ENDROOT
BRANCH   1   5
ATOM      2  C   UNL     1      46.614   2.310   7.541  0.00  0.00    +0.000 A 
ATOM      3  C   UNL     1      45.846   1.554   8.437  0.00  0.00    +0.000 A 
ATOM      4  C   UNL     1      44.915   2.168   9.279  0.00  0.00    +0.000 A 
ATOM      5  C   UNL     1      44.727   3.557   9.238  0.00  0.00    +0.000 A 
ATOM      6  C   UNL     1      45.493   4.313   8.342  0.00  0.00    +0.000 A 
ATOM      7  C   UNL     1      46.423   3.697   7.499  0.00  0.00    +0.000 A 
BRANCH   2   8
ATOM      8  C   UNL     1      47.651   1.647   6.669  0.00  0.00    +0.000 C 
BRANCH   8   9
ATOM      9  N   UNL     1      48.693   2.582   6.260  0.00  0.00    +0.000 NA
ATOM     10  H   UNL     1      49.178   2.923   7.087  0.00  0.00    +0.000 HD
ATOM     11  H   UNL     1      48.251   3.393   5.828  0.00  0.00    +0.000 HD
ENDBRANCH   8   9
ENDBRANCH   2   8
ENDBRANCH   1   5
BRANCH   1  12
ATOM     12  O   UNL     1      44.168   4.134  11.498  0.00  0.00    +0.000 OA
BRANCH  12  13
ATOM     13  C   UNL     1      44.936   5.164  11.981  0.00  0.00    +0.000 A 
ATOM     14  C   UNL     1      46.093   5.042  12.754  0.00  0.00    +0.000 A 
ATOM     15  C   UNL     1      46.789   6.186  13.157  0.00  0.00    +0.000 A 
ATOM     16  C   UNL     1      46.342   7.456  12.788  0.00  0.00    +0.000 A 
ATOM     17  C   UNL     1      45.175   7.601  12.025  0.00  0.00    +0.000 A 
ATOM     18  C   UNL     1      44.486   6.441  11.630  0.00  0.00    +0.000 A 
BRANCH  17  19
ATOM     19  C   UNL     1      44.704   8.945  11.531  0.00  0.00    +0.000 C 
BRANCH  19  20
ATOM     20  O   UNL     1      43.425   8.874  10.915  0.00  0.00    +0.000 OA
ATOM     21  H   UNL     1      42.822   9.395  11.471  0.00  0.00    +0.000 HD
ENDBRANCH  19  20
ENDBRANCH  17  19
ENDBRANCH  12  13
ENDBRANCH   1  12
TORSDOF 7
ENDMDL
MODEL 5
REMARK VINA RESULT:    -6.677      3.180      6.306
REMARK INTER + INTRA:          -9.633
REMARK INTER:                  -9.179
REMARK INTRA:                  -0.455
REMARK UNBOUND:                -0.614
REMARK  Name = 
REMARK  7 active torsions:
REMARK  status: ('A' for Active; 'I' for Inactive)
REMARK    1  A    between atoms: N_1  and  C_2
REMARK    2  A    between atoms: C_2  and  C_3
REMARK    3  A    between atoms: C_6  and  C_7
REMARK    4  A    between atoms: C_7  and  O_8
REMARK    5  A    between atoms: O_8  and  C_9
REMARK    6  A    between atoms: C_13  and  C_14
REMARK    7  A    between atoms: C_14  and  O_15
REMARK                            x       y       z     vdW  Elec       q    Type
REMARK                         _______ _______ _______ _____ _____    ______ ____
ROOT
ATOM      1  C   UNL     1      44.792   3.166  11.415  0.00  0.00    +0.000 C 
ENDROOT
BRANCH   1   5
ATOM      2  C   UNL     1      45.501   7.288  12.574  0.00  0.00    +0.000 A 
ATOM      3  C   UNL     1      44.417   6.954  11.749  0.00  0.00    +0.000 A 
ATOM      4  C   UNL     1      44.186   5.628  11.372  0.00  0.00    +0.000 A 
ATOM      5  C   UNL     1      45.032   4.603  11.819  0.00  0.00    +0.000 A 
ATOM      6  C   UNL     1      46.113   4.937  12.645  0.00  0.00    +0.000 A 
ATOM      7  C   UNL     1      46.343   6.263  13.022  0.00  0.00    +0.000 A 
BRANCH   2   8
ATOM      8  C   UNL     1      45.774   8.726  12.938  0.00  0.00    +0.000 C 
BRANCH   8   9
ATOM      9  N   UNL     1      46.688   8.835  14.069  0.00  0.00    +0.000 NA
ATOM     10  H   UNL     1      46.243   9.379  14.805  0.00  0.00    +0.000 HD
ATOM     11  H   UNL     1      47.509   9.362  13.775  0.00  0.00    +0.000 HD
ENDBRANCH   8   9
ENDBRANCH   2   8
ENDBRANCH   1   5
BRANCH   1  12
ATOM     12  O   UNL     1      44.244   3.128  10.100  0.00  0.00    +0.000 OA
BRANCH  12  13
ATOM     13  C   UNL     1      45.129   3.181   9.052  0.00  0.00    +0.000 A 
ATOM     14  C   UNL     1      45.507   4.326   8.347  0.00  0.00    +0.000 A 
ATOM     15  C   UNL     1      46.443   4.231   7.311  0.00  0.00    +0.000 A 
ATOM     16  C   UNL     1      47.010   3.000   6.977  0.00  0.00    +0.000 A 
ATOM     17  C   UNL     1      46.632   1.837   7.663  0.00  0.00    +0.000 A 
ATOM     18  C   UNL     1      45.689   1.949   8.700  0.00  0.00    +0.000 A 
BRANCH  17  19
ATOM     19  C   UNL     1      47.281   0.504   7.395  0.00  0.00    +0.000 C 
BRANCH  19  20
ATOM     20  O   UNL     1      46.514  -0.580   7.902  0.00  0.00    +0.000 OA
ATOM     21  H   UNL     1      46.731  -0.655   8.846  0.00  0.00    +0.000 HD
ENDBRANCH  19  20
ENDBRANCH  17  19
ENDBRANCH  12  13
ENDBRANCH   1  12
TORSDOF 7
ENDMDL
MODEL 6
REMARK VINA RESULT:    -5.609      1.974      2.802
REMARK INTER + INTRA:          -8.191
REMARK INTER:                  -7.932
REMARK INTRA:                  -0.259
REMARK UNBOUND:                -0.614
REMARK  Name = 
REMARK  7 active torsions:
REMARK  status: ('A' for Active; 'I' for Inactive)
REMARK    1  A    between atoms: N_1  and  C_2
REMARK    2  A    between atoms: C_2  and  C_3
REMARK    3  A    between atoms: C_6  and  C_7
REMARK    4  A    between atoms: C_7  and  O_8
REMARK    5  A    between atoms: O_8  and  C_9
REMARK    6  A    between atoms: C_13  and  C_14
REMARK    7  A    between atoms: C_14  and  O_15
REMARK                            x       y       z     vdW  Elec       q    Type
REMARK                         _______ _______ _______ _____ _____    ______ ____
ROOT
ATOM      1  C   UNL     1      44.334   2.065  10.064  0.00  0.00    +0.000 C 
ENDROOT
BRANCH   1   5
ATOM      2  C   UNL     1      46.775   2.605   6.516  0.00  0.00    +0.000 A 
ATOM      3  C   UNL     1      45.908   3.619   6.948  0.00  0.00    +0.000 A 
ATOM      4  C   UNL     1      45.120   3.450   8.089  0.00  0.00    +0.000 A 
ATOM      5  C   UNL     1      45.186   2.260   8.829  0.00  0.00    +0.000 A 
ATOM      6  C   UNL     1      46.053   1.248   8.399  0.00  0.00    +0.000 A 
ATOM      7  C   UNL     1      46.842   1.419   7.258  0.00  0.00    +0.000 A 
BRANCH   2   8
ATOM      8  C   UNL     1      47.588   2.774   5.257  0.00  0.00    +0.000 C 
BRANCH   8   9
ATOM      9  N   UNL     1      48.651   1.780   5.160  0.00  0.00    +0.000 NA
ATOM     10  H   UNL     1      48.292   0.954   4.687  0.00  0.00    +0.000 HD
ATOM     11  H   UNL     1      48.909   1.487   6.102  0.00  0.00    +0.000 HD
ENDBRANCH   8   9
ENDBRANCH   2   8
ENDBRANCH   1   5
BRANCH   1  12
ATOM     12  O   UNL     1      43.456   3.178  10.215  0.00  0.00    +0.000 OA
BRANCH  12  13
ATOM     13  C   UNL     1      43.731   4.057  11.232  0.00  0.00    +0.000 A 
ATOM     14  C   UNL     1      43.321   3.935  12.563  0.00  0.00    +0.000 A 
ATOM     15  C   UNL     1      43.698   4.902  13.501  0.00  0.00    +0.000 A 
ATOM     16  C   UNL     1      44.487   5.989  13.122  0.00  0.00    +0.000 A 
ATOM     17  C   UNL     1      44.896   6.137  11.790  0.00  0.00    +0.000 A 
ATOM     18  C   UNL     1      44.508   5.158  10.859  0.00  0.00    +0.000 A 
BRANCH  17  19
ATOM     19  C   UNL     1      45.819   7.246  11.355  0.00  0.00    +0.000 C 
BRANCH  19  20
ATOM     20  O   UNL     1      47.186   6.934  11.593  0.00  0.00    +0.000 OA
ATOM     21  H   UNL     1      47.676   7.226  10.807  0.00  0.00    +0.000 HD
ENDBRANCH  19  20
ENDBRANCH  17  19
ENDBRANCH  12  13
ENDBRANCH   1  12
TORSDOF 7
ENDMDL
MODEL 7
REMARK VINA RESULT:    -5.530      4.251      7.762
REMARK INTER + INTRA:          -8.084
REMARK INTER:                  -7.707
REMARK INTRA:                  -0.377
REMARK UNBOUND:                -0.614
REMARK  Name = 
REMARK  7 active torsions:
REMARK  status: ('A' for Active; 'I' for Inactive)
REMARK    1  A    between atoms: N_1  and  C_2
REMARK    2  A    between atoms: C_2  and  C_3
REMARK    3  A    between atoms: C_6  and  C_7
REMARK    4  A    between atoms: C_7  and  O_8
REMARK    5  A    between atoms: O_8  and  C_9
REMARK    6  A    between atoms: C_13  and  C_14
REMARK    7  A    between atoms: C_14  and  O_15
REMARK                            x       y       z     vdW  Elec       q    Type
REMARK                         _______ _______ _______ _____ _____    ______ ____
ROOT
ATOM      1  C   UNL     1      47.182   3.805  15.851  0.00  0.00    +0.000 C 
ENDROOT
BRANCH   1   5
ATOM      2  C   UNL     1      51.069   3.290  17.713  0.00  0.00    +0.000 A 
ATOM      3  C   UNL     1      50.353   2.183  17.234  0.00  0.00    +0.000 A 
ATOM      4  C   UNL     1      49.101   2.344  16.635  0.00  0.00    +0.000 A 
ATOM      5  C   UNL     1      48.538   3.621  16.495  0.00  0.00    +0.000 A 
ATOM      6  C   UNL     1      49.253   4.726  16.972  0.00  0.00    +0.000 A 
ATOM      7  C   UNL     1      50.506   4.564  17.570  0.00  0.00    +0.000 A 
BRANCH   2   8
ATOM      8  C   UNL     1      52.398   3.106  18.403  0.00  0.00    +0.000 C 
BRANCH   8   9
ATOM      9  N   UNL     1      52.779   1.700  18.480  0.00  0.00    +0.000 NA
ATOM     10  H   UNL     1      53.744   1.600  18.173  0.00  0.00    +0.000 HD
ATOM     11  H   UNL     1      52.209   1.172  17.820  0.00  0.00    +0.000 HD
ENDBRANCH   8   9
ENDBRANCH   2   8
ENDBRANCH   1   5
BRANCH   1  12
ATOM     12  O   UNL     1      47.206   3.263  14.533  0.00  0.00    +0.000 OA
BRANCH  12  13
ATOM     13  C   UNL     1      46.582   3.987  13.548  0.00  0.00    +0.000 A 
ATOM     14  C   UNL     1      46.822   5.327  13.229  0.00  0.00    +0.000 A 
ATOM     15  C   UNL     1      46.123   5.930  12.178  0.00  0.00    +0.000 A 
ATOM     16  C   UNL     1      45.189   5.205  11.438  0.00  0.00    +0.000 A 
ATOM     17  C   UNL     1      44.923   3.865  11.751  0.00  0.00    +0.000 A 
ATOM     18  C   UNL     1      45.632   3.273  12.811  0.00  0.00    +0.000 A 
BRANCH  17  19
ATOM     19  C   UNL     1      43.988   3.020  10.925  0.00  0.00    +0.000 C 
BRANCH  19  20
ATOM     20  O   UNL     1      43.048   2.316  11.725  0.00  0.00    +0.000 OA
ATOM     21  H   UNL     1      43.563   1.769  12.340  0.00  0.00    +0.000 HD
ENDBRANCH  19  20
ENDBRANCH  17  19
ENDBRANCH  12  13
ENDBRANCH   1  12
TORSDOF 7
ENDMDL
MODEL 8
REMARK VINA RESULT:    -5.283      4.551      8.058
REMARK INTER + INTRA:          -7.749
REMARK INTER:                  -7.379
REMARK INTRA:                  -0.370
REMARK UNBOUND:                -0.614
REMARK  Name = 
REMARK  7 active torsions:
REMARK  status: ('A' for Active; 'I' for Inactive)
REMARK    1  A    between atoms: N_1  and  C_2
REMARK    2  A    between atoms: C_2  and  C_3
REMARK    3  A    between atoms: C_6  and  C_7
REMARK    4  A    between atoms: C_7  and  O_8
REMARK    5  A    between atoms: O_8  and  C_9
REMARK    6  A    between atoms: C_13  and  C_14
REMARK    7  A    between atoms: C_14  and  O_15
REMARK                            x       y       z     vdW  Elec       q    Type
REMARK                         _______ _______ _______ _____ _____    ______ ____
ROOT
ATOM      1  C   UNL     1      47.160   4.025  14.649  0.00  0.00    +0.000 C 
ENDROOT
BRANCH   1   5
ATOM      2  C   UNL     1      48.665   4.603  18.679  0.00  0.00    +0.000 A 
ATOM      3  C   UNL     1      48.789   5.616  17.718  0.00  0.00    +0.000 A 
ATOM      4  C   UNL     1      48.307   5.435  16.419  0.00  0.00    +0.000 A 
ATOM      5  C   UNL     1      47.682   4.234  16.053  0.00  0.00    +0.000 A 
ATOM      6  C   UNL     1      47.557   3.222  17.014  0.00  0.00    +0.000 A 
ATOM      7  C   UNL     1      48.038   3.405  18.313  0.00  0.00    +0.000 A 
BRANCH   2   8
ATOM      8  C   UNL     1      49.230   4.786  20.065  0.00  0.00    +0.000 C 
BRANCH   8   9
ATOM      9  N   UNL     1      48.491   4.016  21.059  0.00  0.00    +0.000 NA
ATOM     10  H   UNL     1      48.450   3.043  20.762  0.00  0.00    +0.000 HD
ATOM     11  H   UNL     1      47.529   4.353  21.081  0.00  0.00    +0.000 HD
ENDBRANCH   8   9
ENDBRANCH   2   8
ENDBRANCH   1   5
BRANCH   1  12
ATOM     12  O   UNL     1      46.780   5.282  14.093  0.00  0.00    +0.000 OA
BRANCH  12  13
ATOM     13  C   UNL     1      46.136   5.260  12.882  0.00  0.00    +0.000 A 
ATOM     14  C   UNL     1      46.377   6.114  11.802  0.00  0.00    +0.000 A 
ATOM     15  C   UNL     1      45.655   5.958  10.614  0.00  0.00    +0.000 A 
ATOM     16  C   UNL     1      44.696   4.951  10.493  0.00  0.00    +0.000 A 
ATOM     17  C   UNL     1      44.428   4.095  11.570  0.00  0.00    +0.000 A 
ATOM     18  C   UNL     1      45.161   4.265  12.757  0.00  0.00    +0.000 A 
BRANCH  17  19
ATOM     19  C   UNL     1      43.465   2.942  11.455  0.00  0.00    +0.000 C 
BRANCH  19  20
ATOM     20  O   UNL     1      43.846   2.020  10.442  0.00  0.00    +0.000 OA
ATOM     21  H   UNL     1      43.465   2.348   9.612  0.00  0.00    +0.000 HD
ENDBRANCH  19  20
ENDBRANCH  17  19
ENDBRANCH  12  13
ENDBRANCH   1  12
TORSDOF 7
ENDMDL
MODEL 9
REMARK VINA RESULT:    -5.255      3.811      7.250
REMARK INTER + INTRA:          -7.713
REMARK INTER:                  -7.218
REMARK INTRA:                  -0.495
REMARK UNBOUND:                -0.614
REMARK  Name = 
REMARK  7 active torsions:
REMARK  status: ('A' for Active; 'I' for Inactive)
REMARK    1  A    between atoms: N_1  and  C_2
REMARK    2  A    between atoms: C_2  and  C_3
REMARK    3  A    between atoms: C_6  and  C_7
REMARK    4  A    between atoms: C_7  and  O_8
REMARK    5  A    between atoms: O_8  and  C_9
REMARK    6  A    between atoms: C_13  and  C_14
REMARK    7  A    between atoms: C_14  and  O_15
REMARK                            x       y       z     vdW  Elec       q    Type
REMARK                         _______ _______ _______ _____ _____    ______ ____
ROOT
ATOM      1  C   UNL     1      47.408   6.118  13.045  0.00  0.00    +0.000 C 
ENDROOT
BRANCH   1   5
ATOM      2  C   UNL     1      48.187   4.656  17.057  0.00  0.00    +0.000 A 
ATOM      3  C   UNL     1      48.750   5.861  16.613  0.00  0.00    +0.000 A 
ATOM      4  C   UNL     1      48.503   6.335  15.322  0.00  0.00    +0.000 A 
ATOM      5  C   UNL     1      47.679   5.615  14.445  0.00  0.00    +0.000 A 
ATOM      6  C   UNL     1      47.115   4.413  14.889  0.00  0.00    +0.000 A 
ATOM      7  C   UNL     1      47.361   3.940  16.181  0.00  0.00    +0.000 A 
BRANCH   2   8
ATOM      8  C   UNL     1      48.496   4.124  18.434  0.00  0.00    +0.000 C 
BRANCH   8   9
ATOM      9  N   UNL     1      49.727   3.344  18.451  0.00  0.00    +0.000 NA
ATOM     10  H   UNL     1      49.630   2.555  17.815  0.00  0.00    +0.000 HD
ATOM     11  H   UNL     1      49.851   2.951  19.383  0.00  0.00    +0.000 HD
ENDBRANCH   8   9
ENDBRANCH   2   8
ENDBRANCH   1   5
BRANCH   1  12
ATOM     12  O   UNL     1      46.109   6.703  12.994  0.00  0.00    +0.000 OA
BRANCH  12  13
ATOM     13  C   UNL     1      45.112   5.962  12.410  0.00  0.00    +0.000 A 
ATOM     14  C   UNL     1      43.841   5.723  12.938  0.00  0.00    +0.000 A 
ATOM     15  C   UNL     1      42.915   4.964  12.215  0.00  0.00    +0.000 A 
ATOM     16  C   UNL     1      43.246   4.447  10.962  0.00  0.00    +0.000 A 
ATOM     17  C   UNL     1      44.521   4.662  10.421  0.00  0.00    +0.000 A 
ATOM     18  C   UNL     1      45.441   5.425  11.161  0.00  0.00    +0.000 A 
BRANCH  17  19
ATOM     19  C   UNL     1      44.892   4.197   9.036  0.00  0.00    +0.000 C 
BRANCH  19  20
ATOM     20  O   UNL     1      45.716   5.134   8.355  0.00  0.00    +0.000 OA
ATOM     21  H   UNL     1      45.268   5.339   7.518  0.00  0.00    +0.000 HD
ENDBRANCH  19  20
ENDBRANCH  17  19
ENDBRANCH  12  13
ENDBRANCH   1  12
TORSDOF 7
ENDMDL
