MODEL 1
REMARK VINA RESULT:    -8.329      0.000      0.000
REMARK INTER + INTRA:         -12.796
REMARK INTER:                 -11.737
REMARK INTRA:                  -1.059
REMARK UNBOUND:                -1.059
REMARK  Name = 
REMARK  7 active torsions:
REMARK  status: ('A' for Active; 'I' for Inactive)
REMARK    1  A    between atoms: C_2  and  C_3
REMARK    2  A    between atoms: C_6  and  N_7
REMARK    3  A    between atoms: N_7  and  C_8
REMARK    4  A    between atoms: C_8  and  C_9
REMARK    5  A    between atoms: C_9  and  C_12
REMARK    6  A    between atoms: C_16  and  O_17
REMARK    7  A    between atoms: O_17  and  C_18
REMARK                            x       y       z     vdW  Elec       q    Type
REMARK                         _______ _______ _______ _____ _____    ______ ____
ROOT
ATOM      1  C   UNL     1      43.896   4.791  12.411  0.00  0.00    +0.000 C 
ATOM      2  F   UNL     1      43.002   5.460  13.200  0.00  0.00    +0.000 F 
ATOM      3  F   UNL     1      43.764   3.473  12.765  0.00  0.00    +0.000 F 
ENDROOT
BRANCH   1   4
ATOM      4  C   UNL     1      45.311   5.298  12.617  0.00  0.00    +0.000 A 
ATOM      5  C   UNL     1      45.895   6.173  11.692  0.00  0.00    +0.000 A 
ATOM      6  C   UNL     1      47.175   6.688  11.917  0.00  0.00    +0.000 A 
ATOM      7  C   UNL     1      47.896   6.328  13.063  0.00  0.00    +0.000 A 
ATOM      8  C   UNL     1      47.338   5.434  13.973  0.00  0.00    +0.000 A 
ATOM      9  C   UNL     1      46.053   4.925  13.749  0.00  0.00    +0.000 A 
BRANCH   8  10
ATOM     10  O   UNL     1      47.917   5.021  15.146  0.00  0.00    +0.000 OA
BRANCH  10  11
ATOM     11  C   UNL     1      47.228   4.086  16.005  0.00  0.00    +0.000 C 
ATOM     12  C   UNL     1      47.146   4.398  17.506  0.00  0.00    +0.000 C 
ATOM     13  O   UNL     1      47.744   3.127  17.856  0.00  0.00    +0.000 OA
ATOM     14  C   UNL     1      48.080   2.890  16.469  0.00  0.00    +0.000 C 
ENDBRANCH  10  11
ENDBRANCH   8  10
ENDBRANCH   1   4
BRANCH   1  15
ATOM     15  C   UNL     1      43.451   4.931  10.934  0.00  0.00    +0.000 C 
BRANCH  15  16
ATOM     16  N   UNL     1      43.484   3.657  10.193  0.00  0.00    +0.000 N 
ATOM     17  H   UNL     1      43.052   2.869  10.678  0.00  0.00    +0.000 HD
BRANCH  16  21
ATOM     18  C   UNL     1      46.576   2.508   7.571  0.00  0.00    +0.000 A 
ATOM     19  C   UNL     1      46.240   3.860   7.693  0.00  0.00    +0.000 A 
ATOM     20  C   UNL     1      45.235   4.253   8.577  0.00  0.00    +0.000 A 
ATOM     21  C   UNL     1      44.561   3.324   9.380  0.00  0.00    +0.000 A 
ATOM     22  C   UNL     1      44.905   1.971   9.238  0.00  0.00    +0.000 A 
ATOM     23  C   UNL     1      45.903   1.563   8.345  0.00  0.00    +0.000 A 
BRANCH  18  25
ATOM     24  N   UNL     1      48.408   1.775   5.895  0.00  0.00    +0.000 NA
ATOM     25  C   UNL     1      47.588   2.105   6.649  0.00  0.00    +0.000 C 
ENDBRANCH  18  25
ENDBRANCH  16  21
ENDBRANCH  15  16
ENDBRANCH   1  15
TORSDOF 7
ENDMDL
MODEL 2
REMARK VINA RESULT:    -7.720      2.510      4.191
REMARK INTER + INTRA:         -11.938
REMARK INTER:                 -11.276
REMARK INTRA:                  -0.662
REMARK UNBOUND:                -1.059
REMARK  Name = 
REMARK  7 active torsions:
REMARK  status: ('A' for Active; 'I' for Inactive)
REMARK    1  A    between atoms: C_2  and  C_3
REMARK    2  A    between atoms: C_6  and  N_7
REMARK    3  A    between atoms: N_7  and  C_8
REMARK    4  A    between atoms: C_8  and  C_9
REMARK    5  A    between atoms: C_9  and  C_12
REMARK    6  A    between atoms: C_16  and  O_17
REMARK    7  A    between atoms: O_17  and  C_18
REMARK                            x       y       z     vdW  Elec       q    Type
REMARK                         _______ _______ _______ _____ _____    ______ ____
ROOT
ATOM      1  C   UNL     1      43.381   4.671  12.694  0.00  0.00    +0.000 C 
ATOM      2  F   UNL     1      42.390   5.571  12.413  0.00  0.00    +0.000 F 
ATOM      3  F   UNL     1      42.973   4.043  13.842  0.00  0.00    +0.000 F 
ENDROOT
BRANCH   1   4
ATOM      4  C   UNL     1      44.723   5.356  12.865  0.00  0.00    +0.000 A 
ATOM      5  C   UNL     1      45.798   4.677  13.454  0.00  0.00    +0.000 A 
ATOM      6  C   UNL     1      47.051   5.289  13.553  0.00  0.00    +0.000 A 
ATOM      7  C   UNL     1      47.248   6.591  13.075  0.00  0.00    +0.000 A 
ATOM      8  C   UNL     1      46.179   7.287  12.518  0.00  0.00    +0.000 A 
ATOM      9  C   UNL     1      44.926   6.670  12.413  0.00  0.00    +0.000 A 
BRANCH   8  10
ATOM     10  O   UNL     1      46.237   8.550  11.986  0.00  0.00    +0.000 OA
BRANCH  10  11
ATOM     11  C   UNL     1      45.113   9.447  12.123  0.00  0.00    +0.000 C 
ATOM     12  C   UNL     1      44.137   9.579  10.946  0.00  0.00    +0.000 C 
ATOM     13  O   UNL     1      44.316  11.014  10.889  0.00  0.00    +0.000 OA
ATOM     14  C   UNL     1      45.425  10.923  11.814  0.00  0.00    +0.000 C 
ENDBRANCH  10  11
ENDBRANCH   8  10
ENDBRANCH   1   4
BRANCH   1  15
ATOM     15  C   UNL     1      43.421   3.613  11.564  0.00  0.00    +0.000 C 
BRANCH  15  16
ATOM     16  N   UNL     1      43.662   4.196  10.231  0.00  0.00    +0.000 N 
ATOM     17  H   UNL     1      42.847   4.641   9.806  0.00  0.00    +0.000 HD
BRANCH  16  21
ATOM     18  C   UNL     1      46.524   2.520   7.632  0.00  0.00    +0.000 A 
ATOM     19  C   UNL     1      45.785   1.686   8.478  0.00  0.00    +0.000 A 
ATOM     20  C   UNL     1      44.818   2.229   9.324  0.00  0.00    +0.000 A 
ATOM     21  C   UNL     1      44.539   3.602   9.331  0.00  0.00    +0.000 A 
ATOM     22  C   UNL     1      45.295   4.424   8.482  0.00  0.00    +0.000 A 
ATOM     23  C   UNL     1      46.276   3.892   7.638  0.00  0.00    +0.000 A 
BRANCH  18  25
ATOM     24  N   UNL     1      48.344   1.517   6.088  0.00  0.00    +0.000 NA
ATOM     25  C   UNL     1      47.529   1.966   6.784  0.00  0.00    +0.000 C 
ENDBRANCH  18  25
ENDBRANCH  16  21
ENDBRANCH  15  16
ENDBRANCH   1  15
TORSDOF 7
ENDMDL
MODEL 3
REMARK VINA RESULT:    -7.399      2.272      3.582
REMARK INTER + INTRA:         -11.486
REMARK INTER:                 -10.643
REMARK INTRA:                  -0.843
REMARK UNBOUND:                -1.059
REMARK  Name = 
REMARK  7 active torsions:
REMARK  status: ('A' for Active; 'I' for Inactive)
REMARK    1  A    between atoms: C_2  and  C_3
REMARK    2  A    between atoms: C_6  and  N_7
REMARK    3  A    between atoms: N_7  and  C_8
REMARK    4  A    between atoms: C_8  and  C_9
REMARK    5  A    between atoms: C_9  and  C_12
REMARK    6  A    between atoms: C_16  and  O_17
REMARK    7  A    between atoms: O_17  and  C_18
REMARK                            x       y       z     vdW  Elec       q    Type
REMARK                         _______ _______ _______ _____ _____    ______ ____
ROOT
ATOM      1  C   UNL     1      43.410   4.846  12.536  0.00  0.00    +0.000 C 
ATOM      2  F   UNL     1      42.622   5.880  12.112  0.00  0.00    +0.000 F 
ATOM      3  F   UNL     1      42.789   4.363  13.657  0.00  0.00    +0.000 F 
ENDROOT
BRANCH   1   4
ATOM      4  C   UNL     1      44.827   5.307  12.823  0.00  0.00    +0.000 A 
ATOM      5  C   UNL     1      45.727   4.467  13.490  0.00  0.00    +0.000 A 
ATOM      6  C   UNL     1      47.050   4.871  13.697  0.00  0.00    +0.000 A 
ATOM      7  C   UNL     1      47.490   6.123  13.251  0.00  0.00    +0.000 A 
ATOM      8  C   UNL     1      46.596   6.980  12.615  0.00  0.00    +0.000 A 
ATOM      9  C   UNL     1      45.274   6.570  12.403  0.00  0.00    +0.000 A 
BRANCH   8  10
ATOM     10  O   UNL     1      46.898   8.216  12.103  0.00  0.00    +0.000 OA
BRANCH  10  11
ATOM     11  C   UNL     1      48.060   8.932  12.575  0.00  0.00    +0.000 C 
ATOM     12  C   UNL     1      47.945  10.447  12.793  0.00  0.00    +0.000 C 
ATOM     13  O   UNL     1      49.066  10.712  11.916  0.00  0.00    +0.000 OA
ATOM     14  C   UNL     1      49.060   9.334  11.475  0.00  0.00    +0.000 C 
ENDBRANCH  10  11
ENDBRANCH   8  10
ENDBRANCH   1   4
BRANCH   1  15
ATOM     15  C   UNL     1      43.382   3.732  11.460  0.00  0.00    +0.000 C 
BRANCH  15  16
ATOM     16  N   UNL     1      43.634   4.234  10.097  0.00  0.00    +0.000 N 
ATOM     17  H   UNL     1      42.795   4.492   9.575  0.00  0.00    +0.000 HD
BRANCH  16  21
ATOM     18  C   UNL     1      46.593   2.569   7.601  0.00  0.00    +0.000 A 
ATOM     19  C   UNL     1      46.395   3.954   7.610  0.00  0.00    +0.000 A 
ATOM     20  C   UNL     1      45.434   4.517   8.450  0.00  0.00    +0.000 A 
ATOM     21  C   UNL     1      44.672   3.728   9.322  0.00  0.00    +0.000 A 
ATOM     22  C   UNL     1      44.879   2.341   9.294  0.00  0.00    +0.000 A 
ATOM     23  C   UNL     1      45.831   1.764   8.446  0.00  0.00    +0.000 A 
BRANCH  18  25
ATOM     24  N   UNL     1      48.344   1.518   6.010  0.00  0.00    +0.000 NA
ATOM     25  C   UNL     1      47.560   1.993   6.724  0.00  0.00    +0.000 C 
ENDBRANCH  18  25
ENDBRANCH  16  21
ENDBRANCH  15  16
ENDBRANCH   1  15
TORSDOF 7
ENDMDL
MODEL 4
REMARK VINA RESULT:    -6.981      1.277      1.737
REMARK INTER + INTRA:         -10.896
REMARK INTER:                  -9.956
REMARK INTRA:                  -0.940
REMARK UNBOUND:                -1.059
REMARK  Name = 
REMARK  7 active torsions:
REMARK  status: ('A' for Active; 'I' for Inactive)
REMARK    1  A    between atoms: C_2  and  C_3
REMARK    2  A    between atoms: C_6  and  N_7
REMARK    3  A    between atoms: N_7  and  C_8
REMARK    4  A    between atoms: C_8  and  C_9
REMARK    5  A    between atoms: C_9  and  C_12
REMARK    6  A    between atoms: C_16  and  O_17
REMARK    7  A    between atoms: O_17  and  C_18
REMARK                            x       y       z     vdW  Elec       q    Type
REMARK                         _______ _______ _______ _____ _____    ______ ____
ROOT
ATOM      1  C   UNL     1      43.341   4.717  12.551  0.00  0.00    +0.000 C 
ATOM      2  F   UNL     1      42.311   5.612  12.644  0.00  0.00    +0.000 F 
ATOM      3  F   UNL     1      43.171   3.870  13.615  0.00  0.00    +0.000 F 
ENDROOT
BRANCH   1   4
ATOM      4  C   UNL     1      44.689   5.413  12.585  0.00  0.00    +0.000 A 
ATOM      5  C   UNL     1      44.938   6.522  11.767  0.00  0.00    +0.000 A 
ATOM      6  C   UNL     1      46.158   7.199  11.847  0.00  0.00    +0.000 A 
ATOM      7  C   UNL     1      47.152   6.773  12.736  0.00  0.00    +0.000 A 
ATOM      8  C   UNL     1      46.929   5.652  13.532  0.00  0.00    +0.000 A 
ATOM      9  C   UNL     1      45.702   4.980  13.455  0.00  0.00    +0.000 A 
BRANCH   8  10
ATOM     10  O   UNL     1      47.798   5.145  14.463  0.00  0.00    +0.000 OA
BRANCH  10  11
ATOM     11  C   UNL     1      48.087   5.890  15.667  0.00  0.00    +0.000 C 
ATOM     12  C   UNL     1      49.440   6.607  15.774  0.00  0.00    +0.000 C 
ATOM     13  O   UNL     1      49.760   5.929  17.013  0.00  0.00    +0.000 OA
ATOM     14  C   UNL     1      48.631   5.043  16.833  0.00  0.00    +0.000 C 
ENDBRANCH  10  11
ENDBRANCH   8  10
ENDBRANCH   1   4
BRANCH   1  15
ATOM     15  C   UNL     1      43.160   3.891  11.253  0.00  0.00    +0.000 C 
BRANCH  15  16
ATOM     16  N   UNL     1      44.284   2.975  10.986  0.00  0.00    +0.000 N 
ATOM     17  H   UNL     1      44.925   2.845  11.770  0.00  0.00    +0.000 HD
BRANCH  16  21
ATOM     18  C   UNL     1      46.300   2.883   7.287  0.00  0.00    +0.000 A 
ATOM     19  C   UNL     1      45.955   1.682   7.916  0.00  0.00    +0.000 A 
ATOM     20  C   UNL     1      45.266   1.702   9.129  0.00  0.00    +0.000 A 
ATOM     21  C   UNL     1      44.876   2.906   9.730  0.00  0.00    +0.000 A 
ATOM     22  C   UNL     1      45.237   4.101   9.089  0.00  0.00    +0.000 A 
ATOM     23  C   UNL     1      45.940   4.093   7.878  0.00  0.00    +0.000 A 
BRANCH  18  25
ATOM     24  N   UNL     1      47.613   2.849   5.056  0.00  0.00    +0.000 NA
ATOM     25  C   UNL     1      47.026   2.861   6.059  0.00  0.00    +0.000 C 
ENDBRANCH  18  25
ENDBRANCH  16  21
ENDBRANCH  15  16
ENDBRANCH   1  15
TORSDOF 7
ENDMDL
MODEL 5
REMARK VINA RESULT:    -6.888      3.674      5.404
REMARK INTER + INTRA:         -10.765
REMARK INTER:                  -9.988
REMARK INTRA:                  -0.778
REMARK UNBOUND:                -1.059
REMARK  Name = 
REMARK  7 active torsions:
REMARK  status: ('A' for Active; 'I' for Inactive)
REMARK    1  A    between atoms: C_2  and  C_3
REMARK    2  A    between atoms: C_6  and  N_7
REMARK    3  A    between atoms: N_7  and  C_8
REMARK    4  A    between atoms: C_8  and  C_9
REMARK    5  A    between atoms: C_9  and  C_12
REMARK    6  A    between atoms: C_16  and  O_17
REMARK    7  A    between atoms: O_17  and  C_18
REMARK                            x       y       z     vdW  Elec       q    Type
REMARK                         _______ _______ _______ _____ _____    ______ ____
ROOT
ATOM      1  C   UNL     1      45.002   5.844  12.043  0.00  0.00    +0.000 C 
ATOM      2  F   UNL     1      44.426   5.488  13.231  0.00  0.00    +0.000 F 
ATOM      3  F   UNL     1      46.024   4.949  11.863  0.00  0.00    +0.000 F 
ENDROOT
BRANCH   1   4
ATOM      4  C   UNL     1      45.497   7.277  12.071  0.00  0.00    +0.000 A 
ATOM      5  C   UNL     1      46.815   7.568  12.445  0.00  0.00    +0.000 A 
ATOM      6  C   UNL     1      47.287   8.883  12.409  0.00  0.00    +0.000 A 
ATOM      7  C   UNL     1      46.446   9.930  12.009  0.00  0.00    +0.000 A 
ATOM      8  C   UNL     1      45.124   9.658  11.667  0.00  0.00    +0.000 A 
ATOM      9  C   UNL     1      44.657   8.338  11.697  0.00  0.00    +0.000 A 
BRANCH   8  10
ATOM     10  O   UNL     1      44.205  10.578  11.231  0.00  0.00    +0.000 OA
BRANCH  10  11
ATOM     11  C   UNL     1      43.065  10.151  10.454  0.00  0.00    +0.000 C 
ATOM     12  C   UNL     1      42.916  10.684   9.022  0.00  0.00    +0.000 C 
ATOM     13  O   UNL     1      41.592  11.200   9.295  0.00  0.00    +0.000 OA
ATOM     14  C   UNL     1      41.775  10.953  10.709  0.00  0.00    +0.000 C 
ENDBRANCH  10  11
ENDBRANCH   8  10
ENDBRANCH   1   4
BRANCH   1  15
ATOM     15  C   UNL     1      43.971   5.620  10.909  0.00  0.00    +0.000 C 
BRANCH  15  16
ATOM     16  N   UNL     1      43.803   4.200  10.548  0.00  0.00    +0.000 N 
ATOM     17  H   UNL     1      43.545   3.589  11.324  0.00  0.00    +0.000 HD
BRANCH  16  21
ATOM     18  C   UNL     1      46.429   2.512   7.717  0.00  0.00    +0.000 A 
ATOM     19  C   UNL     1      45.723   1.677   8.590  0.00  0.00    +0.000 A 
ATOM     20  C   UNL     1      44.834   2.225   9.514  0.00  0.00    +0.000 A 
ATOM     21  C   UNL     1      44.598   3.605   9.575  0.00  0.00    +0.000 A 
ATOM     22  C   UNL     1      45.320   4.428   8.698  0.00  0.00    +0.000 A 
ATOM     23  C   UNL     1      46.226   3.891   7.775  0.00  0.00    +0.000 A 
BRANCH  18  25
ATOM     24  N   UNL     1      48.116   1.497   6.036  0.00  0.00    +0.000 NA
ATOM     25  C   UNL     1      47.356   1.953   6.788  0.00  0.00    +0.000 C 
ENDBRANCH  18  25
ENDBRANCH  16  21
ENDBRANCH  15  16
ENDBRANCH   1  15
TORSDOF 7
ENDMDL
MODEL 6
REMARK VINA RESULT:    -6.682      1.667      2.271
REMARK INTER + INTRA:         -10.475
REMARK INTER:                  -9.638
REMARK INTRA:                  -0.837
REMARK UNBOUND:                -1.059
REMARK  Name = 
REMARK  7 active torsions:
REMARK  status: ('A' for Active; 'I' for Inactive)
REMARK    1  A    between atoms: C_2  and  C_3
REMARK    2  A    between atoms: C_6  and  N_7
REMARK    3  A    between atoms: N_7  and  C_8
REMARK    4  A    between atoms: C_8  and  C_9
REMARK    5  A    between atoms: C_9  and  C_12
REMARK    6  A    between atoms: C_16  and  O_17
REMARK    7  A    between atoms: O_17  and  C_18
REMARK                            x       y       z     vdW  Elec       q    Type
REMARK                         _______ _______ _______ _____ _____    ______ ____
ROOT
ATOM      1  C   UNL     1      45.146   7.024  11.694  0.00  0.00    +0.000 C 
ATOM      2  F   UNL     1      45.644   7.146  10.427  0.00  0.00    +0.000 F 
ATOM      3  F   UNL     1      44.425   8.171  11.904  0.00  0.00    +0.000 F 
ENDROOT
BRANCH   1   4
ATOM      4  C   UNL     1      46.255   6.853  12.715  0.00  0.00    +0.000 A 
ATOM      5  C   UNL     1      47.091   7.928  13.044  0.00  0.00    +0.000 A 
ATOM      6  C   UNL     1      48.071   7.784  14.030  0.00  0.00    +0.000 A 
ATOM      7  C   UNL     1      48.239   6.563  14.695  0.00  0.00    +0.000 A 
ATOM      8  C   UNL     1      47.436   5.478  14.354  0.00  0.00    +0.000 A 
ATOM      9  C   UNL     1      46.450   5.627  13.370  0.00  0.00    +0.000 A 
BRANCH   8  10
ATOM     10  O   UNL     1      47.471   4.240  14.941  0.00  0.00    +0.000 OA
BRANCH  10  11
ATOM     11  C   UNL     1      48.053   4.076  16.253  0.00  0.00    +0.000 C 
ATOM     12  C   UNL     1      48.407   2.658  16.723  0.00  0.00    +0.000 C 
ATOM     13  O   UNL     1      47.602   2.795  17.918  0.00  0.00    +0.000 OA
ATOM     14  C   UNL     1      47.034   4.024  17.407  0.00  0.00    +0.000 C 
ENDBRANCH  10  11
ENDBRANCH   8  10
ENDBRANCH   1   4
BRANCH   1  15
ATOM     15  C   UNL     1      44.157   5.832  11.723  0.00  0.00    +0.000 C 
BRANCH  15  16
ATOM     16  N   UNL     1      43.722   5.406  10.380  0.00  0.00    +0.000 N 
ATOM     17  H   UNL     1      42.731   5.555  10.185  0.00  0.00    +0.000 HD
BRANCH  16  21
ATOM     18  C   UNL     1      45.651   2.124   8.575  0.00  0.00    +0.000 A 
ATOM     19  C   UNL     1      44.816   1.914   9.677  0.00  0.00    +0.000 A 
ATOM     20  C   UNL     1      44.154   2.991  10.266  0.00  0.00    +0.000 A 
ATOM     21  C   UNL     1      44.278   4.292   9.761  0.00  0.00    +0.000 A 
ATOM     22  C   UNL     1      45.126   4.485   8.660  0.00  0.00    +0.000 A 
ATOM     23  C   UNL     1      45.806   3.414   8.069  0.00  0.00    +0.000 A 
BRANCH  18  25
ATOM     24  N   UNL     1      46.914   0.133   7.503  0.00  0.00    +0.000 NA
ATOM     25  C   UNL     1      46.346   1.025   7.987  0.00  0.00    +0.000 C 
ENDBRANCH  18  25
ENDBRANCH  16  21
ENDBRANCH  15  16
ENDBRANCH   1  15
TORSDOF 7
ENDMDL
MODEL 7
REMARK VINA RESULT:    -6.093      3.584      7.215
REMARK INTER + INTRA:          -9.645
REMARK INTER:                  -8.735
REMARK INTRA:                  -0.910
REMARK UNBOUND:                -1.059
REMARK  Name = 
REMARK  7 active torsions:
REMARK  status: ('A' for Active; 'I' for Inactive)
REMARK    1  A    between atoms: C_2  and  C_3
REMARK    2  A    between atoms: C_6  and  N_7
REMARK    3  A    between atoms: N_7  and  C_8
REMARK    4  A    between atoms: C_8  and  C_9
REMARK    5  A    between atoms: C_9  and  C_12
REMARK    6  A    between atoms: C_16  and  O_17
REMARK    7  A    between atoms: O_17  and  C_18
REMARK                            x       y       z     vdW  Elec       q    Type
REMARK                         _______ _______ _______ _____ _____    ______ ____
ROOT
ATOM      1  C   UNL     1      45.463   7.244  11.950  0.00  0.00    +0.000 C 
ATOM      2  F   UNL     1      45.239   7.894  13.133  0.00  0.00    +0.000 F 
ATOM      3  F   UNL     1      45.075   8.131  10.980  0.00  0.00    +0.000 F 
ENDROOT
BRANCH   1   4
ATOM      4  C   UNL     1      44.689   5.942  11.876  0.00  0.00    +0.000 A 
ATOM      5  C   UNL     1      43.797   5.584  12.895  0.00  0.00    +0.000 A 
ATOM      6  C   UNL     1      43.039   4.414  12.793  0.00  0.00    +0.000 A 
ATOM      7  C   UNL     1      43.168   3.577  11.677  0.00  0.00    +0.000 A 
ATOM      8  C   UNL     1      44.075   3.905  10.673  0.00  0.00    +0.000 A 
ATOM      9  C   UNL     1      44.828   5.082  10.775  0.00  0.00    +0.000 A 
BRANCH   8  10
ATOM     10  O   UNL     1      44.281   3.196   9.517  0.00  0.00    +0.000 OA
BRANCH  10  11
ATOM     11  C   UNL     1      45.609   3.085   8.961  0.00  0.00    +0.000 C 
ATOM     12  C   UNL     1      45.845   3.586   7.530  0.00  0.00    +0.000 C 
ATOM     13  O   UNL     1      46.375   2.305   7.112  0.00  0.00    +0.000 OA
ATOM     14  C   UNL     1      45.941   1.708   8.356  0.00  0.00    +0.000 C 
ENDBRANCH  10  11
ENDBRANCH   8  10
ENDBRANCH   1   4
BRANCH   1  15
ATOM     15  C   UNL     1      46.986   7.011  11.797  0.00  0.00    +0.000 C 
BRANCH  15  16
ATOM     16  N   UNL     1      47.748   7.326  13.019  0.00  0.00    +0.000 N 
ATOM     17  H   UNL     1      48.565   7.921  12.871  0.00  0.00    +0.000 HD
BRANCH  16  21
ATOM     18  C   UNL     1      48.008   4.693  16.298  0.00  0.00    +0.000 A 
ATOM     19  C   UNL     1      47.269   4.322  15.170  0.00  0.00    +0.000 A 
ATOM     20  C   UNL     1      47.197   5.176  14.070  0.00  0.00    +0.000 A 
ATOM     21  C   UNL     1      47.878   6.400  14.048  0.00  0.00    +0.000 A 
ATOM     22  C   UNL     1      48.608   6.760  15.191  0.00  0.00    +0.000 A 
ATOM     23  C   UNL     1      48.677   5.917  16.306  0.00  0.00    +0.000 A 
BRANCH  18  25
ATOM     24  N   UNL     1      48.110   3.128  18.358  0.00  0.00    +0.000 NA
ATOM     25  C   UNL     1      48.062   3.829  17.432  0.00  0.00    +0.000 C 
ENDBRANCH  18  25
ENDBRANCH  16  21
ENDBRANCH  15  16
ENDBRANCH   1  15
TORSDOF 7
ENDMDL
MODEL 8
REMARK VINA RESULT:    -5.882      2.787      4.263
REMARK INTER + INTRA:          -9.348
REMARK INTER:                  -8.304
REMARK INTRA:                  -1.044
REMARK UNBOUND:                -1.059
REMARK  Name = 
REMARK  7 active torsions:
REMARK  status: ('A' for Active; 'I' for Inactive)
REMARK    1  A    between atoms: C_2  and  C_3
REMARK    2  A    between atoms: C_6  and  N_7
REMARK    3  A    between atoms: N_7  and  C_8
REMARK    4  A    between atoms: C_8  and  C_9
REMARK    5  A    between atoms: C_9  and  C_12
REMARK    6  A    between atoms: C_16  and  O_17
REMARK    7  A    between atoms: O_17  and  C_18
REMARK                            x       y       z     vdW  Elec       q    Type
REMARK                         _______ _______ _______ _____ _____    ______ ____
ROOT
ATOM      1  C   UNL     1      47.786   8.103  12.786  0.00  0.00    +0.000 C 
ATOM      2  F   UNL     1      48.092   7.034  11.990  0.00  0.00    +0.000 F 
ATOM      3  F   UNL     1      48.429   9.169  12.213  0.00  0.00    +0.000 F 
ENDROOT
BRANCH   1   4
ATOM      4  C   UNL     1      48.227   7.875  14.220  0.00  0.00    +0.000 A 
ATOM      5  C   UNL     1      48.250   8.935  15.135  0.00  0.00    +0.000 A 
ATOM      6  C   UNL     1      48.597   8.709  16.470  0.00  0.00    +0.000 A 
ATOM      7  C   UNL     1      48.936   7.423  16.910  0.00  0.00    +0.000 A 
ATOM      8  C   UNL     1      48.948   6.367  16.002  0.00  0.00    +0.000 A 
ATOM      9  C   UNL     1      48.593   6.595  14.667  0.00  0.00    +0.000 A 
BRANCH   8  10
ATOM     10  O   UNL     1      49.229   5.058  16.301  0.00  0.00    +0.000 OA
BRANCH  10  11
ATOM     11  C   UNL     1      48.507   4.383  17.353  0.00  0.00    +0.000 C 
ATOM     12  C   UNL     1      48.314   2.863  17.248  0.00  0.00    +0.000 C 
ATOM     13  O   UNL     1      46.876   2.985  17.363  0.00  0.00    +0.000 OA
ATOM     14  C   UNL     1      46.974   4.420  17.209  0.00  0.00    +0.000 C 
ENDBRANCH  10  11
ENDBRANCH   8  10
ENDBRANCH   1   4
BRANCH   1  15
ATOM     15  C   UNL     1      46.261   8.364  12.695  0.00  0.00    +0.000 C 
BRANCH  15  16
ATOM     16  N   UNL     1      45.449   7.253  13.222  0.00  0.00    +0.000 N 
ATOM     17  H   UNL     1      45.562   7.078  14.222  0.00  0.00    +0.000 HD
BRANCH  16  21
ATOM     18  C   UNL     1      44.890   3.881  10.759  0.00  0.00    +0.000 A 
ATOM     19  C   UNL     1      45.147   3.706  12.122  0.00  0.00    +0.000 A 
ATOM     20  C   UNL     1      45.309   4.816  12.951  0.00  0.00    +0.000 A 
ATOM     21  C   UNL     1      45.190   6.122  12.457  0.00  0.00    +0.000 A 
ATOM     22  C   UNL     1      44.939   6.278  11.085  0.00  0.00    +0.000 A 
ATOM     23  C   UNL     1      44.788   5.171  10.242  0.00  0.00    +0.000 A 
BRANCH  18  25
ATOM     24  N   UNL     1      44.633   1.821   9.211  0.00  0.00    +0.000 NA
ATOM     25  C   UNL     1      44.747   2.744   9.909  0.00  0.00    +0.000 C 
ENDBRANCH  18  25
ENDBRANCH  16  21
ENDBRANCH  15  16
ENDBRANCH   1  15
TORSDOF 7
ENDMDL
MODEL 9
REMARK VINA RESULT:    -5.769      4.112      7.870
REMARK INTER + INTRA:          -9.189
REMARK INTER:                  -8.667
REMARK INTRA:                  -0.522
REMARK UNBOUND:                -1.059
REMARK  Name = 
REMARK  7 active torsions:
REMARK  status: ('A' for Active; 'I' for Inactive)
REMARK    1  A    between atoms: C_2  and  C_3
REMARK    2  A    between atoms: C_6  and  N_7
REMARK    3  A    between atoms: N_7  and  C_8
REMARK    4  A    between atoms: C_8  and  C_9
REMARK    5  A    between atoms: C_9  and  C_12
REMARK    6  A    between atoms: C_16  and  O_17
REMARK    7  A    between atoms: O_17  and  C_18
REMARK                            x       y       z     vdW  Elec       q    Type
REMARK                         _______ _______ _______ _____ _____    ______ ____
ROOT
ATOM      1  C   UNL     1      46.525   7.074  12.494  0.00  0.00    +0.000 C 
ATOM      2  F   UNL     1      45.874   7.846  13.416  0.00  0.00    +0.000 F 
ATOM      3  F   UNL     1      47.190   7.965  11.693  0.00  0.00    +0.000 F 
ENDROOT
BRANCH   1   4
ATOM      4  C   UNL     1      45.557   6.211  11.707  0.00  0.00    +0.000 A 
ATOM      5  C   UNL     1      44.294   5.902  12.227  0.00  0.00    +0.000 A 
ATOM      6  C   UNL     1      43.381   5.160  11.473  0.00  0.00    +0.000 A 
ATOM      7  C   UNL     1      43.719   4.705  10.192  0.00  0.00    +0.000 A 
ATOM      8  C   UNL     1      44.983   4.978   9.677  0.00  0.00    +0.000 A 
ATOM      9  C   UNL     1      45.893   5.728  10.432  0.00  0.00    +0.000 A 
BRANCH   8  10
ATOM     10  O   UNL     1      45.434   4.621   8.432  0.00  0.00    +0.000 OA
BRANCH  10  11
ATOM     11  C   UNL     1      45.212   3.283   7.936  0.00  0.00    +0.000 C 
ATOM     12  C   UNL     1      45.504   2.100   8.871  0.00  0.00    +0.000 C 
ATOM     13  O   UNL     1      46.408   1.499   7.913  0.00  0.00    +0.000 OA
ATOM     14  C   UNL     1      46.374   2.701   7.109  0.00  0.00    +0.000 C 
ENDBRANCH  10  11
ENDBRANCH   8  10
ENDBRANCH   1   4
BRANCH   1  15
ATOM     15  C   UNL     1      47.584   6.215  13.229  0.00  0.00    +0.000 C 
BRANCH  15  16
ATOM     16  N   UNL     1      47.115   5.701  14.529  0.00  0.00    +0.000 N 
ATOM     17  H   UNL     1      46.161   5.970  14.775  0.00  0.00    +0.000 HD
BRANCH  16  21
ATOM     18  C   UNL     1      49.836   5.068  17.683  0.00  0.00    +0.000 A 
ATOM     19  C   UNL     1      49.981   6.189  16.860  0.00  0.00    +0.000 A 
ATOM     20  C   UNL     1      49.071   6.420  15.828  0.00  0.00    +0.000 A 
ATOM     21  C   UNL     1      47.982   5.567  15.607  0.00  0.00    +0.000 A 
ATOM     22  C   UNL     1      47.857   4.443  16.438  0.00  0.00    +0.000 A 
ATOM     23  C   UNL     1      48.771   4.194  17.468  0.00  0.00    +0.000 A 
BRANCH  18  25
ATOM     24  N   UNL     1      51.556   4.621  19.566  0.00  0.00    +0.000 NA
ATOM     25  C   UNL     1      50.781   4.820  18.723  0.00  0.00    +0.000 C 
ENDBRANCH  18  25
ENDBRANCH  16  21
ENDBRANCH  15  16
ENDBRANCH   1  15
TORSDOF 7
ENDMDL
