MODEL 1
REMARK VINA RESULT:    -7.462      0.000      0.000
REMARK INTER + INTRA:         -13.273
REMARK INTER:                 -12.043
REMARK INTRA:                  -1.231
REMARK UNBOUND:                -1.231
REMARK  Name = 
REMARK  11 active torsions:
REMARK  status: ('A' for Active; 'I' for Inactive)
REMARK    1  A    between atoms: N_1  and  C_2
REMARK    2  A    between atoms: C_2  and  C_3
REMARK    3  A    between atoms: C_3  and  N_4
REMARK    4  A    between atoms: N_4  and  C_5
REMARK    5  A    between atoms: C_5  and  C_6
REMARK    6  A    between atoms: C_5  and  C_20
REMARK    7  A    between atoms: C_6  and  C_7
REMARK    8  A    between atoms: C_10  and  C_11
REMARK    9  A    between atoms: C_11  and  N_12
REMARK   10  A    between atoms: N_12  and  C_13
REMARK   11  A    between atoms: C_20  and  C_22
REMARK                            x       y       z     vdW  Elec       q    Type
REMARK                         _______ _______ _______ _____ _____    ______ ____
ROOT
ATOM      1  C   UNL     1      48.267   5.560  16.052  0.00  0.00    +0.000 C 
ENDROOT
BRANCH   1   2
ATOM      2  N   UNL     1      49.391   6.198  15.319  0.00  0.00    +0.000 NA
ATOM      3  H   UNL     1      50.266   5.736  15.573  0.00  0.00    +0.000 HD
BRANCH   2   4
ATOM      4  C   UNL     1      49.536   7.649  15.432  0.00  0.00    +0.000 C 
BRANCH   4   5
ATOM      5  C   UNL     1      48.471   8.475  16.189  0.00  0.00    +0.000 C 
BRANCH   5   6
ATOM      6  N   UNL     1      47.536   9.067  15.226  0.00  0.00    +0.000 NA
ATOM      7  H   UNL     1      46.803   9.582  15.710  0.00  0.00    +0.000 HD
ATOM      8  H   UNL     1      47.068   8.324  14.706  0.00  0.00    +0.000 HD
ENDBRANCH   5   6
ENDBRANCH   4   5
ENDBRANCH   2   4
ENDBRANCH   1   2
BRANCH   1   9
ATOM      9  C   UNL     1      48.783   5.034  17.419  0.00  0.00    +0.000 C 
ATOM     10  O   UNL     1      47.989   4.856  18.352  0.00  0.00    +0.000 OA
BRANCH   9  11
ATOM     11  C   UNL     1      50.194   4.594  17.609  0.00  0.00    +0.000 A 
ATOM     12  C   UNL     1      51.126   5.512  18.087  0.00  0.00    +0.000 A 
ATOM     13  S   UNL     1      52.648   4.834  18.445  0.00  0.00    +0.000 S 
ATOM     14  C   UNL     1      52.125   3.291  17.970  0.00  0.00    +0.000 A 
ATOM     15  N   UNL     1      52.936   2.208  18.121  0.00  0.00    +0.000 NA
ATOM     16  C   UNL     1      52.388   1.087  17.797  0.00  0.00    +0.000 A 
ATOM     17  N   UNL     1      51.134   0.946  17.291  0.00  0.00    +0.000 N 
ATOM     18  C   UNL     1      50.374   2.033  16.928  0.00  0.00    +0.000 A 
ATOM     19  O   UNL     1      49.429   1.873  16.170  0.00  0.00    +0.000 OA
ATOM     20  C   UNL     1      50.839   3.304  17.452  0.00  0.00    +0.000 A 
ATOM     21  H   UNL     1      50.806   0.060  16.944  0.00  0.00    +0.000 HD
ENDBRANCH   9  11
ENDBRANCH   1   9
BRANCH   1  22
ATOM     22  C   UNL     1      47.431   4.478  15.310  0.00  0.00    +0.000 C 
BRANCH  22  23
ATOM     23  C   UNL     1      46.668   4.755  14.031  0.00  0.00    +0.000 A 
ATOM     24  C   UNL     1      46.004   3.684  13.401  0.00  0.00    +0.000 A 
ATOM     25  C   UNL     1      45.393   3.840  12.156  0.00  0.00    +0.000 A 
ATOM     26  C   UNL     1      45.355   5.094  11.542  0.00  0.00    +0.000 A 
ATOM     27  C   UNL     1      45.867   6.195  12.249  0.00  0.00    +0.000 A 
ATOM     28  C   UNL     1      46.533   6.024  13.473  0.00  0.00    +0.000 A 
BRANCH  26  29
ATOM     29  C   UNL     1      44.796   5.250  10.144  0.00  0.00    +0.000 C 
BRANCH  29  30
ATOM     30  N   UNL     1      45.671   4.618   9.169  0.00  0.00    +0.000 NA
ATOM     31  H   UNL     1      46.310   3.996   9.649  0.00  0.00    +0.000 HD
BRANCH  30  32
ATOM     32  C   UNL     1      45.007   3.935   8.080  0.00  0.00    +0.000 C 
ATOM     33  C   UNL     1      46.040   3.257   7.181  0.00  0.00    +0.000 C 
ATOM     34  C   UNL     1      46.445   2.013   7.965  0.00  0.00    +0.000 C 
ATOM     35  C   UNL     1      45.235   1.715   8.844  0.00  0.00    +0.000 C 
ATOM     36  N   UNL     1      44.277   2.779   8.560  0.00  0.00    +0.000 NA
ATOM     37  H   UNL     1      43.681   2.992   9.351  0.00  0.00    +0.000 HD
ENDBRANCH  30  32
ENDBRANCH  29  30
ENDBRANCH  26  29
ENDBRANCH  22  23
ENDBRANCH   1  22
TORSDOF 11
ENDMDL
MODEL 2
REMARK VINA RESULT:    -7.229      2.836      4.314
REMARK INTER + INTRA:         -12.898
REMARK INTER:                 -11.188
REMARK INTRA:                  -1.710
REMARK UNBOUND:                -1.231
REMARK  Name = 
REMARK  11 active torsions:
REMARK  status: ('A' for Active; 'I' for Inactive)
REMARK    1  A    between atoms: N_1  and  C_2
REMARK    2  A    between atoms: C_2  and  C_3
REMARK    3  A    between atoms: C_3  and  N_4
REMARK    4  A    between atoms: N_4  and  C_5
REMARK    5  A    between atoms: C_5  and  C_6
REMARK    6  A    between atoms: C_5  and  C_20
REMARK    7  A    between atoms: C_6  and  C_7
REMARK    8  A    between atoms: C_10  and  C_11
REMARK    9  A    between atoms: C_11  and  N_12
REMARK   10  A    between atoms: N_12  and  C_13
REMARK   11  A    between atoms: C_20  and  C_22
REMARK                            x       y       z     vdW  Elec       q    Type
REMARK                         _______ _______ _______ _____ _____    ______ ____
ROOT
ATOM      1  C   UNL     1      45.821   7.336  12.871  0.00  0.00    +0.000 C 
ENDROOT
BRANCH   1   2
ATOM      2  N   UNL     1      45.843   8.351  11.787  0.00  0.00    +0.000 NA
ATOM      3  H   UNL     1      46.797   8.452  11.437  0.00  0.00    +0.000 HD
BRANCH   2   4
ATOM      4  C   UNL     1      45.271   9.665  12.079  0.00  0.00    +0.000 C 
BRANCH   4   5
ATOM      5  C   UNL     1      43.808   9.976  11.685  0.00  0.00    +0.000 C 
BRANCH   5   6
ATOM      6  N   UNL     1      43.331   8.963  10.737  0.00  0.00    +0.000 NA
ATOM      7  H   UNL     1      43.316   9.338   9.790  0.00  0.00    +0.000 HD
ATOM      8  H   UNL     1      42.367   8.716  10.962  0.00  0.00    +0.000 HD
ENDBRANCH   5   6
ENDBRANCH   4   5
ENDBRANCH   2   4
ENDBRANCH   1   2
BRANCH   1   9
ATOM      9  C   UNL     1      47.233   6.701  13.005  0.00  0.00    +0.000 C 
ATOM     10  O   UNL     1      47.913   6.488  11.993  0.00  0.00    +0.000 OA
BRANCH   9  11
ATOM     11  C   UNL     1      47.865   6.467  14.334  0.00  0.00    +0.000 A 
ATOM     12  C   UNL     1      48.559   7.512  14.942  0.00  0.00    +0.000 A 
ATOM     13  S   UNL     1      49.061   7.176  16.536  0.00  0.00    +0.000 S 
ATOM     14  C   UNL     1      48.379   5.623  16.475  0.00  0.00    +0.000 A 
ATOM     15  N   UNL     1      48.375   4.825  17.577  0.00  0.00    +0.000 NA
ATOM     16  C   UNL     1      47.755   3.705  17.418  0.00  0.00    +0.000 A 
ATOM     17  N   UNL     1      47.186   3.284  16.257  0.00  0.00    +0.000 N 
ATOM     18  C   UNL     1      47.359   3.968  15.076  0.00  0.00    +0.000 A 
ATOM     19  O   UNL     1      47.144   3.395  14.019  0.00  0.00    +0.000 OA
ATOM     20  C   UNL     1      47.860   5.322  15.224  0.00  0.00    +0.000 A 
ATOM     21  H   UNL     1      46.823   2.350  16.161  0.00  0.00    +0.000 HD
ENDBRANCH   9  11
ENDBRANCH   1   9
BRANCH   1  22
ATOM     22  C   UNL     1      44.714   6.243  12.828  0.00  0.00    +0.000 C 
BRANCH  22  23
ATOM     23  C   UNL     1      44.664   5.158  11.772  0.00  0.00    +0.000 A 
ATOM     24  C   UNL     1      44.128   3.904  12.124  0.00  0.00    +0.000 A 
ATOM     25  C   UNL     1      44.169   2.822  11.243  0.00  0.00    +0.000 A 
ATOM     26  C   UNL     1      44.673   2.986   9.950  0.00  0.00    +0.000 A 
ATOM     27  C   UNL     1      45.049   4.276   9.543  0.00  0.00    +0.000 A 
ATOM     28  C   UNL     1      45.062   5.348  10.451  0.00  0.00    +0.000 A 
BRANCH  26  29
ATOM     29  C   UNL     1      44.826   1.796   9.027  0.00  0.00    +0.000 C 
BRANCH  29  30
ATOM     30  N   UNL     1      46.207   1.659   8.592  0.00  0.00    +0.000 NA
ATOM     31  H   UNL     1      46.676   0.979   9.180  0.00  0.00    +0.000 HD
BRANCH  30  32
ATOM     32  C   UNL     1      46.396   1.346   7.193  0.00  0.00    +0.000 C 
ATOM     33  C   UNL     1      45.937   2.518   6.328  0.00  0.00    +0.000 C 
ATOM     34  C   UNL     1      47.075   3.527   6.449  0.00  0.00    +0.000 C 
ATOM     35  C   UNL     1      48.298   2.675   6.770  0.00  0.00    +0.000 C 
ATOM     36  N   UNL     1      47.805   1.304   6.855  0.00  0.00    +0.000 NA
ATOM     37  H   UNL     1      48.345   0.731   7.492  0.00  0.00    +0.000 HD
ENDBRANCH  30  32
ENDBRANCH  29  30
ENDBRANCH  26  29
ENDBRANCH  22  23
ENDBRANCH   1  22
TORSDOF 11
ENDMDL
MODEL 3
REMARK VINA RESULT:    -7.160      2.839      3.648
REMARK INTER + INTRA:         -12.786
REMARK INTER:                 -10.709
REMARK INTRA:                  -2.077
REMARK UNBOUND:                -1.231
REMARK  Name = 
REMARK  11 active torsions:
REMARK  status: ('A' for Active; 'I' for Inactive)
REMARK    1  A    between atoms: N_1  and  C_2
REMARK    2  A    between atoms: C_2  and  C_3
REMARK    3  A    between atoms: C_3  and  N_4
REMARK    4  A    between atoms: N_4  and  C_5
REMARK    5  A    between atoms: C_5  and  C_6
REMARK    6  A    between atoms: C_5  and  C_20
REMARK    7  A    between atoms: C_6  and  C_7
REMARK    8  A    between atoms: C_10  and  C_11
REMARK    9  A    between atoms: C_11  and  N_12
REMARK   10  A    between atoms: N_12  and  C_13
REMARK   11  A    between atoms: C_20  and  C_22
REMARK                            x       y       z     vdW  Elec       q    Type
REMARK                         _______ _______ _______ _____ _____    ______ ____
ROOT
ATOM      1  C   UNL     1      47.902   8.364  13.175  0.00  0.00    +0.000 C 
ENDROOT
BRANCH   1   2
ATOM      2  N   UNL     1      48.648   8.975  12.045  0.00  0.00    +0.000 NA
ATOM      3  H   UNL     1      49.088   8.237  11.492  0.00  0.00    +0.000 HD
BRANCH   2   4
ATOM      4  C   UNL     1      49.625  10.016  12.364  0.00  0.00    +0.000 C 
BRANCH   4   5
ATOM      5  C   UNL     1      50.955   9.641  13.058  0.00  0.00    +0.000 C 
BRANCH   5   6
ATOM      6  N   UNL     1      51.070  10.374  14.324  0.00  0.00    +0.000 NA
ATOM      7  H   UNL     1      51.973  10.196  14.760  0.00  0.00    +0.000 HD
ATOM      8  H   UNL     1      50.365  10.034  14.978  0.00  0.00    +0.000 HD
ENDBRANCH   5   6
ENDBRANCH   4   5
ENDBRANCH   2   4
ENDBRANCH   1   2
BRANCH   1   9
ATOM      9  C   UNL     1      48.589   7.032  13.580  0.00  0.00    +0.000 C 
ATOM     10  O   UNL     1      49.139   6.333  12.718  0.00  0.00    +0.000 OA
BRANCH   9  11
ATOM     11  C   UNL     1      48.737   6.627  15.006  0.00  0.00    +0.000 A 
ATOM     12  C   UNL     1      49.438   7.463  15.873  0.00  0.00    +0.000 A 
ATOM     13  S   UNL     1      49.365   6.986  17.508  0.00  0.00    +0.000 S 
ATOM     14  C   UNL     1      48.401   5.643  17.123  0.00  0.00    +0.000 A 
ATOM     15  N   UNL     1      47.897   4.847  18.106  0.00  0.00    +0.000 NA
ATOM     16  C   UNL     1      47.117   3.913  17.682  0.00  0.00    +0.000 A 
ATOM     17  N   UNL     1      46.832   3.663  16.376  0.00  0.00    +0.000 N 
ATOM     18  C   UNL     1      47.491   4.308  15.355  0.00  0.00    +0.000 A 
ATOM     19  O   UNL     1      47.471   3.824  14.234  0.00  0.00    +0.000 OA
ATOM     20  C   UNL     1      48.216   5.500  15.755  0.00  0.00    +0.000 A 
ATOM     21  H   UNL     1      46.313   2.845  16.101  0.00  0.00    +0.000 HD
ENDBRANCH   9  11
ENDBRANCH   1   9
BRANCH   1  22
ATOM     22  C   UNL     1      46.364   8.181  13.020  0.00  0.00    +0.000 C 
BRANCH  22  23
ATOM     23  C   UNL     1      45.735   6.942  12.415  0.00  0.00    +0.000 A 
ATOM     24  C   UNL     1      44.910   6.143  13.230  0.00  0.00    +0.000 A 
ATOM     25  C   UNL     1      44.405   4.923  12.778  0.00  0.00    +0.000 A 
ATOM     26  C   UNL     1      44.642   4.506  11.465  0.00  0.00    +0.000 A 
ATOM     27  C   UNL     1      45.320   5.382  10.603  0.00  0.00    +0.000 A 
ATOM     28  C   UNL     1      45.878   6.579  11.078  0.00  0.00    +0.000 A 
BRANCH  26  29
ATOM     29  C   UNL     1      44.195   3.135  11.001  0.00  0.00    +0.000 C 
BRANCH  29  30
ATOM     30  N   UNL     1      45.225   2.509  10.188  0.00  0.00    +0.000 NA
ATOM     31  H   UNL     1      45.699   1.802  10.737  0.00  0.00    +0.000 HD
BRANCH  30  32
ATOM     32  C   UNL     1      44.782   1.966   8.923  0.00  0.00    +0.000 C 
ATOM     33  C   UNL     1      44.722   3.071   7.871  0.00  0.00    +0.000 C 
ATOM     34  C   UNL     1      46.181   3.283   7.482  0.00  0.00    +0.000 C 
ATOM     35  C   UNL     1      46.847   1.946   7.785  0.00  0.00    +0.000 C 
ATOM     36  N   UNL     1      45.793   1.104   8.344  0.00  0.00    +0.000 NA
ATOM     37  H   UNL     1      46.145   0.417   8.998  0.00  0.00    +0.000 HD
ENDBRANCH  30  32
ENDBRANCH  29  30
ENDBRANCH  26  29
ENDBRANCH  22  23
ENDBRANCH   1  22
TORSDOF 11
ENDMDL
MODEL 4
REMARK VINA RESULT:    -6.957      1.574      2.229
REMARK INTER + INTRA:         -12.458
REMARK INTER:                 -10.784
REMARK INTRA:                  -1.674
REMARK UNBOUND:                -1.231
REMARK  Name = 
REMARK  11 active torsions:
REMARK  status: ('A' for Active; 'I' for Inactive)
REMARK    1  A    between atoms: N_1  and  C_2
REMARK    2  A    between atoms: C_2  and  C_3
REMARK    3  A    between atoms: C_3  and  N_4
REMARK    4  A    between atoms: N_4  and  C_5
REMARK    5  A    between atoms: C_5  and  C_6
REMARK    6  A    between atoms: C_5  and  C_20
REMARK    7  A    between atoms: C_6  and  C_7
REMARK    8  A    between atoms: C_10  and  C_11
REMARK    9  A    between atoms: C_11  and  N_12
REMARK   10  A    between atoms: N_12  and  C_13
REMARK   11  A    between atoms: C_20  and  C_22
REMARK                            x       y       z     vdW  Elec       q    Type
REMARK                         _______ _______ _______ _____ _____    ______ ____
ROOT
ATOM      1  C   UNL     1      47.232   4.549  16.058  0.00  0.00    +0.000 C 
ENDROOT
BRANCH   1   2
ATOM      2  N   UNL     1      47.812   5.855  16.469  0.00  0.00    +0.000 NA
ATOM      3  H   UNL     1      47.059   6.532  16.599  0.00  0.00    +0.000 HD
BRANCH   2   4
ATOM      4  C   UNL     1      48.862   6.424  15.625  0.00  0.00    +0.000 C 
BRANCH   4   5
ATOM      5  C   UNL     1      49.653   7.663  16.105  0.00  0.00    +0.000 C 
BRANCH   5   6
ATOM      6  N   UNL     1      49.260   7.991  17.480  0.00  0.00    +0.000 NA
ATOM      7  H   UNL     1      48.246   8.035  17.561  0.00  0.00    +0.000 HD
ATOM      8  H   UNL     1      49.607   8.920  17.719  0.00  0.00    +0.000 HD
ENDBRANCH   5   6
ENDBRANCH   4   5
ENDBRANCH   2   4
ENDBRANCH   1   2
BRANCH   1   9
ATOM      9  C   UNL     1      47.594   3.474  17.119  0.00  0.00    +0.000 C 
ATOM     10  O   UNL     1      46.702   2.778  17.621  0.00  0.00    +0.000 OA
BRANCH   9  11
ATOM     11  C   UNL     1      49.008   3.148  17.455  0.00  0.00    +0.000 A 
ATOM     12  C   UNL     1      49.555   1.958  16.980  0.00  0.00    +0.000 A 
ATOM     13  S   UNL     1      51.228   1.799  17.266  0.00  0.00    +0.000 S 
ATOM     14  C   UNL     1      51.286   3.308  18.041  0.00  0.00    +0.000 A 
ATOM     15  N   UNL     1      52.475   3.829  18.454  0.00  0.00    +0.000 NA
ATOM     16  C   UNL     1      52.388   5.014  18.953  0.00  0.00    +0.000 A 
ATOM     17  N   UNL     1      51.231   5.707  19.127  0.00  0.00    +0.000 N 
ATOM     18  C   UNL     1      50.001   5.127  18.921  0.00  0.00    +0.000 A 
ATOM     19  O   UNL     1      49.009   5.643  19.412  0.00  0.00    +0.000 OA
ATOM     20  C   UNL     1      50.032   3.886  18.170  0.00  0.00    +0.000 A 
ATOM     21  H   UNL     1      51.214   6.578  19.633  0.00  0.00    +0.000 HD
ENDBRANCH   9  11
ENDBRANCH   1   9
BRANCH   1  22
ATOM     22  C   UNL     1      47.525   4.040  14.617  0.00  0.00    +0.000 C 
BRANCH  22  23
ATOM     23  C   UNL     1      46.624   4.337  13.436  0.00  0.00    +0.000 A 
ATOM     24  C   UNL     1      45.865   3.283  12.891  0.00  0.00    +0.000 A 
ATOM     25  C   UNL     1      45.116   3.454  11.726  0.00  0.00    +0.000 A 
ATOM     26  C   UNL     1      45.036   4.709  11.118  0.00  0.00    +0.000 A 
ATOM     27  C   UNL     1      45.654   5.796  11.757  0.00  0.00    +0.000 A 
ATOM     28  C   UNL     1      46.455   5.609  12.894  0.00  0.00    +0.000 A 
BRANCH  26  29
ATOM     29  C   UNL     1      44.320   4.879   9.795  0.00  0.00    +0.000 C 
BRANCH  29  30
ATOM     30  N   UNL     1      45.236   4.667   8.685  0.00  0.00    +0.000 NA
ATOM     31  H   UNL     1      46.144   4.405   9.049  0.00  0.00    +0.000 HD
BRANCH  30  32
ATOM     32  C   UNL     1      44.795   3.727   7.679  0.00  0.00    +0.000 C 
ATOM     33  C   UNL     1      45.985   3.258   6.843  0.00  0.00    +0.000 C 
ATOM     34  C   UNL     1      46.688   2.249   7.746  0.00  0.00    +0.000 C 
ATOM     35  C   UNL     1      45.584   1.734   8.662  0.00  0.00    +0.000 C 
ATOM     36  N   UNL     1      44.385   2.474   8.281  0.00  0.00    +0.000 NA
ATOM     37  H   UNL     1      43.740   2.600   9.051  0.00  0.00    +0.000 HD
ENDBRANCH  30  32
ENDBRANCH  29  30
ENDBRANCH  26  29
ENDBRANCH  22  23
ENDBRANCH   1  22
TORSDOF 11
ENDMDL
MODEL 5
REMARK VINA RESULT:    -6.899      1.644      1.908
REMARK INTER + INTRA:         -12.364
REMARK INTER:                 -11.196
REMARK INTRA:                  -1.168
REMARK UNBOUND:                -1.231
REMARK  Name = 
REMARK  11 active torsions:
REMARK  status: ('A' for Active; 'I' for Inactive)
REMARK    1  A    between atoms: N_1  and  C_2
REMARK    2  A    between atoms: C_2  and  C_3
REMARK    3  A    between atoms: C_3  and  N_4
REMARK    4  A    between atoms: N_4  and  C_5
REMARK    5  A    between atoms: C_5  and  C_6
REMARK    6  A    between atoms: C_5  and  C_20
REMARK    7  A    between atoms: C_6  and  C_7
REMARK    8  A    between atoms: C_10  and  C_11
REMARK    9  A    between atoms: C_11  and  N_12
REMARK   10  A    between atoms: N_12  and  C_13
REMARK   11  A    between atoms: C_20  and  C_22
REMARK                            x       y       z     vdW  Elec       q    Type
REMARK                         _______ _______ _______ _____ _____    ______ ____
ROOT
ATOM      1  C   UNL     1      48.139   5.870  17.126  0.00  0.00    +0.000 C 
ENDROOT
BRANCH   1   2
ATOM      2  N   UNL     1      48.403   7.114  17.895  0.00  0.00    +0.000 NA
ATOM      3  H   UNL     1      49.380   7.126  18.193  0.00  0.00    +0.000 HD
BRANCH   2   4
ATOM      4  C   UNL     1      47.526   7.406  19.029  0.00  0.00    +0.000 C 
BRANCH   4   5
ATOM      5  C   UNL     1      48.024   7.165  20.473  0.00  0.00    +0.000 C 
BRANCH   5   6
ATOM      6  N   UNL     1      49.355   7.761  20.637  0.00  0.00    +0.000 NA
ATOM      7  H   UNL     1      49.866   7.294  21.384  0.00  0.00    +0.000 HD
ATOM      8  H   UNL     1      49.256   8.736  20.925  0.00  0.00    +0.000 HD
ENDBRANCH   5   6
ENDBRANCH   4   5
ENDBRANCH   2   4
ENDBRANCH   1   2
BRANCH   1   9
ATOM      9  C   UNL     1      48.678   4.652  17.924  0.00  0.00    +0.000 C 
ATOM     10  O   UNL     1      47.886   3.849  18.435  0.00  0.00    +0.000 OA
BRANCH   9  11
ATOM     11  C   UNL     1      50.132   4.330  17.979  0.00  0.00    +0.000 A 
ATOM     12  C   UNL     1      51.007   5.267  18.524  0.00  0.00    +0.000 A 
ATOM     13  S   UNL     1      52.604   4.700  18.707  0.00  0.00    +0.000 S 
ATOM     14  C   UNL     1      52.191   3.186  18.062  0.00  0.00    +0.000 A 
ATOM     15  N   UNL     1      53.104   2.177  18.025  0.00  0.00    +0.000 NA
ATOM     16  C   UNL     1      52.638   1.058  17.586  0.00  0.00    +0.000 A 
ATOM     17  N   UNL     1      51.371   0.861  17.134  0.00  0.00    +0.000 N 
ATOM     18  C   UNL     1      50.495   1.906  16.958  0.00  0.00    +0.000 A 
ATOM     19  O   UNL     1      49.521   1.752  16.237  0.00  0.00    +0.000 OA
ATOM     20  C   UNL     1      50.877   3.140  17.619  0.00  0.00    +0.000 A 
ATOM     21  H   UNL     1      51.103  -0.003  16.691  0.00  0.00    +0.000 HD
ENDBRANCH   9  11
ENDBRANCH   1   9
BRANCH   1  22
ATOM     22  C   UNL     1      48.599   5.819  15.640  0.00  0.00    +0.000 C 
BRANCH  22  23
ATOM     23  C   UNL     1      47.633   5.689  14.480  0.00  0.00    +0.000 A 
ATOM     24  C   UNL     1      46.794   4.559  14.429  0.00  0.00    +0.000 A 
ATOM     25  C   UNL     1      45.976   4.311  13.326  0.00  0.00    +0.000 A 
ATOM     26  C   UNL     1      45.910   5.231  12.276  0.00  0.00    +0.000 A 
ATOM     27  C   UNL     1      46.617   6.437  12.406  0.00  0.00    +0.000 A 
ATOM     28  C   UNL     1      47.484   6.656  13.488  0.00  0.00    +0.000 A 
BRANCH  26  29
ATOM     29  C   UNL     1      45.114   4.917  11.027  0.00  0.00    +0.000 C 
BRANCH  29  30
ATOM     30  N   UNL     1      45.115   3.487  10.765  0.00  0.00    +0.000 NA
ATOM     31  H   UNL     1      44.878   2.992  11.617  0.00  0.00    +0.000 HD
BRANCH  30  32
ATOM     32  C   UNL     1      44.280   3.049   9.668  0.00  0.00    +0.000 C 
ATOM     33  C   UNL     1      44.628   3.829   8.402  0.00  0.00    +0.000 C 
ATOM     34  C   UNL     1      45.923   3.182   7.920  0.00  0.00    +0.000 C 
ATOM     35  C   UNL     1      45.865   1.767   8.484  0.00  0.00    +0.000 C 
ATOM     36  N   UNL     1      44.626   1.705   9.254  0.00  0.00    +0.000 NA
ATOM     37  H   UNL     1      44.678   1.056  10.030  0.00  0.00    +0.000 HD
ENDBRANCH  30  32
ENDBRANCH  29  30
ENDBRANCH  26  29
ENDBRANCH  22  23
ENDBRANCH   1  22
TORSDOF 11
ENDMDL
MODEL 6
REMARK VINA RESULT:    -6.549      2.423      3.392
REMARK INTER + INTRA:         -11.800
REMARK INTER:                 -10.245
REMARK INTRA:                  -1.555
REMARK UNBOUND:                -1.231
REMARK  Name = 
REMARK  11 active torsions:
REMARK  status: ('A' for Active; 'I' for Inactive)
REMARK    1  A    between atoms: N_1  and  C_2
REMARK    2  A    between atoms: C_2  and  C_3
REMARK    3  A    between atoms: C_3  and  N_4
REMARK    4  A    between atoms: N_4  and  C_5
REMARK    5  A    between atoms: C_5  and  C_6
REMARK    6  A    between atoms: C_5  and  C_20
REMARK    7  A    between atoms: C_6  and  C_7
REMARK    8  A    between atoms: C_10  and  C_11
REMARK    9  A    between atoms: C_11  and  N_12
REMARK   10  A    between atoms: N_12  and  C_13
REMARK   11  A    between atoms: C_20  and  C_22
REMARK                            x       y       z     vdW  Elec       q    Type
REMARK                         _______ _______ _______ _____ _____    ______ ____
ROOT
ATOM      1  C   UNL     1      49.336   5.674  16.611  0.00  0.00    +0.000 C 
ENDROOT
BRANCH   1   2
ATOM      2  N   UNL     1      47.979   5.542  17.202  0.00  0.00    +0.000 NA
ATOM      3  H   UNL     1      48.046   5.606  18.219  0.00  0.00    +0.000 HD
BRANCH   2   4
ATOM      4  C   UNL     1      47.187   4.373  16.821  0.00  0.00    +0.000 C 
BRANCH   4   5
ATOM      5  C   UNL     1      46.785   4.160  15.343  0.00  0.00    +0.000 C 
BRANCH   5   6
ATOM      6  N   UNL     1      47.606   3.092  14.762  0.00  0.00    +0.000 NA
ATOM      7  H   UNL     1      48.445   2.943  15.319  0.00  0.00    +0.000 HD
ATOM      8  H   UNL     1      47.926   3.376  13.835  0.00  0.00    +0.000 HD
ENDBRANCH   5   6
ENDBRANCH   4   5
ENDBRANCH   2   4
ENDBRANCH   1   2
BRANCH   1   9
ATOM      9  C   UNL     1      50.390   5.701  17.752  0.00  0.00    +0.000 C 
ATOM     10  O   UNL     1      50.179   6.372  18.771  0.00  0.00    +0.000 OA
BRANCH   9  11
ATOM     11  C   UNL     1      51.596   4.827  17.727  0.00  0.00    +0.000 A 
ATOM     12  C   UNL     1      52.849   5.405  17.923  0.00  0.00    +0.000 A 
ATOM     13  S   UNL     1      54.119   4.276  18.067  0.00  0.00    +0.000 S 
ATOM     14  C   UNL     1      53.048   2.975  17.868  0.00  0.00    +0.000 A 
ATOM     15  N   UNL     1      53.488   1.692  17.985  0.00  0.00    +0.000 NA
ATOM     16  C   UNL     1      52.558   0.803  17.892  0.00  0.00    +0.000 A 
ATOM     17  N   UNL     1      51.248   1.064  17.643  0.00  0.00    +0.000 N 
ATOM     18  C   UNL     1      50.812   2.325  17.309  0.00  0.00    +0.000 A 
ATOM     19  O   UNL     1      49.728   2.454  16.759  0.00  0.00    +0.000 OA
ATOM     20  C   UNL     1      51.753   3.392  17.597  0.00  0.00    +0.000 A 
ATOM     21  H   UNL     1      50.592   0.322  17.461  0.00  0.00    +0.000 HD
ENDBRANCH   9  11
ENDBRANCH   1   9
BRANCH   1  22
ATOM     22  C   UNL     1      49.581   6.823  15.591  0.00  0.00    +0.000 C 
BRANCH  22  23
ATOM     23  C   UNL     1      48.617   7.153  14.470  0.00  0.00    +0.000 A 
ATOM     24  C   UNL     1      47.865   8.341  14.560  0.00  0.00    +0.000 A 
ATOM     25  C   UNL     1      46.867   8.641  13.632  0.00  0.00    +0.000 A 
ATOM     26  C   UNL     1      46.649   7.802  12.536  0.00  0.00    +0.000 A 
ATOM     27  C   UNL     1      47.512   6.710  12.355  0.00  0.00    +0.000 A 
ATOM     28  C   UNL     1      48.474   6.378  13.321  0.00  0.00    +0.000 A 
BRANCH  26  29
ATOM     29  C   UNL     1      45.496   8.059  11.588  0.00  0.00    +0.000 C 
BRANCH  29  30
ATOM     30  N   UNL     1      44.259   7.514  12.125  0.00  0.00    +0.000 NA
ATOM     31  H   UNL     1      43.634   8.277  12.359  0.00  0.00    +0.000 HD
BRANCH  30  32
ATOM     32  C   UNL     1      43.591   6.538  11.295  0.00  0.00    +0.000 C 
ATOM     33  C   UNL     1      44.473   5.302  11.127  0.00  0.00    +0.000 C 
ATOM     34  C   UNL     1      44.317   4.560  12.450  0.00  0.00    +0.000 C 
ATOM     35  C   UNL     1      42.953   5.004  12.968  0.00  0.00    +0.000 C 
ATOM     36  N   UNL     1      42.455   5.959  11.984  0.00  0.00    +0.000 NA
ATOM     37  H   UNL     1      41.844   6.658  12.389  0.00  0.00    +0.000 HD
ENDBRANCH  30  32
ENDBRANCH  29  30
ENDBRANCH  26  29
ENDBRANCH  22  23
ENDBRANCH   1  22
TORSDOF 11
ENDMDL
MODEL 7
REMARK VINA RESULT:    -6.446      2.253      3.075
REMARK INTER + INTRA:         -11.633
REMARK INTER:                 -10.556
REMARK INTRA:                  -1.077
REMARK UNBOUND:                -1.231
REMARK  Name = 
REMARK  11 active torsions:
REMARK  status: ('A' for Active; 'I' for Inactive)
REMARK    1  A    between atoms: N_1  and  C_2
REMARK    2  A    between atoms: C_2  and  C_3
REMARK    3  A    between atoms: C_3  and  N_4
REMARK    4  A    between atoms: N_4  and  C_5
REMARK    5  A    between atoms: C_5  and  C_6
REMARK    6  A    between atoms: C_5  and  C_20
REMARK    7  A    between atoms: C_6  and  C_7
REMARK    8  A    between atoms: C_10  and  C_11
REMARK    9  A    between atoms: C_11  and  N_12
REMARK   10  A    between atoms: N_12  and  C_13
REMARK   11  A    between atoms: C_20  and  C_22
REMARK                            x       y       z     vdW  Elec       q    Type
REMARK                         _______ _______ _______ _____ _____    ______ ____
ROOT
ATOM      1  C   UNL     1      48.930   6.178  15.881  0.00  0.00    +0.000 C 
ENDROOT
BRANCH   1   2
ATOM      2  N   UNL     1      47.835   6.016  16.872  0.00  0.00    +0.000 NA
ATOM      3  H   UNL     1      47.704   6.893  17.378  0.00  0.00    +0.000 HD
BRANCH   2   4
ATOM      4  C   UNL     1      47.935   4.901  17.813  0.00  0.00    +0.000 C 
BRANCH   4   5
ATOM      5  C   UNL     1      47.823   3.445  17.302  0.00  0.00    +0.000 C 
BRANCH   5   6
ATOM      6  N   UNL     1      46.535   2.878  17.719  0.00  0.00    +0.000 NA
ATOM      7  H   UNL     1      46.608   1.868  17.826  0.00  0.00    +0.000 HD
ATOM      8  H   UNL     1      45.841   3.039  16.988  0.00  0.00    +0.000 HD
ENDBRANCH   5   6
ENDBRANCH   4   5
ENDBRANCH   2   4
ENDBRANCH   1   2
BRANCH   1   9
ATOM      9  C   UNL     1      50.046   7.068  16.494  0.00  0.00    +0.000 C 
ATOM     10  O   UNL     1      49.759   7.916  17.349  0.00  0.00    +0.000 OA
BRANCH   9  11
ATOM     11  C   UNL     1      51.486   6.840  16.190  0.00  0.00    +0.000 A 
ATOM     12  C   UNL     1      52.127   7.689  15.290  0.00  0.00    +0.000 A 
ATOM     13  S   UNL     1      53.810   7.445  15.181  0.00  0.00    +0.000 S 
ATOM     14  C   UNL     1      53.750   6.193  16.326  0.00  0.00    +0.000 A 
ATOM     15  N   UNL     1      54.894   5.603  16.768  0.00  0.00    +0.000 NA
ATOM     16  C   UNL     1      54.713   4.724  17.694  0.00  0.00    +0.000 A 
ATOM     17  N   UNL     1      53.504   4.342  18.184  0.00  0.00    +0.000 N 
ATOM     18  C   UNL     1      52.325   4.760  17.612  0.00  0.00    +0.000 A 
ATOM     19  O   UNL     1      51.299   4.138  17.840  0.00  0.00    +0.000 OA
ATOM     20  C   UNL     1      52.452   5.895  16.716  0.00  0.00    +0.000 A 
ATOM     21  H   UNL     1      53.419   3.566  18.820  0.00  0.00    +0.000 HD
ENDBRANCH   9  11
ENDBRANCH   1   9
BRANCH   1  22
ATOM     22  C   UNL     1      48.554   6.653  14.448  0.00  0.00    +0.000 C 
BRANCH  22  23
ATOM     23  C   UNL     1      47.429   6.038  13.641  0.00  0.00    +0.000 A 
ATOM     24  C   UNL     1      47.006   4.734  13.966  0.00  0.00    +0.000 A 
ATOM     25  C   UNL     1      46.068   4.058  13.185  0.00  0.00    +0.000 A 
ATOM     26  C   UNL     1      45.461   4.699  12.101  0.00  0.00    +0.000 A 
ATOM     27  C   UNL     1      45.757   6.054  11.881  0.00  0.00    +0.000 A 
ATOM     28  C   UNL     1      46.744   6.711  12.632  0.00  0.00    +0.000 A 
BRANCH  26  29
ATOM     29  C   UNL     1      44.528   3.939  11.182  0.00  0.00    +0.000 C 
BRANCH  29  30
ATOM     30  N   UNL     1      45.239   2.867  10.504  0.00  0.00    +0.000 NA
ATOM     31  H   UNL     1      45.452   2.134  11.170  0.00  0.00    +0.000 HD
BRANCH  30  32
ATOM     32  C   UNL     1      44.585   2.322   9.334  0.00  0.00    +0.000 C 
ATOM     33  C   UNL     1      44.665   3.318   8.179  0.00  0.00    +0.000 C 
ATOM     34  C   UNL     1      46.098   3.177   7.675  0.00  0.00    +0.000 C 
ATOM     35  C   UNL     1      46.495   1.759   8.071  0.00  0.00    +0.000 C 
ATOM     36  N   UNL     1      45.342   1.217   8.783  0.00  0.00    +0.000 NA
ATOM     37  H   UNL     1      45.599   0.529   9.480  0.00  0.00    +0.000 HD
ENDBRANCH  30  32
ENDBRANCH  29  30
ENDBRANCH  26  29
ENDBRANCH  22  23
ENDBRANCH   1  22
TORSDOF 11
ENDMDL
MODEL 8
REMARK VINA RESULT:    -6.397      3.445      8.216
REMARK INTER + INTRA:         -11.554
REMARK INTER:                 -10.243
REMARK INTRA:                  -1.311
REMARK UNBOUND:                -1.231
REMARK  Name = 
REMARK  11 active torsions:
REMARK  status: ('A' for Active; 'I' for Inactive)
REMARK    1  A    between atoms: N_1  and  C_2
REMARK    2  A    between atoms: C_2  and  C_3
REMARK    3  A    between atoms: C_3  and  N_4
REMARK    4  A    between atoms: N_4  and  C_5
REMARK    5  A    between atoms: C_5  and  C_6
REMARK    6  A    between atoms: C_5  and  C_20
REMARK    7  A    between atoms: C_6  and  C_7
REMARK    8  A    between atoms: C_10  and  C_11
REMARK    9  A    between atoms: C_11  and  N_12
REMARK   10  A    between atoms: N_12  and  C_13
REMARK   11  A    between atoms: C_20  and  C_22
REMARK                            x       y       z     vdW  Elec       q    Type
REMARK                         _______ _______ _______ _____ _____    ______ ____
ROOT
ATOM      1  C   UNL     1      47.837   6.931  12.294  0.00  0.00    +0.000 C 
ENDROOT
BRANCH   1   2
ATOM      2  N   UNL     1      48.687   7.694  11.343  0.00  0.00    +0.000 NA
ATOM      3  H   UNL     1      48.329   7.568  10.395  0.00  0.00    +0.000 HD
BRANCH   2   4
ATOM      4  C   UNL     1      50.128   7.447  11.376  0.00  0.00    +0.000 C 
BRANCH   4   5
ATOM      5  C   UNL     1      51.079   8.499  11.991  0.00  0.00    +0.000 C 
BRANCH   5   6
ATOM      6  N   UNL     1      51.528   8.041  13.310  0.00  0.00    +0.000 NA
ATOM      7  H   UNL     1      52.535   8.157  13.405  0.00  0.00    +0.000 HD
ATOM      8  H   UNL     1      51.346   7.041  13.402  0.00  0.00    +0.000 HD
ENDBRANCH   5   6
ENDBRANCH   4   5
ENDBRANCH   2   4
ENDBRANCH   1   2
BRANCH   1   9
ATOM      9  C   UNL     1      46.352   7.045  11.857  0.00  0.00    +0.000 C 
ATOM     10  O   UNL     1      45.732   8.100  12.043  0.00  0.00    +0.000 OA
BRANCH   9  11
ATOM     11  C   UNL     1      45.677   5.965  11.083  0.00  0.00    +0.000 A 
ATOM     12  C   UNL     1      46.022   5.780   9.746  0.00  0.00    +0.000 A 
ATOM     13  S   UNL     1      45.327   4.396   9.034  0.00  0.00    +0.000 S 
ATOM     14  C   UNL     1      44.534   3.993  10.480  0.00  0.00    +0.000 A 
ATOM     15  N   UNL     1      43.825   2.835  10.582  0.00  0.00    +0.000 NA
ATOM     16  C   UNL     1      43.342   2.612  11.756  0.00  0.00    +0.000 A 
ATOM     17  N   UNL     1      43.451   3.452  12.820  0.00  0.00    +0.000 N 
ATOM     18  C   UNL     1      43.971   4.718  12.692  0.00  0.00    +0.000 A 
ATOM     19  O   UNL     1      43.735   5.549  13.556  0.00  0.00    +0.000 OA
ATOM     20  C   UNL     1      44.714   4.951  11.467  0.00  0.00    +0.000 A 
ATOM     21  H   UNL     1      42.949   3.279  13.676  0.00  0.00    +0.000 HD
ENDBRANCH   9  11
ENDBRANCH   1   9
BRANCH   1  22
ATOM     22  C   UNL     1      48.001   7.220  13.815  0.00  0.00    +0.000 C 
BRANCH  22  23
ATOM     23  C   UNL     1      47.927   6.141  14.875  0.00  0.00    +0.000 A 
ATOM     24  C   UNL     1      48.568   6.367  16.108  0.00  0.00    +0.000 A 
ATOM     25  C   UNL     1      48.651   5.367  17.079  0.00  0.00    +0.000 A 
ATOM     26  C   UNL     1      48.020   4.137  16.877  0.00  0.00    +0.000 A 
ATOM     27  C   UNL     1      47.239   3.973  15.723  0.00  0.00    +0.000 A 
ATOM     28  C   UNL     1      47.207   4.958  14.723  0.00  0.00    +0.000 A 
BRANCH  26  29
ATOM     29  C   UNL     1      48.199   3.009  17.872  0.00  0.00    +0.000 C 
BRANCH  29  30
ATOM     30  N   UNL     1      49.605   2.832  18.198  0.00  0.00    +0.000 NA
ATOM     31  H   UNL     1      49.707   2.024  18.802  0.00  0.00    +0.000 HD
BRANCH  30  32
ATOM     32  C   UNL     1      50.505   2.746  17.069  0.00  0.00    +0.000 C 
ATOM     33  C   UNL     1      51.860   3.348  17.435  0.00  0.00    +0.000 C 
ATOM     34  C   UNL     1      52.522   2.267  18.283  0.00  0.00    +0.000 C 
ATOM     35  C   UNL     1      51.867   0.972  17.816  0.00  0.00    +0.000 C 
ATOM     36  N   UNL     1      50.886   1.373  16.811  0.00  0.00    +0.000 NA
ATOM     37  H   UNL     1      50.093   0.746  16.766  0.00  0.00    +0.000 HD
ENDBRANCH  30  32
ENDBRANCH  29  30
ENDBRANCH  26  29
ENDBRANCH  22  23
ENDBRANCH   1  22
TORSDOF 11
ENDMDL
MODEL 9
REMARK VINA RESULT:    -6.190      2.689      3.788
REMARK INTER + INTRA:         -11.220
REMARK INTER:                  -8.839
REMARK INTRA:                  -2.381
REMARK UNBOUND:                -1.231
REMARK  Name = 
REMARK  11 active torsions:
REMARK  status: ('A' for Active; 'I' for Inactive)
REMARK    1  A    between atoms: N_1  and  C_2
REMARK    2  A    between atoms: C_2  and  C_3
REMARK    3  A    between atoms: C_3  and  N_4
REMARK    4  A    between atoms: N_4  and  C_5
REMARK    5  A    between atoms: C_5  and  C_6
REMARK    6  A    between atoms: C_5  and  C_20
REMARK    7  A    between atoms: C_6  and  C_7
REMARK    8  A    between atoms: C_10  and  C_11
REMARK    9  A    between atoms: C_11  and  N_12
REMARK   10  A    between atoms: N_12  and  C_13
REMARK   11  A    between atoms: C_20  and  C_22
REMARK                            x       y       z     vdW  Elec       q    Type
REMARK                         _______ _______ _______ _____ _____    ______ ____
ROOT
ATOM      1  C   UNL     1      49.715   7.476  16.648  0.00  0.00    +0.000 C 
ENDROOT
BRANCH   1   2
ATOM      2  N   UNL     1      50.997   7.600  17.389  0.00  0.00    +0.000 NA
ATOM      3  H   UNL     1      51.043   8.519  17.833  0.00  0.00    +0.000 HD
BRANCH   2   4
ATOM      4  C   UNL     1      52.232   7.335  16.653  0.00  0.00    +0.000 C 
BRANCH   4   5
ATOM      5  C   UNL     1      53.541   7.033  17.420  0.00  0.00    +0.000 C 
BRANCH   5   6
ATOM      6  N   UNL     1      53.857   5.605  17.306  0.00  0.00    +0.000 NA
ATOM      7  H   UNL     1      54.159   5.380  16.360  0.00  0.00    +0.000 HD
ATOM      8  H   UNL     1      53.013   5.057  17.474  0.00  0.00    +0.000 HD
ENDBRANCH   5   6
ENDBRANCH   4   5
ENDBRANCH   2   4
ENDBRANCH   1   2
BRANCH   1   9
ATOM      9  C   UNL     1      48.763   6.530  17.430  0.00  0.00    +0.000 C 
ATOM     10  O   UNL     1      47.893   7.005  18.172  0.00  0.00    +0.000 OA
BRANCH   9  11
ATOM     11  C   UNL     1      48.766   5.056  17.209  0.00  0.00    +0.000 A 
ATOM     12  C   UNL     1      47.692   4.475  16.538  0.00  0.00    +0.000 A 
ATOM     13  S   UNL     1      47.910   2.823  16.179  0.00  0.00    +0.000 S 
ATOM     14  C   UNL     1      49.441   2.817  16.911  0.00  0.00    +0.000 A 
ATOM     15  N   UNL     1      50.227   1.706  16.865  0.00  0.00    +0.000 NA
ATOM     16  C   UNL     1      51.395   1.862  17.387  0.00  0.00    +0.000 A 
ATOM     17  N   UNL     1      51.836   2.996  17.994  0.00  0.00    +0.000 N 
ATOM     18  C   UNL     1      50.997   4.056  18.246  0.00  0.00    +0.000 A 
ATOM     19  O   UNL     1      51.319   4.885  19.082  0.00  0.00    +0.000 OA
ATOM     20  C   UNL     1      49.746   4.031  17.509  0.00  0.00    +0.000 A 
ATOM     21  H   UNL     1      52.713   3.017  18.489  0.00  0.00    +0.000 HD
ENDBRANCH   9  11
ENDBRANCH   1   9
BRANCH   1  22
ATOM     22  C   UNL     1      49.776   7.094  15.141  0.00  0.00    +0.000 C 
BRANCH  22  23
ATOM     23  C   UNL     1      48.604   7.266  14.196  0.00  0.00    +0.000 A 
ATOM     24  C   UNL     1      47.891   8.480  14.227  0.00  0.00    +0.000 A 
ATOM     25  C   UNL     1      46.725   8.657  13.480  0.00  0.00    +0.000 A 
ATOM     26  C   UNL     1      46.285   7.653  12.614  0.00  0.00    +0.000 A 
ATOM     27  C   UNL     1      47.089   6.513  12.456  0.00  0.00    +0.000 A 
ATOM     28  C   UNL     1      48.227   6.313  13.253  0.00  0.00    +0.000 A 
BRANCH  26  29
ATOM     29  C   UNL     1      44.964   7.790  11.886  0.00  0.00    +0.000 C 
BRANCH  29  30
ATOM     30  N   UNL     1      44.685   6.597  11.102  0.00  0.00    +0.000 NA
ATOM     31  H   UNL     1      45.443   5.935  11.221  0.00  0.00    +0.000 HD
BRANCH  30  32
ATOM     32  C   UNL     1      43.408   5.966  11.351  0.00  0.00    +0.000 C 
ATOM     33  C   UNL     1      43.416   4.537  10.812  0.00  0.00    +0.000 C 
ATOM     34  C   UNL     1      44.215   3.760  11.853  0.00  0.00    +0.000 C 
ATOM     35  C   UNL     1      44.033   4.560  13.138  0.00  0.00    +0.000 C 
ATOM     36  N   UNL     1      43.220   5.714  12.766  0.00  0.00    +0.000 NA
ATOM     37  H   UNL     1      43.407   6.527  13.338  0.00  0.00    +0.000 HD
ENDBRANCH  30  32
ENDBRANCH  29  30
ENDBRANCH  26  29
ENDBRANCH  22  23
ENDBRANCH   1  22
TORSDOF 11
ENDMDL
