MODEL 1
REMARK VINA RESULT:    -7.832      0.000      0.000
REMARK INTER + INTRA:         -12.692
REMARK INTER:                 -11.495
REMARK INTRA:                  -1.197
REMARK UNBOUND:                -1.197
REMARK  Name = 
REMARK  9 active torsions:
REMARK  status: ('A' for Active; 'I' for Inactive)
REMARK    1  A    between atoms: C_1  and  O_2
REMARK    2  A    between atoms: O_2  and  C_3
REMARK    3  A    between atoms: C_10  and  C_11
REMARK    4  A    between atoms: N_13  and  C_14
REMARK    5  A    between atoms: C_14  and  C_15
REMARK    6  A    between atoms: C_18  and  C_19
REMARK    7  A    between atoms: C_19  and  S_20
REMARK    8  A    between atoms: S_20  and  C_21
REMARK    9  A    between atoms: C_21  and  C_22
REMARK                            x       y       z     vdW  Elec       q    Type
REMARK                         _______ _______ _______ _____ _____    ______ ____
ROOT
ATOM      1  C   UNL     1      47.844   7.753  13.598  0.00  0.00    +0.000 C 
ENDROOT
BRANCH   1   2
ATOM      2  C   UNL     1      46.754   6.830  13.106  0.00  0.00    +0.000 A 
ATOM      3  C   UNL     1      46.868   5.443  13.271  0.00  0.00    +0.000 A 
ATOM      4  C   UNL     1      45.801   4.589  12.956  0.00  0.00    +0.000 A 
ATOM      5  C   UNL     1      44.586   5.094  12.471  0.00  0.00    +0.000 A 
ATOM      6  C   UNL     1      44.509   6.472  12.214  0.00  0.00    +0.000 A 
ATOM      7  C   UNL     1      45.579   7.328  12.525  0.00  0.00    +0.000 A 
BRANCH   5   8
ATOM      8  C   UNL     1      43.399   4.176  12.225  0.00  0.00    +0.000 C 
BRANCH   8   9
ATOM      9  S   UNL     1      43.757   2.890  10.963  0.00  0.00    +0.000 S 
BRANCH   9  10
ATOM     10  C   UNL     1      44.226   3.944   9.551  0.00  0.00    +0.000 C 
BRANCH  10  11
ATOM     11  C   UNL     1      45.256   3.283   8.654  0.00  0.00    +0.000 A 
ATOM     12  C   UNL     1      45.522   1.907   8.760  0.00  0.00    +0.000 A 
ATOM     13  C   UNL     1      46.452   1.290   7.917  0.00  0.00    +0.000 A 
ATOM     14  C   UNL     1      47.126   2.048   6.969  0.00  0.00    +0.000 A 
ATOM     15  F   UNL     1      48.011   1.456   6.155  0.00  0.00    +0.000 F 
ATOM     16  C   UNL     1      46.893   3.414   6.852  0.00  0.00    +0.000 A 
ATOM     17  C   UNL     1      45.963   4.031   7.695  0.00  0.00    +0.000 A 
ENDBRANCH  10  11
ENDBRANCH   9  10
ENDBRANCH   8   9
ENDBRANCH   5   8
ENDBRANCH   1   2
BRANCH   1  20
ATOM     18  C   UNL     1      49.111   7.313  15.657  0.00  0.00    +0.000 C 
ATOM     19  O   UNL     1      50.068   6.888  15.011  0.00  0.00    +0.000 OA
ATOM     20  N   UNL     1      47.977   7.766  15.032  0.00  0.00    +0.000 N 
ATOM     21  H   UNL     1      47.202   8.127  15.575  0.00  0.00    +0.000 HD
BRANCH  18  29
ATOM     22  C   UNL     1      48.816   4.853  18.030  0.00  0.00    +0.000 A 
ATOM     23  N   UNL     1      48.842   4.080  19.132  0.00  0.00    +0.000 NA
ATOM     24  C   UNL     1      49.050   4.677  20.310  0.00  0.00    +0.000 A 
ATOM     25  N   UNL     1      49.215   5.979  20.530  0.00  0.00    +0.000 NA
ATOM     26  C   UNL     1      49.197   6.709  19.403  0.00  0.00    +0.000 A 
ATOM     27  S   UNL     1      49.371   8.395  19.488  0.00  0.00    +0.000 S 
ATOM     28  C   UNL     1      49.279   8.538  17.795  0.00  0.00    +0.000 A 
ATOM     29  C   UNL     1      49.136   7.323  17.134  0.00  0.00    +0.000 A 
ATOM     30  C   UNL     1      49.037   6.238  18.104  0.00  0.00    +0.000 A 
BRANCH  22  32
ATOM     31  C   UNL     1      47.235   3.904  16.602  0.00  0.00    +0.000 C 
ATOM     32  O   UNL     1      48.603   4.242  16.815  0.00  0.00    +0.000 OA
ENDBRANCH  22  32
ENDBRANCH  18  29
ENDBRANCH   1  20
TORSDOF 8
ENDMDL
MODEL 2
REMARK VINA RESULT:    -7.453      1.943      2.240
REMARK INTER + INTRA:         -12.135
REMARK INTER:                 -11.137
REMARK INTRA:                  -0.998
REMARK UNBOUND:                -1.197
REMARK  Name = 
REMARK  9 active torsions:
REMARK  status: ('A' for Active; 'I' for Inactive)
REMARK    1  A    between atoms: C_1  and  O_2
REMARK    2  A    between atoms: O_2  and  C_3
REMARK    3  A    between atoms: C_10  and  C_11
REMARK    4  A    between atoms: N_13  and  C_14
REMARK    5  A    between atoms: C_14  and  C_15
REMARK    6  A    between atoms: C_18  and  C_19
REMARK    7  A    between atoms: C_19  and  S_20
REMARK    8  A    between atoms: S_20  and  C_21
REMARK    9  A    between atoms: C_21  and  C_22
REMARK                            x       y       z     vdW  Elec       q    Type
REMARK                         _______ _______ _______ _____ _____    ______ ____
ROOT
ATOM      1  C   UNL     1      48.731   7.775  13.470  0.00  0.00    +0.000 C 
ENDROOT
BRANCH   1   2
ATOM      2  C   UNL     1      47.538   6.893  13.182  0.00  0.00    +0.000 A 
ATOM      3  C   UNL     1      46.451   7.385  12.447  0.00  0.00    +0.000 A 
ATOM      4  C   UNL     1      45.410   6.536  12.045  0.00  0.00    +0.000 A 
ATOM      5  C   UNL     1      45.424   5.169  12.361  0.00  0.00    +0.000 A 
ATOM      6  C   UNL     1      46.464   4.700  13.180  0.00  0.00    +0.000 A 
ATOM      7  C   UNL     1      47.505   5.552  13.587  0.00  0.00    +0.000 A 
BRANCH   5   8
ATOM      8  C   UNL     1      44.345   4.234  11.839  0.00  0.00    +0.000 C 
BRANCH   8   9
ATOM      9  S   UNL     1      44.169   4.316  10.013  0.00  0.00    +0.000 S 
BRANCH   9  10
ATOM     10  C   UNL     1      44.497   2.576   9.577  0.00  0.00    +0.000 C 
BRANCH  10  11
ATOM     11  C   UNL     1      45.507   2.443   8.452  0.00  0.00    +0.000 A 
ATOM     12  C   UNL     1      46.161   1.222   8.216  0.00  0.00    +0.000 A 
ATOM     13  C   UNL     1      47.073   1.090   7.163  0.00  0.00    +0.000 A 
ATOM     14  C   UNL     1      47.339   2.181   6.346  0.00  0.00    +0.000 A 
ATOM     15  F   UNL     1      48.206   2.052   5.332  0.00  0.00    +0.000 F 
ATOM     16  C   UNL     1      46.716   3.404   6.566  0.00  0.00    +0.000 A 
ATOM     17  C   UNL     1      45.805   3.537   7.618  0.00  0.00    +0.000 A 
ENDBRANCH  10  11
ENDBRANCH   9  10
ENDBRANCH   8   9
ENDBRANCH   5   8
ENDBRANCH   1   2
BRANCH   1  20
ATOM     18  C   UNL     1      49.842   7.350  15.621  0.00  0.00    +0.000 C 
ATOM     19  O   UNL     1      49.064   8.105  16.204  0.00  0.00    +0.000 OA
ATOM     20  N   UNL     1      49.738   7.129  14.272  0.00  0.00    +0.000 N 
ATOM     21  H   UNL     1      50.376   6.494  13.806  0.00  0.00    +0.000 HD
BRANCH  18  29
ATOM     22  C   UNL     1      50.110   4.303  17.174  0.00  0.00    +0.000 A 
ATOM     23  N   UNL     1      50.503   3.147  17.742  0.00  0.00    +0.000 NA
ATOM     24  C   UNL     1      51.775   3.047  18.139  0.00  0.00    +0.000 A 
ATOM     25  N   UNL     1      52.716   3.985  18.060  0.00  0.00    +0.000 NA
ATOM     26  C   UNL     1      52.284   5.114  17.475  0.00  0.00    +0.000 A 
ATOM     27  S   UNL     1      53.339   6.432  17.305  0.00  0.00    +0.000 S 
ATOM     28  C   UNL     1      52.143   7.350  16.517  0.00  0.00    +0.000 A 
ATOM     29  C   UNL     1      50.936   6.678  16.350  0.00  0.00    +0.000 A 
ATOM     30  C   UNL     1      51.011   5.360  16.969  0.00  0.00    +0.000 A 
BRANCH  22  32
ATOM     31  C   UNL     1      48.175   3.143  16.579  0.00  0.00    +0.000 C 
ATOM     32  O   UNL     1      48.800   4.411  16.762  0.00  0.00    +0.000 OA
ENDBRANCH  22  32
ENDBRANCH  18  29
ENDBRANCH   1  20
TORSDOF 8
ENDMDL
MODEL 3
REMARK VINA RESULT:    -7.356      3.678      8.337
REMARK INTER + INTRA:         -11.993
REMARK INTER:                 -10.107
REMARK INTRA:                  -1.885
REMARK UNBOUND:                -1.197
REMARK  Name = 
REMARK  9 active torsions:
REMARK  status: ('A' for Active; 'I' for Inactive)
REMARK    1  A    between atoms: C_1  and  O_2
REMARK    2  A    between atoms: O_2  and  C_3
REMARK    3  A    between atoms: C_10  and  C_11
REMARK    4  A    between atoms: N_13  and  C_14
REMARK    5  A    between atoms: C_14  and  C_15
REMARK    6  A    between atoms: C_18  and  C_19
REMARK    7  A    between atoms: C_19  and  S_20
REMARK    8  A    between atoms: S_20  and  C_21
REMARK    9  A    between atoms: C_21  and  C_22
REMARK                            x       y       z     vdW  Elec       q    Type
REMARK                         _______ _______ _______ _____ _____    ______ ____
ROOT
ATOM      1  C   UNL     1      48.238   8.110  12.202  0.00  0.00    +0.000 C 
ENDROOT
BRANCH   1   2
ATOM      2  C   UNL     1      48.372   7.978  13.701  0.00  0.00    +0.000 A 
ATOM      3  C   UNL     1      49.012   6.865  14.263  0.00  0.00    +0.000 A 
ATOM      4  C   UNL     1      49.276   6.805  15.639  0.00  0.00    +0.000 A 
ATOM      5  C   UNL     1      48.912   7.855  16.495  0.00  0.00    +0.000 A 
ATOM      6  C   UNL     1      48.185   8.922  15.946  0.00  0.00    +0.000 A 
ATOM      7  C   UNL     1      47.916   8.982  14.567  0.00  0.00    +0.000 A 
BRANCH   5   8
ATOM      8  C   UNL     1      49.288   7.829  17.969  0.00  0.00    +0.000 C 
BRANCH   8   9
ATOM      9  S   UNL     1      47.822   7.662  19.063  0.00  0.00    +0.000 S 
BRANCH   9  10
ATOM     10  C   UNL     1      48.194   6.064  19.860  0.00  0.00    +0.000 C 
BRANCH  10  11
ATOM     11  C   UNL     1      48.406   4.951  18.851  0.00  0.00    +0.000 A 
ATOM     12  C   UNL     1      49.669   4.355  18.695  0.00  0.00    +0.000 A 
ATOM     13  C   UNL     1      49.860   3.311  17.784  0.00  0.00    +0.000 A 
ATOM     14  C   UNL     1      48.791   2.862  17.021  0.00  0.00    +0.000 A 
ATOM     15  F   UNL     1      48.972   1.857  16.154  0.00  0.00    +0.000 F 
ATOM     16  C   UNL     1      47.534   3.444  17.145  0.00  0.00    +0.000 A 
ATOM     17  C   UNL     1      47.342   4.488  18.056  0.00  0.00    +0.000 A 
ENDBRANCH  10  11
ENDBRANCH   9  10
ENDBRANCH   8   9
ENDBRANCH   5   8
ENDBRANCH   1   2
BRANCH   1  20
ATOM     18  C   UNL     1      46.246   6.951  11.349  0.00  0.00    +0.000 C 
ATOM     19  O   UNL     1      45.528   7.905  11.647  0.00  0.00    +0.000 OA
ATOM     20  N   UNL     1      47.596   6.977  11.585  0.00  0.00    +0.000 N 
ATOM     21  H   UNL     1      48.178   6.191  11.322  0.00  0.00    +0.000 HD
BRANCH  18  29
ATOM     22  C   UNL     1      44.501   4.299  12.650  0.00  0.00    +0.000 A 
ATOM     23  N   UNL     1      43.722   3.226  12.885  0.00  0.00    +0.000 NA
ATOM     24  C   UNL     1      43.373   2.468  11.842  0.00  0.00    +0.000 A 
ATOM     25  N   UNL     1      43.731   2.637  10.571  0.00  0.00    +0.000 NA
ATOM     26  C   UNL     1      44.494   3.726  10.382  0.00  0.00    +0.000 A 
ATOM     27  S   UNL     1      45.068   4.094   8.828  0.00  0.00    +0.000 S 
ATOM     28  C   UNL     1      45.844   5.497   9.393  0.00  0.00    +0.000 A 
ATOM     29  C   UNL     1      45.672   5.727  10.755  0.00  0.00    +0.000 A 
ATOM     30  C   UNL     1      44.906   4.637  11.349  0.00  0.00    +0.000 A 
BRANCH  22  32
ATOM     31  C   UNL     1      46.158   4.765  14.225  0.00  0.00    +0.000 C 
ATOM     32  O   UNL     1      44.863   5.084  13.722  0.00  0.00    +0.000 OA
ENDBRANCH  22  32
ENDBRANCH  18  29
ENDBRANCH   1  20
TORSDOF 8
ENDMDL
MODEL 4
REMARK VINA RESULT:    -7.114      3.824      5.489
REMARK INTER + INTRA:         -11.637
REMARK INTER:                  -9.776
REMARK INTRA:                  -1.862
REMARK UNBOUND:                -1.197
REMARK  Name = 
REMARK  9 active torsions:
REMARK  status: ('A' for Active; 'I' for Inactive)
REMARK    1  A    between atoms: C_1  and  O_2
REMARK    2  A    between atoms: O_2  and  C_3
REMARK    3  A    between atoms: C_10  and  C_11
REMARK    4  A    between atoms: N_13  and  C_14
REMARK    5  A    between atoms: C_14  and  C_15
REMARK    6  A    between atoms: C_18  and  C_19
REMARK    7  A    between atoms: C_19  and  S_20
REMARK    8  A    between atoms: S_20  and  C_21
REMARK    9  A    between atoms: C_21  and  C_22
REMARK                            x       y       z     vdW  Elec       q    Type
REMARK                         _______ _______ _______ _____ _____    ______ ____
ROOT
ATOM      1  C   UNL     1      48.083   3.547  17.618  0.00  0.00    +0.000 C 
ENDROOT
BRANCH   1   2
ATOM      2  C   UNL     1      47.838   4.428  16.415  0.00  0.00    +0.000 A 
ATOM      3  C   UNL     1      48.458   5.680  16.312  0.00  0.00    +0.000 A 
ATOM      4  C   UNL     1      48.358   6.439  15.137  0.00  0.00    +0.000 A 
ATOM      5  C   UNL     1      47.639   5.969  14.028  0.00  0.00    +0.000 A 
ATOM      6  C   UNL     1      46.938   4.761  14.170  0.00  0.00    +0.000 A 
ATOM      7  C   UNL     1      47.034   4.002  15.349  0.00  0.00    +0.000 A 
BRANCH   5   8
ATOM      8  C   UNL     1      47.616   6.749  12.723  0.00  0.00    +0.000 C 
BRANCH   8   9
ATOM      9  S   UNL     1      46.270   7.999  12.677  0.00  0.00    +0.000 S 
BRANCH   9  10
ATOM     10  C   UNL     1      45.243   7.319  11.332  0.00  0.00    +0.000 C 
BRANCH  10  11
ATOM     11  C   UNL     1      44.722   5.930  11.649  0.00  0.00    +0.000 A 
ATOM     12  C   UNL     1      45.139   4.818  10.896  0.00  0.00    +0.000 A 
ATOM     13  C   UNL     1      44.681   3.533  11.204  0.00  0.00    +0.000 A 
ATOM     14  C   UNL     1      43.798   3.354  12.260  0.00  0.00    +0.000 A 
ATOM     15  F   UNL     1      43.365   2.122  12.560  0.00  0.00    +0.000 F 
ATOM     16  C   UNL     1      43.358   4.438  13.012  0.00  0.00    +0.000 A 
ATOM     17  C   UNL     1      43.816   5.724  12.705  0.00  0.00    +0.000 A 
ENDBRANCH  10  11
ENDBRANCH   9  10
ENDBRANCH   8   9
ENDBRANCH   5   8
ENDBRANCH   1   2
BRANCH   1  20
ATOM     18  C   UNL     1      50.188   2.374  17.137  0.00  0.00    +0.000 C 
ATOM     19  O   UNL     1      49.657   1.733  16.230  0.00  0.00    +0.000 OA
ATOM     20  N   UNL     1      49.480   3.294  17.865  0.00  0.00    +0.000 N 
ATOM     21  H   UNL     1      49.932   3.825  18.600  0.00  0.00    +0.000 HD
BRANCH  18  29
ATOM     22  C   UNL     1      52.778   4.484  17.917  0.00  0.00    +0.000 A 
ATOM     23  N   UNL     1      53.905   5.075  18.355  0.00  0.00    +0.000 NA
ATOM     24  C   UNL     1      54.931   4.289  18.694  0.00  0.00    +0.000 A 
ATOM     25  N   UNL     1      54.981   2.961  18.626  0.00  0.00    +0.000 NA
ATOM     26  C   UNL     1      53.832   2.414  18.198  0.00  0.00    +0.000 A 
ATOM     27  S   UNL     1      53.712   0.730  18.026  0.00  0.00    +0.000 S 
ATOM     28  C   UNL     1      52.091   0.848  17.524  0.00  0.00    +0.000 A 
ATOM     29  C   UNL     1      51.603   2.150  17.495  0.00  0.00    +0.000 A 
ATOM     30  C   UNL     1      52.664   3.087  17.851  0.00  0.00    +0.000 A 
BRANCH  22  32
ATOM     31  C   UNL     1      52.079   6.298  16.626  0.00  0.00    +0.000 C 
ATOM     32  O   UNL     1      51.717   5.290  17.567  0.00  0.00    +0.000 OA
ENDBRANCH  22  32
ENDBRANCH  18  29
ENDBRANCH   1  20
TORSDOF 8
ENDMDL
MODEL 5
REMARK VINA RESULT:    -7.111      3.684      8.729
REMARK INTER + INTRA:         -11.633
REMARK INTER:                  -9.208
REMARK INTRA:                  -2.425
REMARK UNBOUND:                -1.197
REMARK  Name = 
REMARK  9 active torsions:
REMARK  status: ('A' for Active; 'I' for Inactive)
REMARK    1  A    between atoms: C_1  and  O_2
REMARK    2  A    between atoms: O_2  and  C_3
REMARK    3  A    between atoms: C_10  and  C_11
REMARK    4  A    between atoms: N_13  and  C_14
REMARK    5  A    between atoms: C_14  and  C_15
REMARK    6  A    between atoms: C_18  and  C_19
REMARK    7  A    between atoms: C_19  and  S_20
REMARK    8  A    between atoms: S_20  and  C_21
REMARK    9  A    between atoms: C_21  and  C_22
REMARK                            x       y       z     vdW  Elec       q    Type
REMARK                         _______ _______ _______ _____ _____    ______ ____
ROOT
ATOM      1  C   UNL     1      47.498   3.639  16.443  0.00  0.00    +0.000 C 
ENDROOT
BRANCH   1   2
ATOM      2  C   UNL     1      47.963   4.268  17.735  0.00  0.00    +0.000 A 
ATOM      3  C   UNL     1      49.251   4.016  18.226  0.00  0.00    +0.000 A 
ATOM      4  C   UNL     1      49.746   4.710  19.339  0.00  0.00    +0.000 A 
ATOM      5  C   UNL     1      48.972   5.679  19.994  0.00  0.00    +0.000 A 
ATOM      6  C   UNL     1      47.648   5.858  19.562  0.00  0.00    +0.000 A 
ATOM      7  C   UNL     1      47.150   5.160  18.448  0.00  0.00    +0.000 A 
BRANCH   5   8
ATOM      8  C   UNL     1      49.547   6.498  21.139  0.00  0.00    +0.000 C 
BRANCH   8   9
ATOM      9  S   UNL     1      50.981   7.522  20.617  0.00  0.00    +0.000 S 
BRANCH   9  10
ATOM     10  C   UNL     1      50.148   8.700  19.501  0.00  0.00    +0.000 C 
BRANCH  10  11
ATOM     11  C   UNL     1      50.060   8.184  18.077  0.00  0.00    +0.000 A 
ATOM     12  C   UNL     1      48.899   8.386  17.311  0.00  0.00    +0.000 A 
ATOM     13  C   UNL     1      48.827   7.935  15.989  0.00  0.00    +0.000 A 
ATOM     14  C   UNL     1      49.911   7.273  15.430  0.00  0.00    +0.000 A 
ATOM     15  F   UNL     1      49.845   6.847  14.161  0.00  0.00    +0.000 F 
ATOM     16  C   UNL     1      51.066   7.047  16.170  0.00  0.00    +0.000 A 
ATOM     17  C   UNL     1      51.140   7.498  17.492  0.00  0.00    +0.000 A 
ENDBRANCH  10  11
ENDBRANCH   9  10
ENDBRANCH   8   9
ENDBRANCH   5   8
ENDBRANCH   1   2
BRANCH   1  20
ATOM     18  C   UNL     1      46.753   4.301  14.197  0.00  0.00    +0.000 C 
ATOM     19  O   UNL     1      47.118   3.224  13.726  0.00  0.00    +0.000 OA
ATOM     20  N   UNL     1      46.900   4.580  15.531  0.00  0.00    +0.000 N 
ATOM     21  H   UNL     1      46.582   5.465  15.908  0.00  0.00    +0.000 HD
BRANCH  18  29
ATOM     22  C   UNL     1      43.738   4.616  12.590  0.00  0.00    +0.000 A 
ATOM     23  N   UNL     1      42.618   5.026  11.966  0.00  0.00    +0.000 NA
ATOM     24  C   UNL     1      42.619   6.243  11.415  0.00  0.00    +0.000 A 
ATOM     25  N   UNL     1      43.628   7.110  11.388  0.00  0.00    +0.000 NA
ATOM     26  C   UNL     1      44.719   6.666  12.034  0.00  0.00    +0.000 A 
ATOM     27  S   UNL     1      46.117   7.627  12.088  0.00  0.00    +0.000 S 
ATOM     28  C   UNL     1      46.936   6.469  13.026  0.00  0.00    +0.000 A 
ATOM     29  C   UNL     1      46.171   5.348  13.332  0.00  0.00    +0.000 A 
ATOM     30  C   UNL     1      44.863   5.449  12.694  0.00  0.00    +0.000 A 
BRANCH  22  32
ATOM     31  C   UNL     1      43.621   2.319  12.196  0.00  0.00    +0.000 C 
ATOM     32  O   UNL     1      43.741   3.362  13.160  0.00  0.00    +0.000 OA
ENDBRANCH  22  32
ENDBRANCH  18  29
ENDBRANCH   1  20
TORSDOF 8
ENDMDL
MODEL 6
REMARK VINA RESULT:    -7.033      4.144      8.858
REMARK INTER + INTRA:         -11.519
REMARK INTER:                  -9.505
REMARK INTRA:                  -2.014
REMARK UNBOUND:                -1.197
REMARK  Name = 
REMARK  9 active torsions:
REMARK  status: ('A' for Active; 'I' for Inactive)
REMARK    1  A    between atoms: C_1  and  O_2
REMARK    2  A    between atoms: O_2  and  C_3
REMARK    3  A    between atoms: C_10  and  C_11
REMARK    4  A    between atoms: N_13  and  C_14
REMARK    5  A    between atoms: C_14  and  C_15
REMARK    6  A    between atoms: C_18  and  C_19
REMARK    7  A    between atoms: C_19  and  S_20
REMARK    8  A    between atoms: S_20  and  C_21
REMARK    9  A    between atoms: C_21  and  C_22
REMARK                            x       y       z     vdW  Elec       q    Type
REMARK                         _______ _______ _______ _____ _____    ______ ____
ROOT
ATOM      1  C   UNL     1      47.143   3.425  17.017  0.00  0.00    +0.000 C 
ENDROOT
BRANCH   1   2
ATOM      2  C   UNL     1      48.537   3.521  17.592  0.00  0.00    +0.000 A 
ATOM      3  C   UNL     1      49.581   2.752  17.061  0.00  0.00    +0.000 A 
ATOM      4  C   UNL     1      50.904   2.942  17.484  0.00  0.00    +0.000 A 
ATOM      5  C   UNL     1      51.226   3.907  18.449  0.00  0.00    +0.000 A 
ATOM      6  C   UNL     1      50.167   4.607  19.050  0.00  0.00    +0.000 A 
ATOM      7  C   UNL     1      48.840   4.414  18.630  0.00  0.00    +0.000 A 
BRANCH   5   8
ATOM      8  C   UNL     1      52.672   4.178  18.832  0.00  0.00    +0.000 C 
BRANCH   8   9
ATOM      9  S   UNL     1      53.127   5.948  18.645  0.00  0.00    +0.000 S 
BRANCH   9  10
ATOM     10  C   UNL     1      52.476   6.275  16.973  0.00  0.00    +0.000 C 
BRANCH  10  11
ATOM     11  C   UNL     1      51.213   7.115  17.000  0.00  0.00    +0.000 A 
ATOM     12  C   UNL     1      50.143   6.830  16.133  0.00  0.00    +0.000 A 
ATOM     13  C   UNL     1      48.967   7.587  16.175  0.00  0.00    +0.000 A 
ATOM     14  C   UNL     1      48.858   8.636  17.077  0.00  0.00    +0.000 A 
ATOM     15  F   UNL     1      47.729   9.356  17.122  0.00  0.00    +0.000 F 
ATOM     16  C   UNL     1      49.907   8.949  17.936  0.00  0.00    +0.000 A 
ATOM     17  C   UNL     1      51.083   8.193  17.896  0.00  0.00    +0.000 A 
ENDBRANCH  10  11
ENDBRANCH   9  10
ENDBRANCH   8   9
ENDBRANCH   5   8
ENDBRANCH   1   2
BRANCH   1  20
ATOM     18  C   UNL     1      47.007   4.117  14.663  0.00  0.00    +0.000 C 
ATOM     19  O   UNL     1      47.346   2.996  14.284  0.00  0.00    +0.000 OA
ATOM     20  N   UNL     1      46.877   4.407  15.997  0.00  0.00    +0.000 N 
ATOM     21  H   UNL     1      46.584   5.329  16.296  0.00  0.00    +0.000 HD
BRANCH  18  29
ATOM     22  C   UNL     1      44.344   4.905  12.648  0.00  0.00    +0.000 A 
ATOM     23  N   UNL     1      43.416   5.483  11.863  0.00  0.00    +0.000 NA
ATOM     24  C   UNL     1      43.727   6.643  11.278  0.00  0.00    +0.000 A 
ATOM     25  N   UNL     1      44.882   7.299  11.362  0.00  0.00    +0.000 NA
ATOM     26  C   UNL     1      45.772   6.695  12.166  0.00  0.00    +0.000 A 
ATOM     27  S   UNL     1      47.312   7.373  12.380  0.00  0.00    +0.000 S 
ATOM     28  C   UNL     1      47.761   6.138  13.458  0.00  0.00    +0.000 A 
ATOM     29  C   UNL     1      46.757   5.203  13.693  0.00  0.00    +0.000 A 
ATOM     30  C   UNL     1      45.588   5.514  12.879  0.00  0.00    +0.000 A 
BRANCH  22  32
ATOM     31  C   UNL     1      43.510   2.748  12.337  0.00  0.00    +0.000 C 
ATOM     32  O   UNL     1      44.028   3.709  13.254  0.00  0.00    +0.000 OA
ENDBRANCH  22  32
ENDBRANCH  18  29
ENDBRANCH   1  20
TORSDOF 8
ENDMDL
MODEL 7
REMARK VINA RESULT:    -7.021      1.713      3.177
REMARK INTER + INTRA:         -11.502
REMARK INTER:                 -10.933
REMARK INTRA:                  -0.569
REMARK UNBOUND:                -1.197
REMARK  Name = 
REMARK  9 active torsions:
REMARK  status: ('A' for Active; 'I' for Inactive)
REMARK    1  A    between atoms: C_1  and  O_2
REMARK    2  A    between atoms: O_2  and  C_3
REMARK    3  A    between atoms: C_10  and  C_11
REMARK    4  A    between atoms: N_13  and  C_14
REMARK    5  A    between atoms: C_14  and  C_15
REMARK    6  A    between atoms: C_18  and  C_19
REMARK    7  A    between atoms: C_19  and  S_20
REMARK    8  A    between atoms: S_20  and  C_21
REMARK    9  A    between atoms: C_21  and  C_22
REMARK                            x       y       z     vdW  Elec       q    Type
REMARK                         _______ _______ _______ _____ _____    ______ ____
ROOT
ATOM      1  C   UNL     1      47.420   4.173  15.586  0.00  0.00    +0.000 C 
ENDROOT
BRANCH   1   2
ATOM      2  C   UNL     1      46.794   4.582  14.273  0.00  0.00    +0.000 A 
ATOM      3  C   UNL     1      47.265   5.706  13.580  0.00  0.00    +0.000 A 
ATOM      4  C   UNL     1      46.796   6.007  12.293  0.00  0.00    +0.000 A 
ATOM      5  C   UNL     1      45.845   5.195  11.658  0.00  0.00    +0.000 A 
ATOM      6  C   UNL     1      45.304   4.128  12.393  0.00  0.00    +0.000 A 
ATOM      7  C   UNL     1      45.770   3.828  13.684  0.00  0.00    +0.000 A 
BRANCH   5   8
ATOM      8  C   UNL     1      45.413   5.468  10.226  0.00  0.00    +0.000 C 
BRANCH   8   9
ATOM      9  S   UNL     1      44.065   4.350   9.675  0.00  0.00    +0.000 S 
BRANCH   9  10
ATOM     10  C   UNL     1      44.953   2.756   9.658  0.00  0.00    +0.000 C 
BRANCH  10  11
ATOM     11  C   UNL     1      45.769   2.564   8.394  0.00  0.00    +0.000 A 
ATOM     12  C   UNL     1      45.907   3.609   7.463  0.00  0.00    +0.000 A 
ATOM     13  C   UNL     1      46.681   3.442   6.310  0.00  0.00    +0.000 A 
ATOM     14  C   UNL     1      47.315   2.229   6.078  0.00  0.00    +0.000 A 
ATOM     15  F   UNL     1      48.063   2.072   4.977  0.00  0.00    +0.000 F 
ATOM     16  C   UNL     1      47.183   1.174   6.975  0.00  0.00    +0.000 A 
ATOM     17  C   UNL     1      46.410   1.339   8.129  0.00  0.00    +0.000 A 
ENDBRANCH  10  11
ENDBRANCH   9  10
ENDBRANCH   8   9
ENDBRANCH   5   8
ENDBRANCH   1   2
BRANCH   1  20
ATOM     18  C   UNL     1      48.646   5.695  17.076  0.00  0.00    +0.000 C 
ATOM     19  O   UNL     1      49.725   5.216  16.725  0.00  0.00    +0.000 OA
ATOM     20  N   UNL     1      47.463   5.238  16.555  0.00  0.00    +0.000 N 
ATOM     21  H   UNL     1      46.584   5.650  16.842  0.00  0.00    +0.000 HD
BRANCH  18  29
ATOM     22  C   UNL     1      48.333   9.107  16.904  0.00  0.00    +0.000 A 
ATOM     23  N   UNL     1      48.110  10.418  17.111  0.00  0.00    +0.000 NA
ATOM     24  C   UNL     1      48.008  10.843  18.373  0.00  0.00    +0.000 A 
ATOM     25  N   UNL     1      48.127  10.111  19.478  0.00  0.00    +0.000 NA
ATOM     26  C   UNL     1      48.334   8.808  19.224  0.00  0.00    +0.000 A 
ATOM     27  S   UNL     1      48.534   7.720  20.511  0.00  0.00    +0.000 S 
ATOM     28  C   UNL     1      48.697   6.408  19.440  0.00  0.00    +0.000 A 
ATOM     29  C   UNL     1      48.586   6.759  18.099  0.00  0.00    +0.000 A 
ATOM     30  C   UNL     1      48.419   8.203  17.974  0.00  0.00    +0.000 A 
BRANCH  22  32
ATOM     31  C   UNL     1      49.774   8.710  15.113  0.00  0.00    +0.000 C 
ATOM     32  O   UNL     1      48.437   8.664  15.604  0.00  0.00    +0.000 OA
ENDBRANCH  22  32
ENDBRANCH  18  29
ENDBRANCH   1  20
TORSDOF 8
ENDMDL
MODEL 8
REMARK VINA RESULT:    -6.796      4.993      6.878
REMARK INTER + INTRA:         -11.171
REMARK INTER:                 -10.071
REMARK INTRA:                  -1.100
REMARK UNBOUND:                -1.197
REMARK  Name = 
REMARK  9 active torsions:
REMARK  status: ('A' for Active; 'I' for Inactive)
REMARK    1  A    between atoms: C_1  and  O_2
REMARK    2  A    between atoms: O_2  and  C_3
REMARK    3  A    between atoms: C_10  and  C_11
REMARK    4  A    between atoms: N_13  and  C_14
REMARK    5  A    between atoms: C_14  and  C_15
REMARK    6  A    between atoms: C_18  and  C_19
REMARK    7  A    between atoms: C_19  and  S_20
REMARK    8  A    between atoms: S_20  and  C_21
REMARK    9  A    between atoms: C_21  and  C_22
REMARK                            x       y       z     vdW  Elec       q    Type
REMARK                         _______ _______ _______ _____ _____    ______ ____
ROOT
ATOM      1  C   UNL     1      49.866   7.569  12.992  0.00  0.00    +0.000 C 
ENDROOT
BRANCH   1   2
ATOM      2  C   UNL     1      48.462   7.030  12.847  0.00  0.00    +0.000 A 
ATOM      3  C   UNL     1      47.710   7.304  11.697  0.00  0.00    +0.000 A 
ATOM      4  C   UNL     1      46.469   6.688  11.484  0.00  0.00    +0.000 A 
ATOM      5  C   UNL     1      45.941   5.778  12.412  0.00  0.00    +0.000 A 
ATOM      6  C   UNL     1      46.650   5.581  13.608  0.00  0.00    +0.000 A 
ATOM      7  C   UNL     1      47.892   6.201  13.824  0.00  0.00    +0.000 A 
BRANCH   5   8
ATOM      8  C   UNL     1      44.643   5.038  12.131  0.00  0.00    +0.000 C 
BRANCH   8   9
ATOM      9  S   UNL     1      44.913   3.254  11.783  0.00  0.00    +0.000 S 
BRANCH   9  10
ATOM     10  C   UNL     1      44.156   3.129  10.128  0.00  0.00    +0.000 C 
BRANCH  10  11
ATOM     11  C   UNL     1      45.190   2.943   9.033  0.00  0.00    +0.000 A 
ATOM     12  C   UNL     1      45.675   1.662   8.715  0.00  0.00    +0.000 A 
ATOM     13  C   UNL     1      46.608   1.486   7.687  0.00  0.00    +0.000 A 
ATOM     14  C   UNL     1      47.066   2.589   6.979  0.00  0.00    +0.000 A 
ATOM     15  F   UNL     1      47.954   2.419   5.990  0.00  0.00    +0.000 F 
ATOM     16  C   UNL     1      46.613   3.868   7.283  0.00  0.00    +0.000 A 
ATOM     17  C   UNL     1      45.680   4.046   8.310  0.00  0.00    +0.000 A 
ENDBRANCH  10  11
ENDBRANCH   9  10
ENDBRANCH   8   9
ENDBRANCH   5   8
ENDBRANCH   1   2
BRANCH   1  20
ATOM     18  C   UNL     1      51.753   8.372  11.638  0.00  0.00    +0.000 C 
ATOM     19  O   UNL     1      52.521   8.269  12.595  0.00  0.00    +0.000 OA
ATOM     20  N   UNL     1      50.428   8.040  11.752  0.00  0.00    +0.000 N 
ATOM     21  H   UNL     1      49.810   8.116  10.953  0.00  0.00    +0.000 HD
BRANCH  18  29
ATOM     22  C   UNL     1      53.214   6.893   8.909  0.00  0.00    +0.000 A 
ATOM     23  N   UNL     1      53.684   6.547   7.696  0.00  0.00    +0.000 NA
ATOM     24  C   UNL     1      53.795   7.506   6.773  0.00  0.00    +0.000 A 
ATOM     25  N   UNL     1      53.511   8.798   6.920  0.00  0.00    +0.000 NA
ATOM     26  C   UNL     1      53.033   9.095   8.139  0.00  0.00    +0.000 A 
ATOM     27  S   UNL     1      52.636  10.700   8.521  0.00  0.00    +0.000 S 
ATOM     28  C   UNL     1      52.126  10.254  10.081  0.00  0.00    +0.000 A 
ATOM     29  C   UNL     1      52.227   8.890  10.338  0.00  0.00    +0.000 A 
ATOM     30  C   UNL     1      52.816   8.210   9.190  0.00  0.00    +0.000 A 
BRANCH  22  32
ATOM     31  C   UNL     1      54.341   5.594  10.486  0.00  0.00    +0.000 C 
ATOM     32  O   UNL     1      53.098   5.908   9.865  0.00  0.00    +0.000 OA
ENDBRANCH  22  32
ENDBRANCH  18  29
ENDBRANCH   1  20
TORSDOF 8
ENDMDL
MODEL 9
REMARK VINA RESULT:    -6.740      3.260      4.439
REMARK INTER + INTRA:         -11.088
REMARK INTER:                 -10.336
REMARK INTRA:                  -0.753
REMARK UNBOUND:                -1.197
REMARK  Name = 
REMARK  9 active torsions:
REMARK  status: ('A' for Active; 'I' for Inactive)
REMARK    1  A    between atoms: C_1  and  O_2
REMARK    2  A    between atoms: O_2  and  C_3
REMARK    3  A    between atoms: C_10  and  C_11
REMARK    4  A    between atoms: N_13  and  C_14
REMARK    5  A    between atoms: C_14  and  C_15
REMARK    6  A    between atoms: C_18  and  C_19
REMARK    7  A    between atoms: C_19  and  S_20
REMARK    8  A    between atoms: S_20  and  C_21
REMARK    9  A    between atoms: C_21  and  C_22
REMARK                            x       y       z     vdW  Elec       q    Type
REMARK                         _______ _______ _______ _____ _____    ______ ____
ROOT
ATOM      1  C   UNL     1      47.810   3.922  17.051  0.00  0.00    +0.000 C 
ENDROOT
BRANCH   1   2
ATOM      2  C   UNL     1      47.639   4.470  15.654  0.00  0.00    +0.000 A 
ATOM      3  C   UNL     1      47.015   3.703  14.661  0.00  0.00    +0.000 A 
ATOM      4  C   UNL     1      46.715   4.254  13.407  0.00  0.00    +0.000 A 
ATOM      5  C   UNL     1      47.027   5.588  13.107  0.00  0.00    +0.000 A 
ATOM      6  C   UNL     1      47.740   6.323  14.068  0.00  0.00    +0.000 A 
ATOM      7  C   UNL     1      48.044   5.770  15.323  0.00  0.00    +0.000 A 
BRANCH   5   8
ATOM      8  C   UNL     1      46.612   6.211  11.783  0.00  0.00    +0.000 C 
BRANCH   8   9
ATOM      9  S   UNL     1      44.824   6.626  11.733  0.00  0.00    +0.000 S 
BRANCH   9  10
ATOM     10  C   UNL     1      44.110   4.962  11.515  0.00  0.00    +0.000 C 
BRANCH  10  11
ATOM     11  C   UNL     1      44.686   4.241  10.311  0.00  0.00    +0.000 A 
ATOM     12  C   UNL     1      45.258   4.962   9.249  0.00  0.00    +0.000 A 
ATOM     13  C   UNL     1      45.814   4.298   8.150  0.00  0.00    +0.000 A 
ATOM     14  C   UNL     1      45.794   2.911   8.105  0.00  0.00    +0.000 A 
ATOM     15  F   UNL     1      46.333   2.274   7.056  0.00  0.00    +0.000 F 
ATOM     16  C   UNL     1      45.222   2.173   9.135  0.00  0.00    +0.000 A 
ATOM     17  C   UNL     1      44.666   2.836  10.235  0.00  0.00    +0.000 A 
ENDBRANCH  10  11
ENDBRANCH   9  10
ENDBRANCH   8   9
ENDBRANCH   5   8
ENDBRANCH   1   2
BRANCH   1  20
ATOM     18  C   UNL     1      49.856   2.564  16.946  0.00  0.00    +0.000 C 
ATOM     19  O   UNL     1      49.309   1.747  16.205  0.00  0.00    +0.000 OA
ATOM     20  N   UNL     1      49.184   3.669  17.402  0.00  0.00    +0.000 N 
ATOM     21  H   UNL     1      49.650   4.342  17.999  0.00  0.00    +0.000 HD
BRANCH  18  29
ATOM     22  C   UNL     1      52.414   4.724  17.695  0.00  0.00    +0.000 A 
ATOM     23  N   UNL     1      53.520   5.345  18.146  0.00  0.00    +0.000 NA
ATOM     24  C   UNL     1      54.521   4.587  18.601  0.00  0.00    +0.000 A 
ATOM     25  N   UNL     1      54.565   3.257  18.642  0.00  0.00    +0.000 NA
ATOM     26  C   UNL     1      53.437   2.681  18.197  0.00  0.00    +0.000 A 
ATOM     27  S   UNL     1      53.316   0.989  18.152  0.00  0.00    +0.000 S 
ATOM     28  C   UNL     1      51.725   1.069  17.556  0.00  0.00    +0.000 A 
ATOM     29  C   UNL     1      51.248   2.367  17.397  0.00  0.00    +0.000 A 
ATOM     30  C   UNL     1      52.294   3.326  17.734  0.00  0.00    +0.000 A 
BRANCH  22  32
ATOM     31  C   UNL     1      51.830   6.603  16.442  0.00  0.00    +0.000 C 
ATOM     32  O   UNL     1      51.379   5.502  17.225  0.00  0.00    +0.000 OA
ENDBRANCH  22  32
ENDBRANCH  18  29
ENDBRANCH   1  20
TORSDOF 8
ENDMDL
