MODEL 1
REMARK VINA RESULT:    -8.111      0.000      0.000
REMARK INTER + INTRA:         -12.079
REMARK INTER:                 -10.956
REMARK INTRA:                  -1.123
REMARK UNBOUND:                -1.123
REMARK  Name = 
REMARK  7 active torsions:
REMARK  status: ('A' for Active; 'I' for Inactive)
REMARK    1  A    between atoms: C_1  and  C_2
REMARK    2  A    between atoms: C_2  and  C_3
REMARK    3  A    between atoms: C_7  and  C_8
REMARK    4  A    between atoms: C_8  and  C_9
REMARK    5  A    between atoms: C_9  and  N_10
REMARK    6  A    between atoms: N_10  and  C_11
REMARK    7  A    between atoms: C_14  and  C_15
REMARK                            x       y       z     vdW  Elec       q    Type
REMARK                         _______ _______ _______ _____ _____    ______ ____
ROOT
ATOM      1  C   UNL     1      43.194   4.584  11.119  0.00  0.00    +0.000 C 
ENDROOT
BRANCH   1   2
ATOM      2  N   UNL     1      43.724   4.976   9.807  0.00  0.00    +0.000 N 
ATOM      3  H   UNL     1      44.084   5.928   9.804  0.00  0.00    +0.000 HD
BRANCH   2   4
ATOM      4  C   UNL     1      44.633   4.085   9.201  0.00  0.00    +0.000 A 
ATOM      5  C   UNL     1      44.584   2.701   9.394  0.00  0.00    +0.000 A 
ATOM      6  C   UNL     1      45.467   1.838   8.738  0.00  0.00    +0.000 A 
ATOM      7  C   UNL     1      46.400   2.342   7.832  0.00  0.00    +0.000 A 
ATOM      8  C   UNL     1      46.437   3.716   7.589  0.00  0.00    +0.000 A 
ATOM      9  C   UNL     1      45.548   4.574   8.258  0.00  0.00    +0.000 A 
BRANCH   7  10
ATOM     10  C   UNL     1      47.315   1.375   7.171  0.00  0.00    +0.000 C 
ATOM     11  N   UNL     1      48.395   1.880   6.501  0.00  0.00    +0.000 N 
ATOM     12  O   UNL     1      47.099   0.170   7.184  0.00  0.00    +0.000 OA
ATOM     13  H   UNL     1      48.468   2.856   6.253  0.00  0.00    +0.000 HD
ATOM     14  H   UNL     1      48.923   1.213   5.955  0.00  0.00    +0.000 HD
ENDBRANCH   7  10
ENDBRANCH   2   4
ENDBRANCH   1   2
BRANCH   1  15
ATOM     15  C   UNL     1      43.585   5.585  12.215  0.00  0.00    +0.000 C 
BRANCH  15  20
ATOM     16  C   UNL     1      47.276   6.314  12.950  0.00  0.00    +0.000 A 
ATOM     17  C   UNL     1      47.638   5.103  13.574  0.00  0.00    +0.000 A 
ATOM     18  C   UNL     1      46.725   4.056  13.724  0.00  0.00    +0.000 A 
ATOM     19  C   UNL     1      45.420   4.196  13.262  0.00  0.00    +0.000 A 
ATOM     20  C   UNL     1      45.029   5.374  12.621  0.00  0.00    +0.000 A 
ATOM     21  C   UNL     1      45.964   6.413  12.453  0.00  0.00    +0.000 A 
BRANCH  16  23
ATOM     22  C   UNL     1      48.752   7.685  11.474  0.00  0.00    +0.000 C 
ATOM     23  C   UNL     1      48.278   7.483  12.923  0.00  0.00    +0.000 C 
ATOM     24  C   UNL     1      47.662   8.757  13.513  0.00  0.00    +0.000 C 
ATOM     25  C   UNL     1      48.087   8.755  14.974  0.00  0.00    +0.000 C 
ATOM     26  O   UNL     1      49.097   7.754  15.140  0.00  0.00    +0.000 OA
ATOM     27  C   UNL     1      49.510   7.346  13.832  0.00  0.00    +0.000 C 
ENDBRANCH  16  23
ENDBRANCH  15  20
ENDBRANCH   1  15
TORSDOF 6
ENDMDL
MODEL 2
REMARK VINA RESULT:    -8.106      0.803      1.534
REMARK INTER + INTRA:         -12.073
REMARK INTER:                 -11.281
REMARK INTRA:                  -0.791
REMARK UNBOUND:                -1.123
REMARK  Name = 
REMARK  7 active torsions:
REMARK  status: ('A' for Active; 'I' for Inactive)
REMARK    1  A    between atoms: C_1  and  C_2
REMARK    2  A    between atoms: C_2  and  C_3
REMARK    3  A    between atoms: C_7  and  C_8
REMARK    4  A    between atoms: C_8  and  C_9
REMARK    5  A    between atoms: C_9  and  N_10
REMARK    6  A    between atoms: N_10  and  C_11
REMARK    7  A    between atoms: C_14  and  C_15
REMARK                            x       y       z     vdW  Elec       q    Type
REMARK                         _______ _______ _______ _____ _____    ______ ____
ROOT
ATOM      1  C   UNL     1      43.086   4.213  11.169  0.00  0.00    +0.000 C 
ENDROOT
BRANCH   1   2
ATOM      2  N   UNL     1      43.723   4.823   9.995  0.00  0.00    +0.000 N 
ATOM      3  H   UNL     1      44.165   5.713  10.214  0.00  0.00    +0.000 HD
BRANCH   2   4
ATOM      4  C   UNL     1      44.582   3.997   9.242  0.00  0.00    +0.000 A 
ATOM      5  C   UNL     1      45.540   4.503   8.357  0.00  0.00    +0.000 A 
ATOM      6  C   UNL     1      46.413   3.661   7.664  0.00  0.00    +0.000 A 
ATOM      7  C   UNL     1      46.378   2.283   7.875  0.00  0.00    +0.000 A 
ATOM      8  C   UNL     1      45.461   1.759   8.788  0.00  0.00    +0.000 A 
ATOM      9  C   UNL     1      44.585   2.615   9.476  0.00  0.00    +0.000 A 
BRANCH   7  10
ATOM     10  C   UNL     1      47.328   1.439   7.104  0.00  0.00    +0.000 C 
ATOM     11  N   UNL     1      48.398   2.060   6.521  0.00  0.00    +0.000 N 
ATOM     12  O   UNL     1      47.149   0.238   6.953  0.00  0.00    +0.000 OA
ATOM     13  H   UNL     1      48.443   3.062   6.405  0.00  0.00    +0.000 HD
ATOM     14  H   UNL     1      48.951   1.487   5.897  0.00  0.00    +0.000 HD
ENDBRANCH   7  10
ENDBRANCH   2   4
ENDBRANCH   1   2
BRANCH   1  15
ATOM     15  C   UNL     1      43.323   5.040  12.441  0.00  0.00    +0.000 C 
BRANCH  15  20
ATOM     16  C   UNL     1      46.791   6.598  12.929  0.00  0.00    +0.000 A 
ATOM     17  C   UNL     1      47.486   5.479  13.430  0.00  0.00    +0.000 A 
ATOM     18  C   UNL     1      46.864   4.236  13.575  0.00  0.00    +0.000 A 
ATOM     19  C   UNL     1      45.525   4.081  13.231  0.00  0.00    +0.000 A 
ATOM     20  C   UNL     1      44.808   5.162  12.713  0.00  0.00    +0.000 A 
ATOM     21  C   UNL     1      45.452   6.404  12.548  0.00  0.00    +0.000 A 
BRANCH  16  23
ATOM     22  C   UNL     1      46.398   9.061  12.815  0.00  0.00    +0.000 C 
ATOM     23  C   UNL     1      47.482   7.974  12.909  0.00  0.00    +0.000 C 
ATOM     24  C   UNL     1      48.384   8.161  14.134  0.00  0.00    +0.000 C 
ATOM     25  C   UNL     1      49.769   7.739  13.666  0.00  0.00    +0.000 C 
ATOM     26  O   UNL     1      49.737   7.616  12.240  0.00  0.00    +0.000 OA
ATOM     27  C   UNL     1      48.512   8.204  11.791  0.00  0.00    +0.000 C 
ENDBRANCH  16  23
ENDBRANCH  15  20
ENDBRANCH   1  15
TORSDOF 6
ENDMDL
MODEL 3
REMARK VINA RESULT:    -7.891      2.239      3.466
REMARK INTER + INTRA:         -11.782
REMARK INTER:                 -10.998
REMARK INTRA:                  -0.785
REMARK UNBOUND:                -1.123
REMARK  Name = 
REMARK  7 active torsions:
REMARK  status: ('A' for Active; 'I' for Inactive)
REMARK    1  A    between atoms: C_1  and  C_2
REMARK    2  A    between atoms: C_2  and  C_3
REMARK    3  A    between atoms: C_7  and  C_8
REMARK    4  A    between atoms: C_8  and  C_9
REMARK    5  A    between atoms: C_9  and  N_10
REMARK    6  A    between atoms: N_10  and  C_11
REMARK    7  A    between atoms: C_14  and  C_15
REMARK                            x       y       z     vdW  Elec       q    Type
REMARK                         _______ _______ _______ _____ _____    ______ ____
ROOT
ATOM      1  C   UNL     1      44.710   5.200  11.625  0.00  0.00    +0.000 C 
ENDROOT
BRANCH   1   2
ATOM      2  N   UNL     1      43.997   4.535  10.527  0.00  0.00    +0.000 N 
ATOM      3  H   UNL     1      43.314   5.146  10.084  0.00  0.00    +0.000 HD
BRANCH   2   4
ATOM      4  C   UNL     1      44.790   3.875   9.566  0.00  0.00    +0.000 A 
ATOM      5  C   UNL     1      45.632   4.554   8.680  0.00  0.00    +0.000 A 
ATOM      6  C   UNL     1      46.446   3.868   7.774  0.00  0.00    +0.000 A 
ATOM      7  C   UNL     1      46.468   2.474   7.763  0.00  0.00    +0.000 A 
ATOM      8  C   UNL     1      45.669   1.775   8.669  0.00  0.00    +0.000 A 
ATOM      9  C   UNL     1      44.852   2.475   9.573  0.00  0.00    +0.000 A 
BRANCH   7  10
ATOM     10  C   UNL     1      47.349   1.804   6.771  0.00  0.00    +0.000 C 
ATOM     11  N   UNL     1      48.378   2.532   6.242  0.00  0.00    +0.000 N 
ATOM     12  O   UNL     1      47.148   0.654   6.403  0.00  0.00    +0.000 OA
ATOM     13  H   UNL     1      48.424   3.538   6.322  0.00  0.00    +0.000 HD
ATOM     14  H   UNL     1      48.877   2.096   5.478  0.00  0.00    +0.000 HD
ENDBRANCH   7  10
ENDBRANCH   2   4
ENDBRANCH   1   2
BRANCH   1  15
ATOM     15  C   UNL     1      45.440   4.194  12.524  0.00  0.00    +0.000 C 
BRANCH  15  20
ATOM     16  C   UNL     1      47.588   4.999  15.595  0.00  0.00    +0.000 A 
ATOM     17  C   UNL     1      48.330   6.084  15.088  0.00  0.00    +0.000 A 
ATOM     18  C   UNL     1      48.121   6.574  13.797  0.00  0.00    +0.000 A 
ATOM     19  C   UNL     1      47.168   5.984  12.973  0.00  0.00    +0.000 A 
ATOM     20  C   UNL     1      46.399   4.918  13.445  0.00  0.00    +0.000 A 
ATOM     21  C   UNL     1      46.602   4.449  14.758  0.00  0.00    +0.000 A 
BRANCH  16  23
ATOM     22  C   UNL     1      47.125   5.159  18.044  0.00  0.00    +0.000 C 
ATOM     23  C   UNL     1      47.944   4.414  16.975  0.00  0.00    +0.000 C 
ATOM     24  C   UNL     1      47.708   2.900  17.016  0.00  0.00    +0.000 C 
ATOM     25  C   UNL     1      49.061   2.287  16.686  0.00  0.00    +0.000 C 
ATOM     26  O   UNL     1      50.046   3.324  16.752  0.00  0.00    +0.000 OA
ATOM     27  C   UNL     1      49.428   4.456  17.371  0.00  0.00    +0.000 C 
ENDBRANCH  16  23
ENDBRANCH  15  20
ENDBRANCH   1  15
TORSDOF 6
ENDMDL
MODEL 4
REMARK VINA RESULT:    -7.506      1.209      2.110
REMARK INTER + INTRA:         -11.262
REMARK INTER:                 -10.591
REMARK INTRA:                  -0.671
REMARK UNBOUND:                -1.123
REMARK  Name = 
REMARK  7 active torsions:
REMARK  status: ('A' for Active; 'I' for Inactive)
REMARK    1  A    between atoms: C_1  and  C_2
REMARK    2  A    between atoms: C_2  and  C_3
REMARK    3  A    between atoms: C_7  and  C_8
REMARK    4  A    between atoms: C_8  and  C_9
REMARK    5  A    between atoms: C_9  and  N_10
REMARK    6  A    between atoms: N_10  and  C_11
REMARK    7  A    between atoms: C_14  and  C_15
REMARK                            x       y       z     vdW  Elec       q    Type
REMARK                         _______ _______ _______ _____ _____    ______ ____
ROOT
ATOM      1  C   UNL     1      43.612   4.587  11.376  0.00  0.00    +0.000 C 
ENDROOT
BRANCH   1   2
ATOM      2  N   UNL     1      43.670   4.745   9.918  0.00  0.00    +0.000 N 
ATOM      3  H   UNL     1      43.743   5.720   9.637  0.00  0.00    +0.000 HD
BRANCH   2   4
ATOM      4  C   UNL     1      44.607   3.945   9.232  0.00  0.00    +0.000 A 
ATOM      5  C   UNL     1      44.611   2.549   9.304  0.00  0.00    +0.000 A 
ATOM      6  C   UNL     1      45.521   1.781   8.570  0.00  0.00    +0.000 A 
ATOM      7  C   UNL     1      46.426   2.397   7.707  0.00  0.00    +0.000 A 
ATOM      8  C   UNL     1      46.409   3.788   7.584  0.00  0.00    +0.000 A 
ATOM      9  C   UNL     1      45.494   4.549   8.329  0.00  0.00    +0.000 A 
BRANCH   7  10
ATOM     10  C   UNL     1      47.371   1.527   6.960  0.00  0.00    +0.000 C 
ATOM     11  N   UNL     1      48.509   2.104   6.466  0.00  0.00    +0.000 N 
ATOM     12  O   UNL     1      47.133   0.345   6.752  0.00  0.00    +0.000 OA
ATOM     13  H   UNL     1      48.619   3.105   6.393  0.00  0.00    +0.000 HD
ATOM     14  H   UNL     1      49.065   1.522   5.854  0.00  0.00    +0.000 HD
ENDBRANCH   7  10
ENDBRANCH   2   4
ENDBRANCH   1   2
BRANCH   1  15
ATOM     15  C   UNL     1      45.012   4.565  12.004  0.00  0.00    +0.000 C 
BRANCH  15  20
ATOM     16  C   UNL     1      47.282   7.499  12.971  0.00  0.00    +0.000 A 
ATOM     17  C   UNL     1      46.434   8.575  12.639  0.00  0.00    +0.000 A 
ATOM     18  C   UNL     1      45.143   8.364  12.149  0.00  0.00    +0.000 A 
ATOM     19  C   UNL     1      44.668   7.070  11.967  0.00  0.00    +0.000 A 
ATOM     20  C   UNL     1      45.471   5.977  12.302  0.00  0.00    +0.000 A 
ATOM     21  C   UNL     1      46.762   6.202  12.819  0.00  0.00    +0.000 A 
BRANCH  16  23
ATOM     22  C   UNL     1      49.008   7.073  14.725  0.00  0.00    +0.000 C 
ATOM     23  C   UNL     1      48.738   7.780  13.385  0.00  0.00    +0.000 C 
ATOM     24  C   UNL     1      49.721   7.344  12.293  0.00  0.00    +0.000 C 
ATOM     25  C   UNL     1      49.976   8.602  11.474  0.00  0.00    +0.000 C 
ATOM     26  O   UNL     1      49.442   9.717  12.197  0.00  0.00    +0.000 OA
ATOM     27  C   UNL     1      49.136   9.259  13.518  0.00  0.00    +0.000 C 
ENDBRANCH  16  23
ENDBRANCH  15  20
ENDBRANCH   1  15
TORSDOF 6
ENDMDL
MODEL 5
REMARK VINA RESULT:    -7.399      1.260      1.852
REMARK INTER + INTRA:         -11.118
REMARK INTER:                 -10.128
REMARK INTRA:                  -0.990
REMARK UNBOUND:                -1.123
REMARK  Name = 
REMARK  7 active torsions:
REMARK  status: ('A' for Active; 'I' for Inactive)
REMARK    1  A    between atoms: C_1  and  C_2
REMARK    2  A    between atoms: C_2  and  C_3
REMARK    3  A    between atoms: C_7  and  C_8
REMARK    4  A    between atoms: C_8  and  C_9
REMARK    5  A    between atoms: C_9  and  N_10
REMARK    6  A    between atoms: N_10  and  C_11
REMARK    7  A    between atoms: C_14  and  C_15
REMARK                            x       y       z     vdW  Elec       q    Type
REMARK                         _______ _______ _______ _____ _____    ______ ____
ROOT
ATOM      1  C   UNL     1      44.466   3.409  11.968  0.00  0.00    +0.000 C 
ENDROOT
BRANCH   1   2
ATOM      2  N   UNL     1      43.978   3.560  10.592  0.00  0.00    +0.000 N 
ATOM      3  H   UNL     1      43.524   4.458  10.439  0.00  0.00    +0.000 HD
BRANCH   2   4
ATOM      4  C   UNL     1      44.894   3.269   9.561  0.00  0.00    +0.000 A 
ATOM      5  C   UNL     1      45.228   1.964   9.186  0.00  0.00    +0.000 A 
ATOM      6  C   UNL     1      46.100   1.708   8.124  0.00  0.00    +0.000 A 
ATOM      7  C   UNL     1      46.629   2.761   7.378  0.00  0.00    +0.000 A 
ATOM      8  C   UNL     1      46.273   4.071   7.704  0.00  0.00    +0.000 A 
ATOM      9  C   UNL     1      45.399   4.316   8.776  0.00  0.00    +0.000 A 
BRANCH   7  10
ATOM     10  C   UNL     1      47.555   2.424   6.266  0.00  0.00    +0.000 C 
ATOM     11  N   UNL     1      47.394   3.089   5.082  0.00  0.00    +0.000 N 
ATOM     12  O   UNL     1      48.411   1.556   6.379  0.00  0.00    +0.000 OA
ATOM     13  H   UNL     1      46.558   3.615   4.867  0.00  0.00    +0.000 HD
ATOM     14  H   UNL     1      47.949   2.749   4.308  0.00  0.00    +0.000 HD
ENDBRANCH   7  10
ENDBRANCH   2   4
ENDBRANCH   1   2
BRANCH   1  15
ATOM     15  C   UNL     1      43.893   4.488  12.898  0.00  0.00    +0.000 C 
BRANCH  15  20
ATOM     16  C   UNL     1      46.433   7.335  12.535  0.00  0.00    +0.000 A 
ATOM     17  C   UNL     1      45.685   8.221  11.734  0.00  0.00    +0.000 A 
ATOM     18  C   UNL     1      44.375   7.928  11.347  0.00  0.00    +0.000 A 
ATOM     19  C   UNL     1      43.780   6.734  11.743  0.00  0.00    +0.000 A 
ATOM     20  C   UNL     1      44.483   5.839  12.553  0.00  0.00    +0.000 A 
ATOM     21  C   UNL     1      45.794   6.156  12.958  0.00  0.00    +0.000 A 
BRANCH  16  23
ATOM     22  C   UNL     1      48.705   7.518  11.513  0.00  0.00    +0.000 C 
ATOM     23  C   UNL     1      47.914   7.643  12.827  0.00  0.00    +0.000 C 
ATOM     24  C   UNL     1      48.079   9.023  13.473  0.00  0.00    +0.000 C 
ATOM     25  C   UNL     1      48.099   8.751  14.971  0.00  0.00    +0.000 C 
ATOM     26  O   UNL     1      48.244   7.340  15.163  0.00  0.00    +0.000 OA
ATOM     27  C   UNL     1      48.593   6.773  13.897  0.00  0.00    +0.000 C 
ENDBRANCH  16  23
ENDBRANCH  15  20
ENDBRANCH   1  15
TORSDOF 6
ENDMDL
MODEL 6
REMARK VINA RESULT:    -6.688      4.863      8.179
REMARK INTER + INTRA:         -10.157
REMARK INTER:                  -9.454
REMARK INTRA:                  -0.703
REMARK UNBOUND:                -1.123
REMARK  Name = 
REMARK  7 active torsions:
REMARK  status: ('A' for Active; 'I' for Inactive)
REMARK    1  A    between atoms: C_1  and  C_2
REMARK    2  A    between atoms: C_2  and  C_3
REMARK    3  A    between atoms: C_7  and  C_8
REMARK    4  A    between atoms: C_8  and  C_9
REMARK    5  A    between atoms: C_9  and  N_10
REMARK    6  A    between atoms: N_10  and  C_11
REMARK    7  A    between atoms: C_14  and  C_15
REMARK                            x       y       z     vdW  Elec       q    Type
REMARK                         _______ _______ _______ _____ _____    ______ ____
ROOT
ATOM      1  C   UNL     1      47.999   5.242  15.870  0.00  0.00    +0.000 C 
ENDROOT
BRANCH   1   2
ATOM      2  N   UNL     1      48.259   4.754  17.230  0.00  0.00    +0.000 N 
ATOM      3  H   UNL     1      47.425   4.367  17.667  0.00  0.00    +0.000 HD
BRANCH   2   4
ATOM      4  C   UNL     1      49.365   3.895  17.392  0.00  0.00    +0.000 A 
ATOM      5  C   UNL     1      49.315   2.528  17.103  0.00  0.00    +0.000 A 
ATOM      6  C   UNL     1      50.443   1.712  17.225  0.00  0.00    +0.000 A 
ATOM      7  C   UNL     1      51.670   2.259  17.600  0.00  0.00    +0.000 A 
ATOM      8  C   UNL     1      51.755   3.630  17.849  0.00  0.00    +0.000 A 
ATOM      9  C   UNL     1      50.613   4.439  17.728  0.00  0.00    +0.000 A 
BRANCH   7  10
ATOM     10  C   UNL     1      52.831   1.339  17.717  0.00  0.00    +0.000 C 
ATOM     11  N   UNL     1      52.586   0.057  18.127  0.00  0.00    +0.000 N 
ATOM     12  O   UNL     1      53.976   1.713  17.498  0.00  0.00    +0.000 OA
ATOM     13  H   UNL     1      51.713  -0.215  18.556  0.00  0.00    +0.000 HD
ATOM     14  H   UNL     1      53.404  -0.504  18.323  0.00  0.00    +0.000 HD
ENDBRANCH   7  10
ENDBRANCH   2   4
ENDBRANCH   1   2
BRANCH   1  15
ATOM     15  C   UNL     1      46.917   4.415  15.163  0.00  0.00    +0.000 C 
BRANCH  15  20
ATOM     16  C   UNL     1      45.214   5.067  11.791  0.00  0.00    +0.000 A 
ATOM     17  C   UNL     1      46.007   6.136  11.327  0.00  0.00    +0.000 A 
ATOM     18  C   UNL     1      47.092   6.616  12.065  0.00  0.00    +0.000 A 
ATOM     19  C   UNL     1      47.408   6.046  13.294  0.00  0.00    +0.000 A 
ATOM     20  C   UNL     1      46.658   4.972  13.779  0.00  0.00    +0.000 A 
ATOM     21  C   UNL     1      45.581   4.480  13.015  0.00  0.00    +0.000 A 
BRANCH  16  23
ATOM     22  C   UNL     1      42.834   5.665  11.326  0.00  0.00    +0.000 C 
ATOM     23  C   UNL     1      43.954   4.660  11.005  0.00  0.00    +0.000 C 
ATOM     24  C   UNL     1      44.240   4.573   9.502  0.00  0.00    +0.000 C 
ATOM     25  C   UNL     1      44.565   3.108   9.251  0.00  0.00    +0.000 C 
ATOM     26  O   UNL     1      44.203   2.367  10.422  0.00  0.00    +0.000 OA
ATOM     27  C   UNL     1      43.427   3.238  11.251  0.00  0.00    +0.000 C 
ENDBRANCH  16  23
ENDBRANCH  15  20
ENDBRANCH   1  15
TORSDOF 6
ENDMDL
MODEL 7
REMARK VINA RESULT:    -6.478      3.471      5.751
REMARK INTER + INTRA:          -9.874
REMARK INTER:                  -8.773
REMARK INTRA:                  -1.101
REMARK UNBOUND:                -1.123
REMARK  Name = 
REMARK  7 active torsions:
REMARK  status: ('A' for Active; 'I' for Inactive)
REMARK    1  A    between atoms: C_1  and  C_2
REMARK    2  A    between atoms: C_2  and  C_3
REMARK    3  A    between atoms: C_7  and  C_8
REMARK    4  A    between atoms: C_8  and  C_9
REMARK    5  A    between atoms: C_9  and  N_10
REMARK    6  A    between atoms: N_10  and  C_11
REMARK    7  A    between atoms: C_14  and  C_15
REMARK                            x       y       z     vdW  Elec       q    Type
REMARK                         _______ _______ _______ _____ _____    ______ ____
ROOT
ATOM      1  C   UNL     1      48.383   7.248  13.581  0.00  0.00    +0.000 C 
ENDROOT
BRANCH   1   2
ATOM      2  N   UNL     1      46.931   7.428  13.458  0.00  0.00    +0.000 N 
ATOM      3  H   UNL     1      46.687   8.318  13.028  0.00  0.00    +0.000 HD
BRANCH   2   4
ATOM      4  C   UNL     1      46.209   6.366  12.876  0.00  0.00    +0.000 A 
ATOM      5  C   UNL     1      45.550   6.478  11.647  0.00  0.00    +0.000 A 
ATOM      6  C   UNL     1      44.887   5.391  11.071  0.00  0.00    +0.000 A 
ATOM      7  C   UNL     1      44.905   4.144  11.695  0.00  0.00    +0.000 A 
ATOM      8  C   UNL     1      45.595   3.997  12.899  0.00  0.00    +0.000 A 
ATOM      9  C   UNL     1      46.255   5.098  13.471  0.00  0.00    +0.000 A 
BRANCH   7  10
ATOM     10  C   UNL     1      44.176   3.030  11.035  0.00  0.00    +0.000 C 
ATOM     11  N   UNL     1      44.801   2.386  10.003  0.00  0.00    +0.000 N 
ATOM     12  O   UNL     1      43.040   2.716  11.367  0.00  0.00    +0.000 OA
ATOM     13  H   UNL     1      45.611   2.769   9.539  0.00  0.00    +0.000 HD
ATOM     14  H   UNL     1      44.233   1.724   9.492  0.00  0.00    +0.000 HD
ENDBRANCH   7  10
ENDBRANCH   2   4
ENDBRANCH   1   2
BRANCH   1  15
ATOM     15  C   UNL     1      48.959   8.045  14.759  0.00  0.00    +0.000 C 
BRANCH  15  20
ATOM     16  C   UNL     1      49.670   5.094  17.099  0.00  0.00    +0.000 A 
ATOM     17  C   UNL     1      51.060   5.253  17.266  0.00  0.00    +0.000 A 
ATOM     18  C   UNL     1      51.753   6.309  16.669  0.00  0.00    +0.000 A 
ATOM     19  C   UNL     1      51.074   7.231  15.879  0.00  0.00    +0.000 A 
ATOM     20  C   UNL     1      49.693   7.119  15.705  0.00  0.00    +0.000 A 
ATOM     21  C   UNL     1      49.001   6.064  16.332  0.00  0.00    +0.000 A 
BRANCH  16  23
ATOM     22  C   UNL     1      48.791   4.039  19.185  0.00  0.00    +0.000 C 
ATOM     23  C   UNL     1      48.974   3.844  17.670  0.00  0.00    +0.000 C 
ATOM     24  C   UNL     1      47.645   3.572  16.957  0.00  0.00    +0.000 C 
ATOM     25  C   UNL     1      47.989   2.573  15.861  0.00  0.00    +0.000 C 
ATOM     26  O   UNL     1      49.311   2.081  16.108  0.00  0.00    +0.000 OA
ATOM     27  C   UNL     1      49.680   2.500  17.426  0.00  0.00    +0.000 C 
ENDBRANCH  16  23
ENDBRANCH  15  20
ENDBRANCH   1  15
TORSDOF 6
ENDMDL
MODEL 8
REMARK VINA RESULT:    -6.413      3.814      7.322
REMARK INTER + INTRA:          -9.785
REMARK INTER:                  -8.578
REMARK INTRA:                  -1.207
REMARK UNBOUND:                -1.123
REMARK  Name = 
REMARK  7 active torsions:
REMARK  status: ('A' for Active; 'I' for Inactive)
REMARK    1  A    between atoms: C_1  and  C_2
REMARK    2  A    between atoms: C_2  and  C_3
REMARK    3  A    between atoms: C_7  and  C_8
REMARK    4  A    between atoms: C_8  and  C_9
REMARK    5  A    between atoms: C_9  and  N_10
REMARK    6  A    between atoms: N_10  and  C_11
REMARK    7  A    between atoms: C_14  and  C_15
REMARK                            x       y       z     vdW  Elec       q    Type
REMARK                         _______ _______ _______ _____ _____    ______ ____
ROOT
ATOM      1  C   UNL     1      49.389   7.033  12.864  0.00  0.00    +0.000 C 
ENDROOT
BRANCH   1   2
ATOM      2  N   UNL     1      49.001   7.417  14.226  0.00  0.00    +0.000 N 
ATOM      3  H   UNL     1      48.282   8.138  14.235  0.00  0.00    +0.000 HD
BRANCH   2   4
ATOM      4  C   UNL     1      48.683   6.369  15.113  0.00  0.00    +0.000 A 
ATOM      5  C   UNL     1      49.279   6.229  16.370  0.00  0.00    +0.000 A 
ATOM      6  C   UNL     1      48.903   5.209  17.249  0.00  0.00    +0.000 A 
ATOM      7  C   UNL     1      47.883   4.323  16.903  0.00  0.00    +0.000 A 
ATOM      8  C   UNL     1      47.242   4.471  15.672  0.00  0.00    +0.000 A 
ATOM      9  C   UNL     1      47.631   5.498  14.796  0.00  0.00    +0.000 A 
BRANCH   7  10
ATOM     10  C   UNL     1      47.534   3.255  17.877  0.00  0.00    +0.000 C 
ATOM     11  N   UNL     1      48.310   3.141  18.998  0.00  0.00    +0.000 N 
ATOM     12  O   UNL     1      46.614   2.474  17.676  0.00  0.00    +0.000 OA
ATOM     13  H   UNL     1      49.212   3.587  19.078  0.00  0.00    +0.000 HD
ATOM     14  H   UNL     1      48.131   2.329  19.574  0.00  0.00    +0.000 HD
ENDBRANCH   7  10
ENDBRANCH   2   4
ENDBRANCH   1   2
BRANCH   1  15
ATOM     15  C   UNL     1      48.858   8.023  11.818  0.00  0.00    +0.000 C 
BRANCH  15  20
ATOM     16  C   UNL     1      45.345   6.558  11.364  0.00  0.00    +0.000 A 
ATOM     17  C   UNL     1      44.573   7.654  11.798  0.00  0.00    +0.000 A 
ATOM     18  C   UNL     1      45.166   8.856  12.195  0.00  0.00    +0.000 A 
ATOM     19  C   UNL     1      46.550   8.990  12.177  0.00  0.00    +0.000 A 
ATOM     20  C   UNL     1      47.349   7.933  11.735  0.00  0.00    +0.000 A 
ATOM     21  C   UNL     1      46.739   6.735  11.315  0.00  0.00    +0.000 A 
BRANCH  16  23
ATOM     22  C   UNL     1      45.200   4.679   9.726  0.00  0.00    +0.000 C 
ATOM     23  C   UNL     1      44.654   5.216  11.061  0.00  0.00    +0.000 C 
ATOM     24  C   UNL     1      44.848   4.218  12.208  0.00  0.00    +0.000 C 
ATOM     25  C   UNL     1      43.607   4.375  13.074  0.00  0.00    +0.000 C 
ATOM     26  O   UNL     1      42.652   5.153  12.344  0.00  0.00    +0.000 OA
ATOM     27  C   UNL     1      43.119   5.239  10.994  0.00  0.00    +0.000 C 
ENDBRANCH  16  23
ENDBRANCH  15  20
ENDBRANCH   1  15
TORSDOF 6
ENDMDL
MODEL 9
REMARK VINA RESULT:    -6.376      4.137      6.363
REMARK INTER + INTRA:          -9.735
REMARK INTER:                  -8.373
REMARK INTRA:                  -1.362
REMARK UNBOUND:                -1.123
REMARK  Name = 
REMARK  7 active torsions:
REMARK  status: ('A' for Active; 'I' for Inactive)
REMARK    1  A    between atoms: C_1  and  C_2
REMARK    2  A    between atoms: C_2  and  C_3
REMARK    3  A    between atoms: C_7  and  C_8
REMARK    4  A    between atoms: C_8  and  C_9
REMARK    5  A    between atoms: C_9  and  N_10
REMARK    6  A    between atoms: N_10  and  C_11
REMARK    7  A    between atoms: C_14  and  C_15
REMARK                            x       y       z     vdW  Elec       q    Type
REMARK                         _______ _______ _______ _____ _____    ______ ____
ROOT
ATOM      1  C   UNL     1      49.109   7.997  13.191  0.00  0.00    +0.000 C 
ENDROOT
BRANCH   1   2
ATOM      2  N   UNL     1      48.759   6.627  12.798  0.00  0.00    +0.000 N 
ATOM      3  H   UNL     1      49.273   5.928  13.330  0.00  0.00    +0.000 HD
BRANCH   2   4
ATOM      4  C   UNL     1      47.385   6.316  12.742  0.00  0.00    +0.000 A 
ATOM      5  C   UNL     1      46.828   5.212  13.395  0.00  0.00    +0.000 A 
ATOM      6  C   UNL     1      45.453   4.960  13.365  0.00  0.00    +0.000 A 
ATOM      7  C   UNL     1      44.591   5.840  12.712  0.00  0.00    +0.000 A 
ATOM      8  C   UNL     1      45.119   6.974  12.092  0.00  0.00    +0.000 A 
ATOM      9  C   UNL     1      46.503   7.215  12.125  0.00  0.00    +0.000 A 
BRANCH   7  10
ATOM     10  C   UNL     1      43.141   5.514  12.710  0.00  0.00    +0.000 C 
ATOM     11  N   UNL     1      42.360   6.103  11.755  0.00  0.00    +0.000 N 
ATOM     12  O   UNL     1      42.644   4.778  13.552  0.00  0.00    +0.000 OA
ATOM     13  H   UNL     1      42.673   6.897  11.215  0.00  0.00    +0.000 HD
ATOM     14  H   UNL     1      41.363   5.967  11.858  0.00  0.00    +0.000 HD
ENDBRANCH   7  10
ENDBRANCH   2   4
ENDBRANCH   1   2
BRANCH   1  15
ATOM     15  C   UNL     1      48.759   8.276  14.660  0.00  0.00    +0.000 C 
BRANCH  15  20
ATOM     16  C   UNL     1      49.727   5.480  17.096  0.00  0.00    +0.000 A 
ATOM     17  C   UNL     1      51.129   5.621  17.075  0.00  0.00    +0.000 A 
ATOM     18  C   UNL     1      51.752   6.619  16.321  0.00  0.00    +0.000 A 
ATOM     19  C   UNL     1      50.989   7.498  15.559  0.00  0.00    +0.000 A 
ATOM     20  C   UNL     1      49.596   7.402  15.570  0.00  0.00    +0.000 A 
ATOM     21  C   UNL     1      48.977   6.408  16.352  0.00  0.00    +0.000 A 
BRANCH  16  23
ATOM     22  C   UNL     1      49.082   4.604  19.344  0.00  0.00    +0.000 C 
ATOM     23  C   UNL     1      49.095   4.288  17.838  0.00  0.00    +0.000 C 
ATOM     24  C   UNL     1      47.694   3.976  17.301  0.00  0.00    +0.000 C 
ATOM     25  C   UNL     1      47.910   2.890  16.257  0.00  0.00    +0.000 C 
ATOM     26  O   UNL     1      49.250   2.403  16.395  0.00  0.00    +0.000 OA
ATOM     27  C   UNL     1      49.765   2.921  17.626  0.00  0.00    +0.000 C 
ENDBRANCH  16  23
ENDBRANCH  15  20
ENDBRANCH   1  15
TORSDOF 6
ENDMDL
