MODEL 1
REMARK VINA RESULT:    -8.010      0.000      0.000
REMARK INTER + INTRA:          -9.989
REMARK INTER:                  -9.414
REMARK INTRA:                  -0.575
REMARK UNBOUND:                -0.575
REMARK  Name = 
REMARK  3 active torsions:
REMARK  status: ('A' for Active; 'I' for Inactive)
REMARK    1  A    between atoms: C_2  and  C_4
REMARK    2  A    between atoms: C_7  and  C_8
REMARK    3  A    between atoms: C_8  and  N_9
REMARK                            x       y       z     vdW  Elec       q    Type
REMARK                         _______ _______ _______ _____ _____    ______ ____
ROOT
ATOM      1  C   UNL     1      46.650   2.666   7.272  0.00  0.00    +0.000 A 
ATOM      2  C   UNL     1      46.066   1.705   8.105  0.00  0.00    +0.000 A 
ATOM      3  C   UNL     1      45.241   2.101   9.162  0.00  0.00    +0.000 A 
ATOM      4  C   UNL     1      44.988   3.461   9.403  0.00  0.00    +0.000 A 
ATOM      5  C   UNL     1      45.588   4.418   8.571  0.00  0.00    +0.000 A 
ATOM      6  C   UNL     1      46.416   4.022   7.516  0.00  0.00    +0.000 A 
ENDROOT
BRANCH   1   8
ATOM      7  N   UNL     1      47.476   3.056   5.011  0.00  0.00    +0.000 N 
ATOM      8  C   UNL     1      47.543   2.293   6.144  0.00  0.00    +0.000 C 
ATOM      9  O   UNL     1      48.336   1.366   6.231  0.00  0.00    +0.000 OA
ATOM     10  H   UNL     1      48.164   2.851   4.296  0.00  0.00    +0.000 HD
ATOM     11  H   UNL     1      47.035   3.963   4.991  0.00  0.00    +0.000 HD
ENDBRANCH   1   8
BRANCH   4  12
ATOM     12  C   UNL     1      44.088   3.892  10.534  0.00  0.00    +0.000 C 
BRANCH  12  13
ATOM     13  N   UNL     1      44.827   4.401  11.683  0.00  0.00    +0.000 N 
ATOM     14  C   UNL     1      45.490   3.602  12.587  0.00  0.00    +0.000 A 
ATOM     15  C   UNL     1      46.215   4.417  13.428  0.00  0.00    +0.000 A 
ATOM     16  C   UNL     1      45.988   5.751  13.022  0.00  0.00    +0.000 A 
ATOM     17  N   UNL     1      46.515   6.890  13.535  0.00  0.00    +0.000 NA
ATOM     18  C   UNL     1      46.112   8.024  12.927  0.00  0.00    +0.000 A 
ATOM     19  C   UNL     1      45.222   8.097  11.866  0.00  0.00    +0.000 A 
ATOM     20  C   UNL     1      44.687   6.923  11.343  0.00  0.00    +0.000 A 
ATOM     21  C   UNL     1      45.102   5.729  11.945  0.00  0.00    +0.000 A 
ENDBRANCH  12  13
ENDBRANCH   4  12
TORSDOF 3
ENDMDL
MODEL 2
REMARK VINA RESULT:    -7.989      1.230      1.678
REMARK INTER + INTRA:          -9.965
REMARK INTER:                  -9.408
REMARK INTRA:                  -0.556
REMARK UNBOUND:                -0.575
REMARK  Name = 
REMARK  3 active torsions:
REMARK  status: ('A' for Active; 'I' for Inactive)
REMARK    1  A    between atoms: C_2  and  C_4
REMARK    2  A    between atoms: C_7  and  C_8
REMARK    3  A    between atoms: C_8  and  N_9
REMARK                            x       y       z     vdW  Elec       q    Type
REMARK                         _______ _______ _______ _____ _____    ______ ____
ROOT
ATOM      1  C   UNL     1      46.434   2.301   7.656  0.00  0.00    +0.000 A 
ATOM      2  C   UNL     1      46.403   3.688   7.470  0.00  0.00    +0.000 A 
ATOM      3  C   UNL     1      45.588   4.486   8.279  0.00  0.00    +0.000 A 
ATOM      4  C   UNL     1      44.793   3.912   9.283  0.00  0.00    +0.000 A 
ATOM      5  C   UNL     1      44.820   2.520   9.454  0.00  0.00    +0.000 A 
ATOM      6  C   UNL     1      45.632   1.721   8.644  0.00  0.00    +0.000 A 
ENDROOT
BRANCH   1   8
ATOM      7  N   UNL     1      48.375   1.964   6.219  0.00  0.00    +0.000 N 
ATOM      8  C   UNL     1      47.275   1.411   6.814  0.00  0.00    +0.000 C 
ATOM      9  O   UNL     1      47.022   0.221   6.684  0.00  0.00    +0.000 OA
ATOM     10  H   UNL     1      48.990   1.321   5.736  0.00  0.00    +0.000 HD
ATOM     11  H   UNL     1      48.755   2.855   6.501  0.00  0.00    +0.000 HD
ENDBRANCH   1   8
BRANCH   4  12
ATOM     12  C   UNL     1      43.923   4.771  10.167  0.00  0.00    +0.000 C 
BRANCH  12  13
ATOM     13  N   UNL     1      44.473   4.943  11.506  0.00  0.00    +0.000 N 
ATOM     14  C   UNL     1      44.018   4.270  12.618  0.00  0.00    +0.000 A 
ATOM     15  C   UNL     1      44.873   4.543  13.664  0.00  0.00    +0.000 A 
ATOM     16  C   UNL     1      45.877   5.406  13.173  0.00  0.00    +0.000 A 
ATOM     17  N   UNL     1      46.948   5.915  13.832  0.00  0.00    +0.000 NA
ATOM     18  C   UNL     1      47.743   6.711  13.090  0.00  0.00    +0.000 A 
ATOM     19  C   UNL     1      47.539   7.039  11.758  0.00  0.00    +0.000 A 
ATOM     20  C   UNL     1      46.438   6.511  11.087  0.00  0.00    +0.000 A 
ATOM     21  C   UNL     1      45.605   5.666  11.830  0.00  0.00    +0.000 A 
ENDBRANCH  12  13
ENDBRANCH   4  12
TORSDOF 3
ENDMDL
MODEL 3
REMARK VINA RESULT:    -7.807      0.776      2.097
REMARK INTER + INTRA:          -9.751
REMARK INTER:                  -9.176
REMARK INTRA:                  -0.575
REMARK UNBOUND:                -0.575
REMARK  Name = 
REMARK  3 active torsions:
REMARK  status: ('A' for Active; 'I' for Inactive)
REMARK    1  A    between atoms: C_2  and  C_4
REMARK    2  A    between atoms: C_7  and  C_8
REMARK    3  A    between atoms: C_8  and  N_9
REMARK                            x       y       z     vdW  Elec       q    Type
REMARK                         _______ _______ _______ _____ _____    ______ ____
ROOT
ATOM      1  C   UNL     1      46.547   2.691   7.473  0.00  0.00    +0.000 A 
ATOM      2  C   UNL     1      45.848   1.869   8.365  0.00  0.00    +0.000 A 
ATOM      3  C   UNL     1      45.022   2.436   9.340  0.00  0.00    +0.000 A 
ATOM      4  C   UNL     1      44.882   3.829   9.440  0.00  0.00    +0.000 A 
ATOM      5  C   UNL     1      45.596   4.645   8.550  0.00  0.00    +0.000 A 
ATOM      6  C   UNL     1      46.426   4.080   7.577  0.00  0.00    +0.000 A 
ENDROOT
BRANCH   1   8
ATOM      7  N   UNL     1      47.742   2.939   5.362  0.00  0.00    +0.000 N 
ATOM      8  C   UNL     1      47.446   2.136   6.428  0.00  0.00    +0.000 C 
ATOM      9  O   UNL     1      47.937   1.019   6.529  0.00  0.00    +0.000 OA
ATOM     10  H   UNL     1      48.436   2.582   4.716  0.00  0.00    +0.000 HD
ATOM     11  H   UNL     1      47.572   3.934   5.366  0.00  0.00    +0.000 HD
ENDBRANCH   1   8
BRANCH   4  12
ATOM     12  C   UNL     1      43.981   4.443  10.482  0.00  0.00    +0.000 C 
BRANCH  12  13
ATOM     13  N   UNL     1      44.703   5.281  11.432  0.00  0.00    +0.000 N 
ATOM     14  C   UNL     1      44.502   6.636  11.572  0.00  0.00    +0.000 A 
ATOM     15  C   UNL     1      45.217   7.064  12.668  0.00  0.00    +0.000 A 
ATOM     16  C   UNL     1      45.872   5.937  13.212  0.00  0.00    +0.000 A 
ATOM     17  N   UNL     1      46.662   5.869  14.311  0.00  0.00    +0.000 NA
ATOM     18  C   UNL     1      47.143   4.640  14.588  0.00  0.00    +0.000 A 
ATOM     19  C   UNL     1      46.902   3.494  13.845  0.00  0.00    +0.000 A 
ATOM     20  C   UNL     1      46.087   3.571  12.718  0.00  0.00    +0.000 A 
ATOM     21  C   UNL     1      45.560   4.833  12.418  0.00  0.00    +0.000 A 
ENDBRANCH  12  13
ENDBRANCH   4  12
TORSDOF 3
ENDMDL
MODEL 4
REMARK VINA RESULT:    -6.263      2.734      6.625
REMARK INTER + INTRA:          -7.936
REMARK INTER:                  -7.354
REMARK INTRA:                  -0.582
REMARK UNBOUND:                -0.575
REMARK  Name = 
REMARK  3 active torsions:
REMARK  status: ('A' for Active; 'I' for Inactive)
REMARK    1  A    between atoms: C_2  and  C_4
REMARK    2  A    between atoms: C_7  and  C_8
REMARK    3  A    between atoms: C_8  and  N_9
REMARK                            x       y       z     vdW  Elec       q    Type
REMARK                         _______ _______ _______ _____ _____    ______ ____
ROOT
ATOM      1  C   UNL     1      46.336   4.683  13.288  0.00  0.00    +0.000 A 
ATOM      2  C   UNL     1      45.772   3.465  12.891  0.00  0.00    +0.000 A 
ATOM      3  C   UNL     1      45.206   3.335  11.619  0.00  0.00    +0.000 A 
ATOM      4  C   UNL     1      45.195   4.418  10.726  0.00  0.00    +0.000 A 
ATOM      5  C   UNL     1      45.751   5.639  11.137  0.00  0.00    +0.000 A 
ATOM      6  C   UNL     1      46.313   5.770  12.410  0.00  0.00    +0.000 A 
ENDROOT
BRANCH   1   8
ATOM      7  N   UNL     1      47.640   6.024  14.852  0.00  0.00    +0.000 N 
ATOM      8  C   UNL     1      46.938   4.871  14.634  0.00  0.00    +0.000 C 
ATOM      9  O   UNL     1      46.784   4.050  15.528  0.00  0.00    +0.000 OA
ATOM     10  H   UNL     1      47.952   6.181  15.802  0.00  0.00    +0.000 HD
ATOM     11  H   UNL     1      47.574   6.825  14.241  0.00  0.00    +0.000 HD
ENDBRANCH   1   8
BRANCH   4  12
ATOM     12  C   UNL     1      44.598   4.278   9.348  0.00  0.00    +0.000 C 
BRANCH  12  13
ATOM     13  N   UNL     1      45.571   3.850   8.351  0.00  0.00    +0.000 N 
ATOM     14  C   UNL     1      46.376   4.713   7.641  0.00  0.00    +0.000 A 
ATOM     15  C   UNL     1      47.285   3.963   6.927  0.00  0.00    +0.000 A 
ATOM     16  C   UNL     1      47.025   2.604   7.212  0.00  0.00    +0.000 A 
ATOM     17  N   UNL     1      47.684   1.507   6.762  0.00  0.00    +0.000 NA
ATOM     18  C   UNL     1      47.205   0.333   7.219  0.00  0.00    +0.000 A 
ATOM     19  C   UNL     1      46.122   0.180   8.071  0.00  0.00    +0.000 A 
ATOM     20  C   UNL     1      45.451   1.311   8.531  0.00  0.00    +0.000 A 
ATOM     21  C   UNL     1      45.939   2.545   8.085  0.00  0.00    +0.000 A 
ENDBRANCH  12  13
ENDBRANCH   4  12
TORSDOF 3
ENDMDL
MODEL 5
REMARK VINA RESULT:    -6.246      2.632      6.383
REMARK INTER + INTRA:          -7.916
REMARK INTER:                  -7.351
REMARK INTRA:                  -0.565
REMARK UNBOUND:                -0.575
REMARK  Name = 
REMARK  3 active torsions:
REMARK  status: ('A' for Active; 'I' for Inactive)
REMARK    1  A    between atoms: C_2  and  C_4
REMARK    2  A    between atoms: C_7  and  C_8
REMARK    3  A    between atoms: C_8  and  N_9
REMARK                            x       y       z     vdW  Elec       q    Type
REMARK                         _______ _______ _______ _____ _____    ______ ____
ROOT
ATOM      1  C   UNL     1      46.798   6.109  12.952  0.00  0.00    +0.000 A 
ATOM      2  C   UNL     1      45.973   5.002  13.179  0.00  0.00    +0.000 A 
ATOM      3  C   UNL     1      45.202   4.477  12.138  0.00  0.00    +0.000 A 
ATOM      4  C   UNL     1      45.242   5.050  10.857  0.00  0.00    +0.000 A 
ATOM      5  C   UNL     1      46.063   6.167  10.642  0.00  0.00    +0.000 A 
ATOM      6  C   UNL     1      46.831   6.695  11.683  0.00  0.00    +0.000 A 
ENDROOT
BRANCH   1   8
ATOM      7  N   UNL     1      47.415   8.027  14.327  0.00  0.00    +0.000 N 
ATOM      8  C   UNL     1      47.627   6.709  14.031  0.00  0.00    +0.000 C 
ATOM      9  O   UNL     1      48.441   6.047  14.660  0.00  0.00    +0.000 OA
ATOM     10  H   UNL     1      47.914   8.388  15.131  0.00  0.00    +0.000 HD
ATOM     11  H   UNL     1      46.596   8.529  14.019  0.00  0.00    +0.000 HD
ENDBRANCH   1   8
BRANCH   4  12
ATOM     12  C   UNL     1      44.422   4.478   9.728  0.00  0.00    +0.000 C 
BRANCH  12  13
ATOM     13  N   UNL     1      44.989   3.250   9.183  0.00  0.00    +0.000 N 
ATOM     14  C   UNL     1      44.536   1.988   9.497  0.00  0.00    +0.000 A 
ATOM     15  C   UNL     1      45.176   1.086   8.674  0.00  0.00    +0.000 A 
ATOM     16  C   UNL     1      46.042   1.822   7.835  0.00  0.00    +0.000 A 
ATOM     17  N   UNL     1      46.850   1.363   6.847  0.00  0.00    +0.000 NA
ATOM     18  C   UNL     1      47.559   2.315   6.209  0.00  0.00    +0.000 A 
ATOM     19  C   UNL     1      47.528   3.672   6.495  0.00  0.00    +0.000 A 
ATOM     20  C   UNL     1      46.694   4.136   7.509  0.00  0.00    +0.000 A 
ATOM     21  C   UNL     1      45.932   3.170   8.177  0.00  0.00    +0.000 A 
ENDBRANCH  12  13
ENDBRANCH   4  12
TORSDOF 3
ENDMDL
MODEL 6
REMARK VINA RESULT:    -6.155      3.175      6.023
REMARK INTER + INTRA:          -7.809
REMARK INTER:                  -7.394
REMARK INTRA:                  -0.415
REMARK UNBOUND:                -0.575
REMARK  Name = 
REMARK  3 active torsions:
REMARK  status: ('A' for Active; 'I' for Inactive)
REMARK    1  A    between atoms: C_2  and  C_4
REMARK    2  A    between atoms: C_7  and  C_8
REMARK    3  A    between atoms: C_8  and  N_9
REMARK                            x       y       z     vdW  Elec       q    Type
REMARK                         _______ _______ _______ _____ _____    ______ ____
ROOT
ATOM      1  C   UNL     1      48.143   7.634  12.684  0.00  0.00    +0.000 A 
ATOM      2  C   UNL     1      47.086   8.381  12.152  0.00  0.00    +0.000 A 
ATOM      3  C   UNL     1      45.797   7.840  12.108  0.00  0.00    +0.000 A 
ATOM      4  C   UNL     1      45.546   6.547  12.592  0.00  0.00    +0.000 A 
ATOM      5  C   UNL     1      46.613   5.800  13.112  0.00  0.00    +0.000 A 
ATOM      6  C   UNL     1      47.903   6.338  13.153  0.00  0.00    +0.000 A 
ENDROOT
BRANCH   1   8
ATOM      7  N   UNL     1      50.520   7.391  12.194  0.00  0.00    +0.000 N 
ATOM      8  C   UNL     1      49.531   8.162  12.741  0.00  0.00    +0.000 C 
ATOM      9  O   UNL     1      49.783   9.258  13.222  0.00  0.00    +0.000 OA
ATOM     10  H   UNL     1      51.439   7.813  12.150  0.00  0.00    +0.000 HD
ATOM     11  H   UNL     1      50.327   6.620  11.573  0.00  0.00    +0.000 HD
ENDBRANCH   1   8
BRANCH   4  12
ATOM     12  C   UNL     1      44.154   5.965  12.559  0.00  0.00    +0.000 C 
BRANCH  12  13
ATOM     13  N   UNL     1      44.115   4.627  11.981  0.00  0.00    +0.000 N 
ATOM     14  C   UNL     1      43.482   3.554  12.567  0.00  0.00    +0.000 A 
ATOM     15  C   UNL     1      43.494   2.507  11.671  0.00  0.00    +0.000 A 
ATOM     16  C   UNL     1      44.153   2.958  10.505  0.00  0.00    +0.000 A 
ATOM     17  N   UNL     1      44.375   2.286   9.349  0.00  0.00    +0.000 NA
ATOM     18  C   UNL     1      45.029   2.988   8.403  0.00  0.00    +0.000 A 
ATOM     19  C   UNL     1      45.483   4.292   8.535  0.00  0.00    +0.000 A 
ATOM     20  C   UNL     1      45.249   4.977   9.725  0.00  0.00    +0.000 A 
ATOM     21  C   UNL     1      44.555   4.276  10.719  0.00  0.00    +0.000 A 
ENDBRANCH  12  13
ENDBRANCH   4  12
TORSDOF 3
ENDMDL
MODEL 7
REMARK VINA RESULT:    -5.585      3.314      5.075
REMARK INTER + INTRA:          -7.139
REMARK INTER:                  -6.780
REMARK INTRA:                  -0.359
REMARK UNBOUND:                -0.575
REMARK  Name = 
REMARK  3 active torsions:
REMARK  status: ('A' for Active; 'I' for Inactive)
REMARK    1  A    between atoms: C_2  and  C_4
REMARK    2  A    between atoms: C_7  and  C_8
REMARK    3  A    between atoms: C_8  and  N_9
REMARK                            x       y       z     vdW  Elec       q    Type
REMARK                         _______ _______ _______ _____ _____    ______ ____
ROOT
ATOM      1  C   UNL     1      44.461   4.136  11.301  0.00  0.00    +0.000 A 
ATOM      2  C   UNL     1      45.094   4.952  10.357  0.00  0.00    +0.000 A 
ATOM      3  C   UNL     1      45.605   6.197  10.737  0.00  0.00    +0.000 A 
ATOM      4  C   UNL     1      45.491   6.644  12.062  0.00  0.00    +0.000 A 
ATOM      5  C   UNL     1      44.844   5.825  12.999  0.00  0.00    +0.000 A 
ATOM      6  C   UNL     1      44.329   4.582  12.620  0.00  0.00    +0.000 A 
ENDROOT
BRANCH   1   8
ATOM      7  N   UNL     1      44.462   2.144   9.893  0.00  0.00    +0.000 N 
ATOM      8  C   UNL     1      43.891   2.810  10.942  0.00  0.00    +0.000 C 
ATOM      9  O   UNL     1      42.973   2.311  11.579  0.00  0.00    +0.000 OA
ATOM     10  H   UNL     1      44.130   1.202   9.732  0.00  0.00    +0.000 HD
ATOM     11  H   UNL     1      45.364   2.395   9.516  0.00  0.00    +0.000 HD
ENDBRANCH   1   8
BRANCH   4  12
ATOM     12  C   UNL     1      46.054   7.980  12.479  0.00  0.00    +0.000 C 
BRANCH  12  13
ATOM     13  N   UNL     1      47.509   8.029  12.405  0.00  0.00    +0.000 N 
ATOM     14  C   UNL     1      48.331   6.964  12.698  0.00  0.00    +0.000 A 
ATOM     15  C   UNL     1      49.620   7.309  12.354  0.00  0.00    +0.000 A 
ATOM     16  C   UNL     1      49.580   8.622  11.835  0.00  0.00    +0.000 A 
ATOM     17  N   UNL     1      50.601   9.365  11.341  0.00  0.00    +0.000 NA
ATOM     18  C   UNL     1      50.250  10.592  10.908  0.00  0.00    +0.000 A 
ATOM     19  C   UNL     1      48.970  11.125  10.944  0.00  0.00    +0.000 A 
ATOM     20  C   UNL     1      47.926  10.355  11.450  0.00  0.00    +0.000 A 
ATOM     21  C   UNL     1      48.260   9.069  11.892  0.00  0.00    +0.000 A 
ENDBRANCH  12  13
ENDBRANCH   4  12
TORSDOF 3
ENDMDL
MODEL 8
REMARK VINA RESULT:    -5.465      4.821      7.891
REMARK INTER + INTRA:          -6.998
REMARK INTER:                  -6.487
REMARK INTRA:                  -0.511
REMARK UNBOUND:                -0.575
REMARK  Name = 
REMARK  3 active torsions:
REMARK  status: ('A' for Active; 'I' for Inactive)
REMARK    1  A    between atoms: C_2  and  C_4
REMARK    2  A    between atoms: C_7  and  C_8
REMARK    3  A    between atoms: C_8  and  N_9
REMARK                            x       y       z     vdW  Elec       q    Type
REMARK                         _______ _______ _______ _____ _____    ______ ____
ROOT
ATOM      1  C   UNL     1      48.074   5.003  17.626  0.00  0.00    +0.000 A 
ATOM      2  C   UNL     1      47.310   4.092  16.888  0.00  0.00    +0.000 A 
ATOM      3  C   UNL     1      47.181   4.243  15.504  0.00  0.00    +0.000 A 
ATOM      4  C   UNL     1      47.812   5.305  14.838  0.00  0.00    +0.000 A 
ATOM      5  C   UNL     1      48.566   6.221  15.587  0.00  0.00    +0.000 A 
ATOM      6  C   UNL     1      48.692   6.073  16.972  0.00  0.00    +0.000 A 
ENDROOT
BRANCH   1   8
ATOM      7  N   UNL     1      48.421   3.638  19.618  0.00  0.00    +0.000 N 
ATOM      8  C   UNL     1      48.230   4.889  19.100  0.00  0.00    +0.000 C 
ATOM      9  O   UNL     1      48.227   5.875  19.825  0.00  0.00    +0.000 OA
ATOM     10  H   UNL     1      48.629   3.594  20.608  0.00  0.00    +0.000 HD
ATOM     11  H   UNL     1      48.683   2.848  19.047  0.00  0.00    +0.000 HD
ENDBRANCH   1   8
BRANCH   4  12
ATOM     12  C   UNL     1      47.688   5.464  13.343  0.00  0.00    +0.000 C 
BRANCH  12  13
ATOM     13  N   UNL     1      46.368   5.928  12.932  0.00  0.00    +0.000 N 
ATOM     14  C   UNL     1      46.034   7.254  12.770  0.00  0.00    +0.000 A 
ATOM     15  C   UNL     1      44.776   7.314  12.211  0.00  0.00    +0.000 A 
ATOM     16  C   UNL     1      44.333   5.986  12.027  0.00  0.00    +0.000 A 
ATOM     17  N   UNL     1      43.169   5.553  11.481  0.00  0.00    +0.000 NA
ATOM     18  C   UNL     1      43.031   4.213  11.433  0.00  0.00    +0.000 A 
ATOM     19  C   UNL     1      43.955   3.289  11.898  0.00  0.00    +0.000 A 
ATOM     20  C   UNL     1      45.149   3.741  12.455  0.00  0.00    +0.000 A 
ATOM     21  C   UNL     1      45.326   5.129  12.501  0.00  0.00    +0.000 A 
ENDBRANCH  12  13
ENDBRANCH   4  12
TORSDOF 3
ENDMDL
MODEL 9
REMARK VINA RESULT:    -5.461      3.338      5.247
REMARK INTER + INTRA:          -6.993
REMARK INTER:                  -6.484
REMARK INTRA:                  -0.509
REMARK UNBOUND:                -0.575
REMARK  Name = 
REMARK  3 active torsions:
REMARK  status: ('A' for Active; 'I' for Inactive)
REMARK    1  A    between atoms: C_2  and  C_4
REMARK    2  A    between atoms: C_7  and  C_8
REMARK    3  A    between atoms: C_8  and  N_9
REMARK                            x       y       z     vdW  Elec       q    Type
REMARK                         _______ _______ _______ _____ _____    ______ ____
ROOT
ATOM      1  C   UNL     1      44.689   4.130  11.480  0.00  0.00    +0.000 A 
ATOM      2  C   UNL     1      45.092   4.243  12.816  0.00  0.00    +0.000 A 
ATOM      3  C   UNL     1      45.675   5.428  13.274  0.00  0.00    +0.000 A 
ATOM      4  C   UNL     1      45.864   6.516  12.407  0.00  0.00    +0.000 A 
ATOM      5  C   UNL     1      45.469   6.389  11.067  0.00  0.00    +0.000 A 
ATOM      6  C   UNL     1      44.890   5.203  10.607  0.00  0.00    +0.000 A 
ENDROOT
BRANCH   1   8
ATOM      7  N   UNL     1      44.730   2.253   9.923  0.00  0.00    +0.000 N 
ATOM      8  C   UNL     1      44.077   2.886  10.944  0.00  0.00    +0.000 C 
ATOM      9  O   UNL     1      43.049   2.419  11.418  0.00  0.00    +0.000 OA
ATOM     10  H   UNL     1      44.354   1.355   9.644  0.00  0.00    +0.000 HD
ATOM     11  H   UNL     1      45.689   2.455   9.683  0.00  0.00    +0.000 HD
ENDBRANCH   1   8
BRANCH   4  12
ATOM     12  C   UNL     1      46.479   7.801  12.902  0.00  0.00    +0.000 C 
BRANCH  12  13
ATOM     13  N   UNL     1      47.936   7.790  12.843  0.00  0.00    +0.000 N 
ATOM     14  C   UNL     1      48.665   8.149  11.731  0.00  0.00    +0.000 A 
ATOM     15  C   UNL     1      49.996   8.189  12.086  0.00  0.00    +0.000 A 
ATOM     16  C   UNL     1      50.079   7.845  13.453  0.00  0.00    +0.000 A 
ATOM     17  N   UNL     1      51.180   7.782  14.241  0.00  0.00    +0.000 NA
ATOM     18  C   UNL     1      50.941   7.429  15.520  0.00  0.00    +0.000 A 
ATOM     19  C   UNL     1      49.698   7.126  16.054  0.00  0.00    +0.000 A 
ATOM     20  C   UNL     1      48.570   7.195  15.239  0.00  0.00    +0.000 A 
ATOM     21  C   UNL     1      48.788   7.577  13.910  0.00  0.00    +0.000 A 
ENDBRANCH  12  13
ENDBRANCH   4  12
TORSDOF 3
ENDMDL
