MODEL 1
REMARK VINA RESULT:    -7.653      0.000      0.000
REMARK INTER + INTRA:         -11.261
REMARK INTER:                 -10.337
REMARK INTRA:                  -0.924
REMARK UNBOUND:                -0.924
REMARK  Name = 
REMARK  6 active torsions:
REMARK  status: ('A' for Active; 'I' for Inactive)
REMARK    1  A    between atoms: C_2  and  C_20
REMARK    2  A    between atoms: N_3  and  C_4
REMARK    3  A    between atoms: C_4  and  C_5
REMARK    4  A    between atoms: C_8  and  C_9
REMARK    5  A    between atoms: C_9  and  N_10
REMARK    6  A    between atoms: C_11  and  C_13
REMARK                            x       y       z     vdW  Elec       q    Type
REMARK                         _______ _______ _______ _____ _____    ______ ____
ROOT
ATOM      1  C   UNL     1      46.644   4.759  14.385  0.00  0.00    +0.000 A 
ATOM      2  C   UNL     1      45.722   4.058  13.594  0.00  0.00    +0.000 A 
ATOM      3  C   UNL     1      45.414   4.489  12.294  0.00  0.00    +0.000 A 
ATOM      4  C   UNL     1      46.043   5.614  11.746  0.00  0.00    +0.000 A 
ATOM      5  C   UNL     1      46.974   6.307  12.533  0.00  0.00    +0.000 A 
ATOM      6  C   UNL     1      47.282   5.875  13.829  0.00  0.00    +0.000 A 
ENDROOT
BRANCH   1   7
ATOM      7  C   UNL     1      46.918   4.347  15.810  0.00  0.00    +0.000 C 
BRANCH   7  10
ATOM      8  O   UNL     1      47.905   4.634  18.372  0.00  0.00    +0.000 OA
ATOM      9  C   UNL     1      48.706   4.420  17.465  0.00  0.00    +0.000 C 
ATOM     10  N   UNL     1      48.317   4.343  16.147  0.00  0.00    +0.000 N 
ATOM     11  H   UNL     1      48.954   3.951  15.464  0.00  0.00    +0.000 HD
BRANCH   9  12
ATOM     12  C   UNL     1      50.136   4.254  17.740  0.00  0.00    +0.000 A 
ATOM     13  C   UNL     1      50.876   5.290  18.293  0.00  0.00    +0.000 A 
ATOM     14  S   UNL     1      52.510   4.882  18.582  0.00  0.00    +0.000 S 
ATOM     15  C   UNL     1      52.275   3.296  18.011  0.00  0.00    +0.000 A 
ATOM     16  N   UNL     1      53.277   2.376  18.027  0.00  0.00    +0.000 NA
ATOM     17  C   UNL     1      52.935   1.203  17.604  0.00  0.00    +0.000 A 
ATOM     18  N   UNL     1      51.687   0.872  17.146  0.00  0.00    +0.000 N 
ATOM     19  C   UNL     1      50.666   1.779  17.050  0.00  0.00    +0.000 A 
ATOM     20  O   UNL     1      49.594   1.477  16.535  0.00  0.00    +0.000 OA
ATOM     21  C   UNL     1      50.977   3.097  17.568  0.00  0.00    +0.000 A 
ATOM     22  H   UNL     1      51.493  -0.052  16.791  0.00  0.00    +0.000 HD
ENDBRANCH   9  12
ENDBRANCH   7  10
ENDBRANCH   1   7
BRANCH   4  23
ATOM     23  C   UNL     1      45.749   6.066  10.336  0.00  0.00    +0.000 C 
BRANCH  23  24
ATOM     24  N   UNL     1      45.225   5.009   9.503  0.00  0.00    +0.000 N 
ATOM     25  C   UNL     1      45.889   4.628   8.350  0.00  0.00    +0.000 C 
ATOM     26  O   UNL     1      46.947   5.140   7.998  0.00  0.00    +0.000 OA
ATOM     27  H   UNL     1      44.458   4.449   9.850  0.00  0.00    +0.000 HD
BRANCH  25  28
ATOM     28  C   UNL     1      45.196   3.492   7.559  0.00  0.00    +0.000 C 
ATOM     29  C   UNL     1      46.094   2.897   6.489  0.00  0.00    +0.000 C 
ATOM     30  C   UNL     1      46.953   1.911   7.262  0.00  0.00    +0.000 C 
ATOM     31  C   UNL     1      46.081   1.466   8.428  0.00  0.00    +0.000 C 
ATOM     32  N   UNL     1      44.895   2.329   8.423  0.00  0.00    +0.000 NA
ATOM     33  H   UNL     1      44.716   2.663   9.376  0.00  0.00    +0.000 HD
ENDBRANCH  25  28
ENDBRANCH  23  24
ENDBRANCH   4  23
TORSDOF 6
ENDMDL
MODEL 2
REMARK VINA RESULT:    -7.214      3.065      3.909
REMARK INTER + INTRA:         -10.668
REMARK INTER:                  -9.312
REMARK INTRA:                  -1.356
REMARK UNBOUND:                -0.924
REMARK  Name = 
REMARK  6 active torsions:
REMARK  status: ('A' for Active; 'I' for Inactive)
REMARK    1  A    between atoms: C_2  and  C_20
REMARK    2  A    between atoms: N_3  and  C_4
REMARK    3  A    between atoms: C_4  and  C_5
REMARK    4  A    between atoms: C_8  and  C_9
REMARK    5  A    between atoms: C_9  and  N_10
REMARK    6  A    between atoms: C_11  and  C_13
REMARK                            x       y       z     vdW  Elec       q    Type
REMARK                         _______ _______ _______ _____ _____    ______ ____
ROOT
ATOM      1  C   UNL     1      48.722   8.072  13.123  0.00  0.00    +0.000 A 
ATOM      2  C   UNL     1      48.262   7.023  12.313  0.00  0.00    +0.000 A 
ATOM      3  C   UNL     1      46.962   7.038  11.785  0.00  0.00    +0.000 A 
ATOM      4  C   UNL     1      46.102   8.116  12.032  0.00  0.00    +0.000 A 
ATOM      5  C   UNL     1      46.568   9.170  12.831  0.00  0.00    +0.000 A 
ATOM      6  C   UNL     1      47.867   9.155  13.356  0.00  0.00    +0.000 A 
ENDROOT
BRANCH   1   7
ATOM      7  C   UNL     1      50.090   8.022  13.758  0.00  0.00    +0.000 C 
BRANCH   7  10
ATOM      8  O   UNL     1      49.458   8.438  16.413  0.00  0.00    +0.000 OA
ATOM      9  C   UNL     1      49.797   7.307  16.070  0.00  0.00    +0.000 C 
ATOM     10  N   UNL     1      50.207   7.023  14.787  0.00  0.00    +0.000 N 
ATOM     11  H   UNL     1      50.265   6.057  14.488  0.00  0.00    +0.000 HD
BRANCH   9  12
ATOM     12  C   UNL     1      49.804   6.195  17.025  0.00  0.00    +0.000 A 
ATOM     13  C   UNL     1      50.675   6.193  18.105  0.00  0.00    +0.000 A 
ATOM     14  S   UNL     1      50.493   4.836  19.126  0.00  0.00    +0.000 S 
ATOM     15  C   UNL     1      49.219   4.223  18.180  0.00  0.00    +0.000 A 
ATOM     16  N   UNL     1      48.556   3.085  18.525  0.00  0.00    +0.000 NA
ATOM     17  C   UNL     1      47.584   2.771  17.734  0.00  0.00    +0.000 A 
ATOM     18  N   UNL     1      47.226   3.478  16.617  0.00  0.00    +0.000 N 
ATOM     19  C   UNL     1      47.902   4.591  16.193  0.00  0.00    +0.000 A 
ATOM     20  O   UNL     1      47.624   5.138  15.130  0.00  0.00    +0.000 OA
ATOM     21  C   UNL     1      48.966   5.024  17.077  0.00  0.00    +0.000 A 
ATOM     22  H   UNL     1      46.481   3.158  16.016  0.00  0.00    +0.000 HD
ENDBRANCH   9  12
ENDBRANCH   7  10
ENDBRANCH   1   7
BRANCH   4  23
ATOM     23  C   UNL     1      44.715   8.163  11.440  0.00  0.00    +0.000 C 
BRANCH  23  24
ATOM     24  N   UNL     1      44.331   6.924  10.804  0.00  0.00    +0.000 N 
ATOM     25  C   UNL     1      43.718   5.920  11.532  0.00  0.00    +0.000 C 
ATOM     26  O   UNL     1      43.452   6.038  12.724  0.00  0.00    +0.000 OA
ATOM     27  H   UNL     1      44.374   6.861   9.796  0.00  0.00    +0.000 HD
BRANCH  25  28
ATOM     28  C   UNL     1      43.381   4.651  10.713  0.00  0.00    +0.000 C 
ATOM     29  C   UNL     1      44.623   3.919  10.238  0.00  0.00    +0.000 C 
ATOM     30  C   UNL     1      45.029   3.097  11.449  0.00  0.00    +0.000 C 
ATOM     31  C   UNL     1      43.726   2.820  12.185  0.00  0.00    +0.000 C 
ATOM     32  N   UNL     1      42.693   3.634  11.538  0.00  0.00    +0.000 NA
ATOM     33  H   UNL     1      42.139   4.111  12.256  0.00  0.00    +0.000 HD
ENDBRANCH  25  28
ENDBRANCH  23  24
ENDBRANCH   4  23
TORSDOF 6
ENDMDL
MODEL 3
REMARK VINA RESULT:    -7.164      2.678      3.434
REMARK INTER + INTRA:         -10.600
REMARK INTER:                  -9.427
REMARK INTRA:                  -1.174
REMARK UNBOUND:                -0.924
REMARK  Name = 
REMARK  6 active torsions:
REMARK  status: ('A' for Active; 'I' for Inactive)
REMARK    1  A    between atoms: C_2  and  C_20
REMARK    2  A    between atoms: N_3  and  C_4
REMARK    3  A    between atoms: C_4  and  C_5
REMARK    4  A    between atoms: C_8  and  C_9
REMARK    5  A    between atoms: C_9  and  N_10
REMARK    6  A    between atoms: C_11  and  C_13
REMARK                            x       y       z     vdW  Elec       q    Type
REMARK                         _______ _______ _______ _____ _____    ______ ____
ROOT
ATOM      1  C   UNL     1      45.996   6.567  12.239  0.00  0.00    +0.000 A 
ATOM      2  C   UNL     1      44.970   5.800  12.811  0.00  0.00    +0.000 A 
ATOM      3  C   UNL     1      44.296   4.825  12.061  0.00  0.00    +0.000 A 
ATOM      4  C   UNL     1      44.652   4.575  10.729  0.00  0.00    +0.000 A 
ATOM      5  C   UNL     1      45.687   5.333  10.162  0.00  0.00    +0.000 A 
ATOM      6  C   UNL     1      46.360   6.304  10.913  0.00  0.00    +0.000 A 
ENDROOT
BRANCH   1   7
ATOM      7  C   UNL     1      46.668   7.671  13.017  0.00  0.00    +0.000 C 
BRANCH   7  10
ATOM      8  O   UNL     1      49.170   6.528  13.255  0.00  0.00    +0.000 OA
ATOM      9  C   UNL     1      48.531   6.737  14.283  0.00  0.00    +0.000 C 
ATOM     10  N   UNL     1      47.245   7.228  14.259  0.00  0.00    +0.000 N 
ATOM     11  H   UNL     1      46.837   7.591  15.112  0.00  0.00    +0.000 HD
BRANCH   9  12
ATOM     12  C   UNL     1      49.102   6.451  15.602  0.00  0.00    +0.000 A 
ATOM     13  C   UNL     1      50.194   7.167  16.072  0.00  0.00    +0.000 A 
ATOM     14  S   UNL     1      50.676   6.719  17.649  0.00  0.00    +0.000 S 
ATOM     15  C   UNL     1      49.420   5.577  17.771  0.00  0.00    +0.000 A 
ATOM     16  N   UNL     1      49.219   4.856  18.907  0.00  0.00    +0.000 NA
ATOM     17  C   UNL     1      48.199   4.063  18.865  0.00  0.00    +0.000 A 
ATOM     18  N   UNL     1      47.374   3.909  17.782  0.00  0.00    +0.000 N 
ATOM     19  C   UNL     1      47.574   4.564  16.596  0.00  0.00    +0.000 A 
ATOM     20  O   UNL     1      46.882   4.322  15.611  0.00  0.00    +0.000 OA
ATOM     21  C   UNL     1      48.670   5.513  16.607  0.00  0.00    +0.000 A 
ATOM     22  H   UNL     1      46.616   3.243  17.797  0.00  0.00    +0.000 HD
ENDBRANCH   9  12
ENDBRANCH   7  10
ENDBRANCH   1   7
BRANCH   4  23
ATOM     23  C   UNL     1      43.961   3.503   9.922  0.00  0.00    +0.000 C 
BRANCH  23  24
ATOM     24  N   UNL     1      44.473   3.391   8.577  0.00  0.00    +0.000 N 
ATOM     25  C   UNL     1      45.322   2.354   8.231  0.00  0.00    +0.000 C 
ATOM     26  O   UNL     1      45.655   1.481   9.026  0.00  0.00    +0.000 OA
ATOM     27  H   UNL     1      44.084   3.984   7.856  0.00  0.00    +0.000 HD
BRANCH  25  28
ATOM     28  C   UNL     1      45.795   2.379   6.757  0.00  0.00    +0.000 C 
ATOM     29  C   UNL     1      46.547   3.651   6.411  0.00  0.00    +0.000 C 
ATOM     30  C   UNL     1      47.953   3.375   6.915  0.00  0.00    +0.000 C 
ATOM     31  C   UNL     1      48.113   1.865   6.813  0.00  0.00    +0.000 C 
ATOM     32  N   UNL     1      46.791   1.321   6.484  0.00  0.00    +0.000 NA
ATOM     33  H   UNL     1      46.596   0.518   7.091  0.00  0.00    +0.000 HD
ENDBRANCH  25  28
ENDBRANCH  23  24
ENDBRANCH   4  23
TORSDOF 6
ENDMDL
MODEL 4
REMARK VINA RESULT:    -7.147      2.761      4.237
REMARK INTER + INTRA:         -10.578
REMARK INTER:                  -9.564
REMARK INTRA:                  -1.013
REMARK UNBOUND:                -0.924
REMARK  Name = 
REMARK  6 active torsions:
REMARK  status: ('A' for Active; 'I' for Inactive)
REMARK    1  A    between atoms: C_2  and  C_20
REMARK    2  A    between atoms: N_3  and  C_4
REMARK    3  A    between atoms: C_4  and  C_5
REMARK    4  A    between atoms: C_8  and  C_9
REMARK    5  A    between atoms: C_9  and  N_10
REMARK    6  A    between atoms: C_11  and  C_13
REMARK                            x       y       z     vdW  Elec       q    Type
REMARK                         _______ _______ _______ _____ _____    ______ ____
ROOT
ATOM      1  C   UNL     1      46.866   4.429  14.241  0.00  0.00    +0.000 A 
ATOM      2  C   UNL     1      47.069   5.772  13.892  0.00  0.00    +0.000 A 
ATOM      3  C   UNL     1      46.533   6.297  12.707  0.00  0.00    +0.000 A 
ATOM      4  C   UNL     1      45.757   5.498  11.857  0.00  0.00    +0.000 A 
ATOM      5  C   UNL     1      45.544   4.158  12.214  0.00  0.00    +0.000 A 
ATOM      6  C   UNL     1      46.078   3.636  13.399  0.00  0.00    +0.000 A 
ENDROOT
BRANCH   1   7
ATOM      7  C   UNL     1      47.507   3.839  15.473  0.00  0.00    +0.000 C 
BRANCH   7  10
ATOM      8  O   UNL     1      49.582   4.747  17.052  0.00  0.00    +0.000 OA
ATOM      9  C   UNL     1      48.443   5.112  17.330  0.00  0.00    +0.000 C 
ATOM     10  N   UNL     1      47.338   4.649  16.651  0.00  0.00    +0.000 N 
ATOM     11  H   UNL     1      46.453   5.130  16.756  0.00  0.00    +0.000 HD
BRANCH   9  12
ATOM     12  C   UNL     1      48.194   6.054  18.425  0.00  0.00    +0.000 A 
ATOM     13  C   UNL     1      47.918   5.596  19.705  0.00  0.00    +0.000 A 
ATOM     14  S   UNL     1      47.708   6.849  20.848  0.00  0.00    +0.000 S 
ATOM     15  C   UNL     1      48.014   8.046  19.678  0.00  0.00    +0.000 A 
ATOM     16  N   UNL     1      48.043   9.367  19.999  0.00  0.00    +0.000 NA
ATOM     17  C   UNL     1      48.333  10.152  19.014  0.00  0.00    +0.000 A 
ATOM     18  N   UNL     1      48.577   9.738  17.731  0.00  0.00    +0.000 N 
ATOM     19  C   UNL     1      48.496   8.426  17.345  0.00  0.00    +0.000 A 
ATOM     20  O   UNL     1      48.613   8.101  16.168  0.00  0.00    +0.000 OA
ATOM     21  C   UNL     1      48.232   7.495  18.425  0.00  0.00    +0.000 A 
ATOM     22  H   UNL     1      48.759  10.404  16.996  0.00  0.00    +0.000 HD
ENDBRANCH   9  12
ENDBRANCH   7  10
ENDBRANCH   1   7
BRANCH   4  23
ATOM     23  C   UNL     1      45.142   6.060  10.599  0.00  0.00    +0.000 C 
BRANCH  23  24
ATOM     24  N   UNL     1      44.735   5.037   9.664  0.00  0.00    +0.000 N 
ATOM     25  C   UNL     1      45.531   4.720   8.578  0.00  0.00    +0.000 C 
ATOM     26  O   UNL     1      46.612   5.262   8.371  0.00  0.00    +0.000 OA
ATOM     27  H   UNL     1      43.944   4.451   9.897  0.00  0.00    +0.000 HD
BRANCH  25  28
ATOM     28  C   UNL     1      44.952   3.613   7.663  0.00  0.00    +0.000 C 
ATOM     29  C   UNL     1      46.026   2.906   6.856  0.00  0.00    +0.000 C 
ATOM     30  C   UNL     1      46.582   1.885   7.833  0.00  0.00    +0.000 C 
ATOM     31  C   UNL     1      45.419   1.558   8.758  0.00  0.00    +0.000 C 
ATOM     32  N   UNL     1      44.350   2.513   8.448  0.00  0.00    +0.000 NA
ATOM     33  H   UNL     1      43.977   2.898   9.322  0.00  0.00    +0.000 HD
ENDBRANCH  25  28
ENDBRANCH  23  24
ENDBRANCH   4  23
TORSDOF 6
ENDMDL
MODEL 5
REMARK VINA RESULT:    -6.892      3.639      9.030
REMARK INTER + INTRA:         -10.233
REMARK INTER:                  -9.109
REMARK INTRA:                  -1.124
REMARK UNBOUND:                -0.924
REMARK  Name = 
REMARK  6 active torsions:
REMARK  status: ('A' for Active; 'I' for Inactive)
REMARK    1  A    between atoms: C_2  and  C_20
REMARK    2  A    between atoms: N_3  and  C_4
REMARK    3  A    between atoms: C_4  and  C_5
REMARK    4  A    between atoms: C_8  and  C_9
REMARK    5  A    between atoms: C_9  and  N_10
REMARK    6  A    between atoms: C_11  and  C_13
REMARK                            x       y       z     vdW  Elec       q    Type
REMARK                         _______ _______ _______ _____ _____    ______ ____
ROOT
ATOM      1  C   UNL     1      48.952   7.866  13.260  0.00  0.00    +0.000 A 
ATOM      2  C   UNL     1      50.346   7.994  13.361  0.00  0.00    +0.000 A 
ATOM      3  C   UNL     1      50.992   7.876  14.600  0.00  0.00    +0.000 A 
ATOM      4  C   UNL     1      50.262   7.597  15.764  0.00  0.00    +0.000 A 
ATOM      5  C   UNL     1      48.871   7.457  15.660  0.00  0.00    +0.000 A 
ATOM      6  C   UNL     1      48.227   7.573  14.421  0.00  0.00    +0.000 A 
ENDROOT
BRANCH   1   7
ATOM      7  C   UNL     1      48.245   8.073  11.944  0.00  0.00    +0.000 C 
BRANCH   7  10
ATOM      8  O   UNL     1      45.500   7.846  11.766  0.00  0.00    +0.000 OA
ATOM      9  C   UNL     1      46.184   6.913  11.353  0.00  0.00    +0.000 C 
ATOM     10  N   UNL     1      47.555   6.900  11.473  0.00  0.00    +0.000 N 
ATOM     11  H   UNL     1      48.094   6.234  10.934  0.00  0.00    +0.000 HD
BRANCH   9  12
ATOM     12  C   UNL     1      45.568   5.741  10.724  0.00  0.00    +0.000 A 
ATOM     13  C   UNL     1      45.776   5.467   9.379  0.00  0.00    +0.000 A 
ATOM     14  S   UNL     1      45.015   4.032   8.849  0.00  0.00    +0.000 S 
ATOM     15  C   UNL     1      44.411   3.709  10.407  0.00  0.00    +0.000 A 
ATOM     16  N   UNL     1      43.697   2.583  10.677  0.00  0.00    +0.000 NA
ATOM     17  C   UNL     1      43.345   2.454  11.914  0.00  0.00    +0.000 A 
ATOM     18  N   UNL     1      43.623   3.361  12.903  0.00  0.00    +0.000 N 
ATOM     19  C   UNL     1      44.281   4.539  12.668  0.00  0.00    +0.000 A 
ATOM     20  O   UNL     1      44.419   5.378  13.554  0.00  0.00    +0.000 OA
ATOM     21  C   UNL     1      44.752   4.707  11.307  0.00  0.00    +0.000 A 
ATOM     22  H   UNL     1      43.285   3.223  13.843  0.00  0.00    +0.000 HD
ENDBRANCH   9  12
ENDBRANCH   7  10
ENDBRANCH   1   7
BRANCH   4  23
ATOM     23  C   UNL     1      50.949   7.430  17.097  0.00  0.00    +0.000 C 
BRANCH  23  24
ATOM     24  N   UNL     1      50.245   6.536  17.986  0.00  0.00    +0.000 N 
ATOM     25  C   UNL     1      50.386   5.165  17.863  0.00  0.00    +0.000 C 
ATOM     26  O   UNL     1      51.121   4.651  17.026  0.00  0.00    +0.000 OA
ATOM     27  H   UNL     1      49.773   6.923  18.793  0.00  0.00    +0.000 HD
BRANCH  25  28
ATOM     28  C   UNL     1      49.557   4.343  18.880  0.00  0.00    +0.000 C 
ATOM     29  C   UNL     1      48.166   4.914  19.091  0.00  0.00    +0.000 C 
ATOM     30  C   UNL     1      47.379   4.359  17.916  0.00  0.00    +0.000 C 
ATOM     31  C   UNL     1      48.055   3.037  17.584  0.00  0.00    +0.000 C 
ATOM     32  N   UNL     1      49.283   2.977  18.384  0.00  0.00    +0.000 NA
ATOM     33  H   UNL     1      50.061   2.680  17.787  0.00  0.00    +0.000 HD
ENDBRANCH  25  28
ENDBRANCH  23  24
ENDBRANCH   4  23
TORSDOF 6
ENDMDL
MODEL 6
REMARK VINA RESULT:    -6.815      3.731      9.477
REMARK INTER + INTRA:         -10.129
REMARK INTER:                  -9.110
REMARK INTRA:                  -1.019
REMARK UNBOUND:                -0.924
REMARK  Name = 
REMARK  6 active torsions:
REMARK  status: ('A' for Active; 'I' for Inactive)
REMARK    1  A    between atoms: C_2  and  C_20
REMARK    2  A    between atoms: N_3  and  C_4
REMARK    3  A    between atoms: C_4  and  C_5
REMARK    4  A    between atoms: C_8  and  C_9
REMARK    5  A    between atoms: C_9  and  N_10
REMARK    6  A    between atoms: C_11  and  C_13
REMARK                            x       y       z     vdW  Elec       q    Type
REMARK                         _______ _______ _______ _____ _____    ______ ____
ROOT
ATOM      1  C   UNL     1      48.652   3.352  17.120  0.00  0.00    +0.000 A 
ATOM      2  C   UNL     1      49.434   2.197  16.969  0.00  0.00    +0.000 A 
ATOM      3  C   UNL     1      50.801   2.208  17.283  0.00  0.00    +0.000 A 
ATOM      4  C   UNL     1      51.412   3.365  17.784  0.00  0.00    +0.000 A 
ATOM      5  C   UNL     1      50.627   4.515  17.947  0.00  0.00    +0.000 A 
ATOM      6  C   UNL     1      49.261   4.503  17.635  0.00  0.00    +0.000 A 
ENDROOT
BRANCH   1   7
ATOM      7  C   UNL     1      47.201   3.369  16.708  0.00  0.00    +0.000 C 
BRANCH   7  10
ATOM      8  O   UNL     1      47.216   3.143  13.956  0.00  0.00    +0.000 OA
ATOM      9  C   UNL     1      46.841   4.206  14.446  0.00  0.00    +0.000 C 
ATOM     10  N   UNL     1      46.875   4.439  15.802  0.00  0.00    +0.000 N 
ATOM     11  H   UNL     1      46.361   5.224  16.183  0.00  0.00    +0.000 HD
BRANCH   9  12
ATOM     12  C   UNL     1      46.352   5.299  13.602  0.00  0.00    +0.000 A 
ATOM     13  C   UNL     1      47.155   6.397  13.328  0.00  0.00    +0.000 A 
ATOM     14  S   UNL     1      46.423   7.536  12.287  0.00  0.00    +0.000 S 
ATOM     15  C   UNL     1      45.020   6.584  12.138  0.00  0.00    +0.000 A 
ATOM     16  N   UNL     1      43.987   6.955  11.334  0.00  0.00    +0.000 NA
ATOM     17  C   UNL     1      43.012   6.108  11.289  0.00  0.00    +0.000 A 
ATOM     18  N   UNL     1      42.965   4.933  11.992  0.00  0.00    +0.000 N 
ATOM     19  C   UNL     1      43.949   4.549  12.863  0.00  0.00    +0.000 A 
ATOM     20  O   UNL     1      43.826   3.544  13.558  0.00  0.00    +0.000 OA
ATOM     21  C   UNL     1      45.097   5.434  12.907  0.00  0.00    +0.000 A 
ATOM     22  H   UNL     1      42.156   4.333  11.945  0.00  0.00    +0.000 HD
ENDBRANCH   9  12
ENDBRANCH   7  10
ENDBRANCH   1   7
BRANCH   4  23
ATOM     23  C   UNL     1      52.873   3.378  18.162  0.00  0.00    +0.000 C 
BRANCH  23  24
ATOM     24  N   UNL     1      53.640   4.347  17.415  0.00  0.00    +0.000 N 
ATOM     25  C   UNL     1      54.094   5.505  18.023  0.00  0.00    +0.000 C 
ATOM     26  O   UNL     1      53.894   5.749  19.208  0.00  0.00    +0.000 OA
ATOM     27  H   UNL     1      53.972   4.100  16.492  0.00  0.00    +0.000 HD
BRANCH  25  28
ATOM     28  C   UNL     1      54.889   6.448  17.087  0.00  0.00    +0.000 C 
ATOM     29  C   UNL     1      54.427   6.359  15.644  0.00  0.00    +0.000 C 
ATOM     30  C   UNL     1      53.207   7.263  15.611  0.00  0.00    +0.000 C 
ATOM     31  C   UNL     1      53.469   8.308  16.686  0.00  0.00    +0.000 C 
ATOM     32  N   UNL     1      54.659   7.871  17.421  0.00  0.00    +0.000 NA
ATOM     33  H   UNL     1      54.482   7.949  18.428  0.00  0.00    +0.000 HD
ENDBRANCH  25  28
ENDBRANCH  23  24
ENDBRANCH   4  23
TORSDOF 6
ENDMDL
MODEL 7
REMARK VINA RESULT:    -6.719      3.512      9.187
REMARK INTER + INTRA:         -10.000
REMARK INTER:                  -9.049
REMARK INTRA:                  -0.951
REMARK UNBOUND:                -0.924
REMARK  Name = 
REMARK  6 active torsions:
REMARK  status: ('A' for Active; 'I' for Inactive)
REMARK    1  A    between atoms: C_2  and  C_20
REMARK    2  A    between atoms: N_3  and  C_4
REMARK    3  A    between atoms: C_4  and  C_5
REMARK    4  A    between atoms: C_8  and  C_9
REMARK    5  A    between atoms: C_9  and  N_10
REMARK    6  A    between atoms: C_11  and  C_13
REMARK                            x       y       z     vdW  Elec       q    Type
REMARK                         _______ _______ _______ _____ _____    ______ ____
ROOT
ATOM      1  C   UNL     1      49.660   6.618  16.128  0.00  0.00    +0.000 A 
ATOM      2  C   UNL     1      51.025   6.493  16.427  0.00  0.00    +0.000 A 
ATOM      3  C   UNL     1      51.497   5.423  17.203  0.00  0.00    +0.000 A 
ATOM      4  C   UNL     1      50.619   4.439  17.673  0.00  0.00    +0.000 A 
ATOM      5  C   UNL     1      49.256   4.558  17.363  0.00  0.00    +0.000 A 
ATOM      6  C   UNL     1      48.787   5.625  16.587  0.00  0.00    +0.000 A 
ENDROOT
BRANCH   1   7
ATOM      7  C   UNL     1      49.138   7.809  15.363  0.00  0.00    +0.000 C 
BRANCH   7  10
ATOM      8  O   UNL     1      49.016   6.612  12.879  0.00  0.00    +0.000 OA
ATOM      9  C   UNL     1      47.958   6.873  13.446  0.00  0.00    +0.000 C 
ATOM     10  N   UNL     1      47.917   7.541  14.649  0.00  0.00    +0.000 N 
ATOM     11  H   UNL     1      47.059   7.542  15.187  0.00  0.00    +0.000 HD
BRANCH   9  12
ATOM     12  C   UNL     1      46.669   6.501  12.856  0.00  0.00    +0.000 A 
ATOM     13  C   UNL     1      45.857   7.459  12.265  0.00  0.00    +0.000 A 
ATOM     14  S   UNL     1      44.423   6.819  11.593  0.00  0.00    +0.000 S 
ATOM     15  C   UNL     1      44.855   5.234  12.037  0.00  0.00    +0.000 A 
ATOM     16  N   UNL     1      44.078   4.165  11.713  0.00  0.00    +0.000 NA
ATOM     17  C   UNL     1      44.558   3.022  12.079  0.00  0.00    +0.000 A 
ATOM     18  N   UNL     1      45.736   2.852  12.758  0.00  0.00    +0.000 N 
ATOM     19  C   UNL     1      46.520   3.900  13.162  0.00  0.00    +0.000 A 
ATOM     20  O   UNL     1      47.512   3.719  13.862  0.00  0.00    +0.000 OA
ATOM     21  C   UNL     1      46.057   5.203  12.726  0.00  0.00    +0.000 A 
ATOM     22  H   UNL     1      46.039   1.935  13.051  0.00  0.00    +0.000 HD
ENDBRANCH   9  12
ENDBRANCH   7  10
ENDBRANCH   1   7
BRANCH   4  23
ATOM     23  C   UNL     1      51.119   3.263  18.477  0.00  0.00    +0.000 C 
BRANCH  23  24
ATOM     24  N   UNL     1      52.318   2.674  17.929  0.00  0.00    +0.000 N 
ATOM     25  C   UNL     1      52.354   1.332  17.594  0.00  0.00    +0.000 C 
ATOM     26  O   UNL     1      51.381   0.595  17.720  0.00  0.00    +0.000 OA
ATOM     27  H   UNL     1      53.075   3.283  17.649  0.00  0.00    +0.000 HD
BRANCH  25  28
ATOM     28  C   UNL     1      53.713   0.850  17.032  0.00  0.00    +0.000 C 
ATOM     29  C   UNL     1      54.891   1.367  17.837  0.00  0.00    +0.000 C 
ATOM     30  C   UNL     1      54.968   0.401  19.005  0.00  0.00    +0.000 C 
ATOM     31  C   UNL     1      54.417  -0.910  18.463  0.00  0.00    +0.000 C 
ATOM     32  N   UNL     1      53.859  -0.619  17.139  0.00  0.00    +0.000 NA
ATOM     33  H   UNL     1      52.932  -1.049  17.060  0.00  0.00    +0.000 HD
ENDBRANCH  25  28
ENDBRANCH  23  24
ENDBRANCH   4  23
TORSDOF 6
ENDMDL
MODEL 8
REMARK VINA RESULT:    -6.658      5.790      7.955
REMARK INTER + INTRA:          -9.917
REMARK INTER:                  -8.781
REMARK INTRA:                  -1.137
REMARK UNBOUND:                -0.924
REMARK  Name = 
REMARK  6 active torsions:
REMARK  status: ('A' for Active; 'I' for Inactive)
REMARK    1  A    between atoms: C_2  and  C_20
REMARK    2  A    between atoms: N_3  and  C_4
REMARK    3  A    between atoms: C_4  and  C_5
REMARK    4  A    between atoms: C_8  and  C_9
REMARK    5  A    between atoms: C_9  and  N_10
REMARK    6  A    between atoms: C_11  and  C_13
REMARK                            x       y       z     vdW  Elec       q    Type
REMARK                         _______ _______ _______ _____ _____    ______ ____
ROOT
ATOM      1  C   UNL     1      49.496   7.907  12.327  0.00  0.00    +0.000 A 
ATOM      2  C   UNL     1      48.420   7.600  11.481  0.00  0.00    +0.000 A 
ATOM      3  C   UNL     1      47.383   6.760  11.912  0.00  0.00    +0.000 A 
ATOM      4  C   UNL     1      47.383   6.230  13.209  0.00  0.00    +0.000 A 
ATOM      5  C   UNL     1      48.453   6.547  14.058  0.00  0.00    +0.000 A 
ATOM      6  C   UNL     1      49.487   7.389  13.627  0.00  0.00    +0.000 A 
ENDROOT
BRANCH   1   7
ATOM      7  C   UNL     1      50.653   8.744  11.842  0.00  0.00    +0.000 C 
BRANCH   7  10
ATOM      8  O   UNL     1      53.272   7.888  11.670  0.00  0.00    +0.000 OA
ATOM      9  C   UNL     1      52.559   7.765  10.677  0.00  0.00    +0.000 C 
ATOM     10  N   UNL     1      51.265   8.235  10.642  0.00  0.00    +0.000 N 
ATOM     11  H   UNL     1      50.645   7.925   9.904  0.00  0.00    +0.000 HD
BRANCH   9  12
ATOM     12  C   UNL     1      53.058   7.122   9.459  0.00  0.00    +0.000 A 
ATOM     13  C   UNL     1      53.432   5.786   9.464  0.00  0.00    +0.000 A 
ATOM     14  S   UNL     1      53.938   5.213   7.936  0.00  0.00    +0.000 S 
ATOM     15  C   UNL     1      53.642   6.723   7.208  0.00  0.00    +0.000 A 
ATOM     16  N   UNL     1      53.821   6.919   5.873  0.00  0.00    +0.000 NA
ATOM     17  C   UNL     1      53.511   8.104   5.459  0.00  0.00    +0.000 A 
ATOM     18  N   UNL     1      53.060   9.118   6.262  0.00  0.00    +0.000 N 
ATOM     19  C   UNL     1      52.926   8.988   7.619  0.00  0.00    +0.000 A 
ATOM     20  O   UNL     1      52.623   9.948   8.323  0.00  0.00    +0.000 OA
ATOM     21  C   UNL     1      53.202   7.659   8.129  0.00  0.00    +0.000 A 
ATOM     22  H   UNL     1      52.873  10.034   5.885  0.00  0.00    +0.000 HD
ENDBRANCH   9  12
ENDBRANCH   7  10
ENDBRANCH   1   7
BRANCH   4  23
ATOM     23  C   UNL     1      46.254   5.355  13.697  0.00  0.00    +0.000 C 
BRANCH  23  24
ATOM     24  N   UNL     1      45.246   5.121  12.690  0.00  0.00    +0.000 N 
ATOM     25  C   UNL     1      44.931   3.832  12.296  0.00  0.00    +0.000 C 
ATOM     26  O   UNL     1      45.463   2.843  12.790  0.00  0.00    +0.000 OA
ATOM     27  H   UNL     1      44.666   5.894  12.391  0.00  0.00    +0.000 HD
BRANCH  25  28
ATOM     28  C   UNL     1      43.841   3.747  11.200  0.00  0.00    +0.000 C 
ATOM     29  C   UNL     1      44.065   4.747  10.079  0.00  0.00    +0.000 C 
ATOM     30  C   UNL     1      45.088   4.057   9.195  0.00  0.00    +0.000 C 
ATOM     31  C   UNL     1      44.833   2.569   9.392  0.00  0.00    +0.000 C 
ATOM     32  N   UNL     1      43.875   2.447  10.495  0.00  0.00    +0.000 NA
ATOM     33  H   UNL     1      44.200   1.726  11.147  0.00  0.00    +0.000 HD
ENDBRANCH  25  28
ENDBRANCH  23  24
ENDBRANCH   4  23
TORSDOF 6
ENDMDL
MODEL 9
REMARK VINA RESULT:    -6.626      5.938      8.611
REMARK INTER + INTRA:          -9.875
REMARK INTER:                  -8.774
REMARK INTRA:                  -1.101
REMARK UNBOUND:                -0.924
REMARK  Name = 
REMARK  6 active torsions:
REMARK  status: ('A' for Active; 'I' for Inactive)
REMARK    1  A    between atoms: C_2  and  C_20
REMARK    2  A    between atoms: N_3  and  C_4
REMARK    3  A    between atoms: C_4  and  C_5
REMARK    4  A    between atoms: C_8  and  C_9
REMARK    5  A    between atoms: C_9  and  N_10
REMARK    6  A    between atoms: C_11  and  C_13
REMARK                            x       y       z     vdW  Elec       q    Type
REMARK                         _______ _______ _______ _____ _____    ______ ____
ROOT
ATOM      1  C   UNL     1      47.839   8.615  11.906  0.00  0.00    +0.000 A 
ATOM      2  C   UNL     1      48.724   7.542  11.724  0.00  0.00    +0.000 A 
ATOM      3  C   UNL     1      50.091   7.766  11.501  0.00  0.00    +0.000 A 
ATOM      4  C   UNL     1      50.608   9.068  11.484  0.00  0.00    +0.000 A 
ATOM      5  C   UNL     1      49.725  10.139  11.679  0.00  0.00    +0.000 A 
ATOM      6  C   UNL     1      48.361   9.914  11.903  0.00  0.00    +0.000 A 
ENDROOT
BRANCH   1   7
ATOM      7  C   UNL     1      46.357   8.382  12.065  0.00  0.00    +0.000 C 
BRANCH   7  10
ATOM      8  O   UNL     1      43.835   7.494  11.374  0.00  0.00    +0.000 OA
ATOM      9  C   UNL     1      44.716   6.655  11.546  0.00  0.00    +0.000 C 
ATOM     10  N   UNL     1      45.981   6.996  11.970  0.00  0.00    +0.000 N 
ATOM     11  H   UNL     1      46.730   6.320  11.888  0.00  0.00    +0.000 HD
BRANCH   9  12
ATOM     12  C   UNL     1      44.458   5.229  11.327  0.00  0.00    +0.000 A 
ATOM     13  C   UNL     1      43.674   4.506  12.215  0.00  0.00    +0.000 A 
ATOM     14  S   UNL     1      43.451   2.875  11.758  0.00  0.00    +0.000 S 
ATOM     15  C   UNL     1      44.365   3.089  10.338  0.00  0.00    +0.000 A 
ATOM     16  N   UNL     1      44.534   2.081   9.440  0.00  0.00    +0.000 NA
ATOM     17  C   UNL     1      45.214   2.407   8.390  0.00  0.00    +0.000 A 
ATOM     18  N   UNL     1      45.758   3.645   8.165  0.00  0.00    +0.000 N 
ATOM     19  C   UNL     1      45.670   4.670   9.069  0.00  0.00    +0.000 A 
ATOM     20  O   UNL     1      46.260   5.731   8.886  0.00  0.00    +0.000 OA
ATOM     21  C   UNL     1      44.866   4.377  10.239  0.00  0.00    +0.000 A 
ATOM     22  H   UNL     1      46.313   3.826   7.343  0.00  0.00    +0.000 HD
ENDBRANCH   9  12
ENDBRANCH   7  10
ENDBRANCH   1   7
BRANCH   4  23
ATOM     23  C   UNL     1      52.083   9.321  11.283  0.00  0.00    +0.000 C 
BRANCH  23  24
ATOM     24  N   UNL     1      52.734   8.285  10.518  0.00  0.00    +0.000 N 
ATOM     25  C   UNL     1      53.501   8.604   9.411  0.00  0.00    +0.000 C 
ATOM     26  O   UNL     1      53.684   9.761   9.047  0.00  0.00    +0.000 OA
ATOM     27  H   UNL     1      52.751   7.344  10.888  0.00  0.00    +0.000 HD
BRANCH  25  28
ATOM     28  C   UNL     1      54.122   7.383   8.690  0.00  0.00    +0.000 C 
ATOM     29  C   UNL     1      53.143   6.231   8.551  0.00  0.00    +0.000 C 
ATOM     30  C   UNL     1      52.328   6.610   7.327  0.00  0.00    +0.000 C 
ATOM     31  C   UNL     1      53.274   7.441   6.472  0.00  0.00    +0.000 C 
ATOM     32  N   UNL     1      54.467   7.694   7.285  0.00  0.00    +0.000 NA
ATOM     33  H   UNL     1      54.718   8.686   7.219  0.00  0.00    +0.000 HD
ENDBRANCH  25  28
ENDBRANCH  23  24
ENDBRANCH   4  23
TORSDOF 6
ENDMDL
