MODEL 1
REMARK VINA RESULT:    -7.425      0.000      0.000
REMARK INTER + INTRA:         -11.578
REMARK INTER:                 -10.463
REMARK INTRA:                  -1.115
REMARK UNBOUND:                -1.115
REMARK  Name = 
REMARK  8 active torsions:
REMARK  status: ('A' for Active; 'I' for Inactive)
REMARK    1  A    between atoms: C_1  and  N_2
REMARK    2  A    between atoms: N_2  and  C_3
REMARK    3  A    between atoms: C_3  and  C_4
REMARK    4  A    between atoms: C_7  and  C_8
REMARK    5  A    between atoms: C_8  and  N_9
REMARK    6  A    between atoms: N_9  and  C_10
REMARK    7  A    between atoms: C_10  and  C_11
REMARK    8  A    between atoms: C_18  and  C_20
REMARK                            x       y       z     vdW  Elec       q    Type
REMARK                         _______ _______ _______ _____ _____    ______ ____
ROOT
ATOM      1  C   UNL     1      47.182   6.158  12.435  0.00  0.00    +0.000 C 
ENDROOT
BRANCH   1   2
ATOM      2  C   UNL     1      47.489   5.720  13.843  0.00  0.00    +0.000 A 
ATOM      3  C   UNL     1      48.355   6.481  14.637  0.00  0.00    +0.000 A 
ATOM      4  C   UNL     1      48.597   6.119  15.959  0.00  0.00    +0.000 A 
ATOM      5  C   UNL     1      47.959   5.006  16.527  0.00  0.00    +0.000 A 
ATOM      6  C   UNL     1      47.127   4.221  15.716  0.00  0.00    +0.000 A 
ATOM      7  C   UNL     1      46.894   4.575  14.384  0.00  0.00    +0.000 A 
BRANCH   5   8
ATOM      8  C   UNL     1      48.191   4.630  17.976  0.00  0.00    +0.000 C 
BRANCH   8   9
ATOM      9  N   UNL     1      49.550   4.132  18.173  0.00  0.00    +0.000 NA
ATOM     10  H   UNL     1      49.702   3.986  19.172  0.00  0.00    +0.000 HD
BRANCH   9  11
ATOM     11  C   UNL     1      49.794   2.860  17.490  0.00  0.00    +0.000 C 
BRANCH  11  12
ATOM     12  C   UNL     1      51.310   2.608  17.454  0.00  0.00    +0.000 C 
ATOM     13  C   UNL     1      51.685   1.139  17.542  0.00  0.00    +0.000 C 
ATOM     14  C   UNL     1      53.160   1.206  17.891  0.00  0.00    +0.000 C 
ATOM     15  C   UNL     1      53.317   2.503  18.676  0.00  0.00    +0.000 C 
ATOM     16  N   UNL     1      52.020   3.183  18.611  0.00  0.00    +0.000 NA
ATOM     17  H   UNL     1      52.149   4.184  18.468  0.00  0.00    +0.000 HD
ENDBRANCH  11  12
ENDBRANCH   9  11
ENDBRANCH   8   9
ENDBRANCH   5   8
ENDBRANCH   1   2
BRANCH   1  19
ATOM     18  C   UNL     1      46.340   8.538  12.318  0.00  0.00    +0.000 C 
ATOM     19  N   UNL     1      46.083   7.104  12.236  0.00  0.00    +0.000 N 
ATOM     20  C   UNL     1      44.834   6.721  11.714  0.00  0.00    +0.000 C 
ATOM     21  O   UNL     1      44.006   7.556  11.358  0.00  0.00    +0.000 OA
BRANCH  20  22
ATOM     22  C   UNL     1      44.499   5.291  11.633  0.00  0.00    +0.000 A 
ATOM     23  C   UNL     1      43.781   4.597  12.592  0.00  0.00    +0.000 A 
ATOM     24  S   UNL     1      43.482   2.968  12.179  0.00  0.00    +0.000 S 
ATOM     25  C   UNL     1      44.175   3.178  10.639  0.00  0.00    +0.000 A 
ATOM     26  N   UNL     1      44.150   2.181   9.716  0.00  0.00    +0.000 NA
ATOM     27  C   UNL     1      44.648   2.506   8.572  0.00  0.00    +0.000 A 
ATOM     28  N   UNL     1      45.209   3.726   8.282  0.00  0.00    +0.000 N 
ATOM     29  C   UNL     1      45.382   4.715   9.224  0.00  0.00    +0.000 A 
ATOM     30  O   UNL     1      46.097   5.682   9.001  0.00  0.00    +0.000 OA
ATOM     31  C   UNL     1      44.718   4.442  10.486  0.00  0.00    +0.000 A 
ATOM     32  H   UNL     1      45.647   3.891   7.388  0.00  0.00    +0.000 HD
ENDBRANCH  20  22
ENDBRANCH   1  19
TORSDOF 7
ENDMDL
MODEL 2
REMARK VINA RESULT:    -7.313      3.846      8.420
REMARK INTER + INTRA:         -11.420
REMARK INTER:                 -10.395
REMARK INTRA:                  -1.025
REMARK UNBOUND:                -1.115
REMARK  Name = 
REMARK  8 active torsions:
REMARK  status: ('A' for Active; 'I' for Inactive)
REMARK    1  A    between atoms: C_1  and  N_2
REMARK    2  A    between atoms: N_2  and  C_3
REMARK    3  A    between atoms: C_3  and  C_4
REMARK    4  A    between atoms: C_7  and  C_8
REMARK    5  A    between atoms: C_8  and  N_9
REMARK    6  A    between atoms: N_9  and  C_10
REMARK    7  A    between atoms: C_10  and  C_11
REMARK    8  A    between atoms: C_18  and  C_20
REMARK                            x       y       z     vdW  Elec       q    Type
REMARK                         _______ _______ _______ _____ _____    ______ ____
ROOT
ATOM      1  C   UNL     1      47.437   7.534  13.661  0.00  0.00    +0.000 C 
ENDROOT
BRANCH   1   2
ATOM      2  C   UNL     1      46.584   6.516  12.950  0.00  0.00    +0.000 A 
ATOM      3  C   UNL     1      46.284   5.299  13.574  0.00  0.00    +0.000 A 
ATOM      4  C   UNL     1      45.448   4.377  12.952  0.00  0.00    +0.000 A 
ATOM      5  C   UNL     1      44.869   4.659  11.706  0.00  0.00    +0.000 A 
ATOM      6  C   UNL     1      45.206   5.860  11.064  0.00  0.00    +0.000 A 
ATOM      7  C   UNL     1      46.059   6.781  11.681  0.00  0.00    +0.000 A 
BRANCH   5   8
ATOM      8  C   UNL     1      43.928   3.676  11.042  0.00  0.00    +0.000 C 
BRANCH   8   9
ATOM      9  N   UNL     1      44.636   2.455  10.662  0.00  0.00    +0.000 NA
ATOM     10  H   UNL     1      44.233   1.671  11.178  0.00  0.00    +0.000 HD
BRANCH   9  11
ATOM     11  C   UNL     1      44.529   2.157   9.233  0.00  0.00    +0.000 C 
BRANCH  11  12
ATOM     12  C   UNL     1      45.931   2.245   8.609  0.00  0.00    +0.000 C 
ATOM     13  C   UNL     1      45.996   3.139   7.383  0.00  0.00    +0.000 C 
ATOM     14  C   UNL     1      47.320   2.731   6.761  0.00  0.00    +0.000 C 
ATOM     15  C   UNL     1      47.503   1.271   7.157  0.00  0.00    +0.000 C 
ATOM     16  N   UNL     1      46.413   0.955   8.083  0.00  0.00    +0.000 NA
ATOM     17  H   UNL     1      46.754   0.380   8.853  0.00  0.00    +0.000 HD
ENDBRANCH  11  12
ENDBRANCH   9  11
ENDBRANCH   8   9
ENDBRANCH   5   8
ENDBRANCH   1   2
BRANCH   1  19
ATOM     18  C   UNL     1      49.507   6.992  12.318  0.00  0.00    +0.000 C 
ATOM     19  N   UNL     1      48.891   7.387  13.579  0.00  0.00    +0.000 N 
ATOM     20  C   UNL     1      49.760   7.853  14.582  0.00  0.00    +0.000 C 
ATOM     21  O   UNL     1      50.974   7.911  14.401  0.00  0.00    +0.000 OA
BRANCH  20  22
ATOM     22  C   UNL     1      49.207   8.238  15.890  0.00  0.00    +0.000 A 
ATOM     23  C   UNL     1      48.929   9.540  16.272  0.00  0.00    +0.000 A 
ATOM     24  S   UNL     1      48.221   9.662  17.821  0.00  0.00    +0.000 S 
ATOM     25  C   UNL     1      48.128   7.969  17.968  0.00  0.00    +0.000 A 
ATOM     26  N   UNL     1      47.515   7.390  19.033  0.00  0.00    +0.000 NA
ATOM     27  C   UNL     1      47.458   6.103  18.977  0.00  0.00    +0.000 A 
ATOM     28  N   UNL     1      47.998   5.341  17.970  0.00  0.00    +0.000 N 
ATOM     29  C   UNL     1      48.747   5.874  16.945  0.00  0.00    +0.000 A 
ATOM     30  O   UNL     1      49.414   5.157  16.210  0.00  0.00    +0.000 OA
ATOM     31  C   UNL     1      48.724   7.325  16.897  0.00  0.00    +0.000 A 
ATOM     32  H   UNL     1      47.982   4.334  18.022  0.00  0.00    +0.000 HD
ENDBRANCH  20  22
ENDBRANCH   1  19
TORSDOF 7
ENDMDL
MODEL 3
REMARK VINA RESULT:    -7.214      2.057      3.210
REMARK INTER + INTRA:         -11.281
REMARK INTER:                  -9.643
REMARK INTRA:                  -1.637
REMARK UNBOUND:                -1.115
REMARK  Name = 
REMARK  8 active torsions:
REMARK  status: ('A' for Active; 'I' for Inactive)
REMARK    1  A    between atoms: C_1  and  N_2
REMARK    2  A    between atoms: N_2  and  C_3
REMARK    3  A    between atoms: C_3  and  C_4
REMARK    4  A    between atoms: C_7  and  C_8
REMARK    5  A    between atoms: C_8  and  N_9
REMARK    6  A    between atoms: N_9  and  C_10
REMARK    7  A    between atoms: C_10  and  C_11
REMARK    8  A    between atoms: C_18  and  C_20
REMARK                            x       y       z     vdW  Elec       q    Type
REMARK                         _______ _______ _______ _____ _____    ______ ____
ROOT
ATOM      1  C   UNL     1      47.091   6.162  12.507  0.00  0.00    +0.000 C 
ENDROOT
BRANCH   1   2
ATOM      2  C   UNL     1      47.390   5.709  13.912  0.00  0.00    +0.000 A 
ATOM      3  C   UNL     1      46.823   4.525  14.398  0.00  0.00    +0.000 A 
ATOM      4  C   UNL     1      47.141   4.065  15.673  0.00  0.00    +0.000 A 
ATOM      5  C   UNL     1      48.054   4.760  16.480  0.00  0.00    +0.000 A 
ATOM      6  C   UNL     1      48.586   5.968  16.007  0.00  0.00    +0.000 A 
ATOM      7  C   UNL     1      48.256   6.440  14.733  0.00  0.00    +0.000 A 
BRANCH   5   8
ATOM      8  C   UNL     1      48.432   4.244  17.853  0.00  0.00    +0.000 C 
BRANCH   8   9
ATOM      9  N   UNL     1      47.608   4.867  18.887  0.00  0.00    +0.000 NA
ATOM     10  H   UNL     1      46.938   4.176  19.229  0.00  0.00    +0.000 HD
BRANCH   9  11
ATOM     11  C   UNL     1      48.392   5.339  20.030  0.00  0.00    +0.000 C 
BRANCH  11  12
ATOM     12  C   UNL     1      48.533   6.866  19.927  0.00  0.00    +0.000 C 
ATOM     13  C   UNL     1      47.423   7.527  19.130  0.00  0.00    +0.000 C 
ATOM     14  C   UNL     1      48.006   8.900  18.846  0.00  0.00    +0.000 C 
ATOM     15  C   UNL     1      49.513   8.679  18.795  0.00  0.00    +0.000 C 
ATOM     16  N   UNL     1      49.740   7.288  19.193  0.00  0.00    +0.000 NA
ATOM     17  H   UNL     1      50.552   7.219  19.806  0.00  0.00    +0.000 HD
ENDBRANCH  11  12
ENDBRANCH   9  11
ENDBRANCH   8   9
ENDBRANCH   5   8
ENDBRANCH   1   2
BRANCH   1  19
ATOM     18  C   UNL     1      46.175   8.517  12.466  0.00  0.00    +0.000 C 
ATOM     19  N   UNL     1      45.969   7.082  12.308  0.00  0.00    +0.000 N 
ATOM     20  C   UNL     1      44.755   6.684  11.720  0.00  0.00    +0.000 C 
ATOM     21  O   UNL     1      43.913   7.508  11.371  0.00  0.00    +0.000 OA
BRANCH  20  22
ATOM     22  C   UNL     1      44.471   5.250  11.560  0.00  0.00    +0.000 A 
ATOM     23  C   UNL     1      43.716   4.495  12.442  0.00  0.00    +0.000 A 
ATOM     24  S   UNL     1      43.496   2.876  11.946  0.00  0.00    +0.000 S 
ATOM     25  C   UNL     1      44.278   3.172  10.463  0.00  0.00    +0.000 A 
ATOM     26  N   UNL     1      44.344   2.214   9.502  0.00  0.00    +0.000 NA
ATOM     27  C   UNL     1      44.903   2.601   8.406  0.00  0.00    +0.000 A 
ATOM     28  N   UNL     1      45.442   3.848   8.202  0.00  0.00    +0.000 N 
ATOM     29  C   UNL     1      45.523   4.801   9.193  0.00  0.00    +0.000 A 
ATOM     30  O   UNL     1      46.220   5.797   9.056  0.00  0.00    +0.000 OA
ATOM     31  C   UNL     1      44.789   4.456  10.397  0.00  0.00    +0.000 A 
ATOM     32  H   UNL     1      45.930   4.063   7.346  0.00  0.00    +0.000 HD
ENDBRANCH  20  22
ENDBRANCH   1  19
TORSDOF 7
ENDMDL
MODEL 4
REMARK VINA RESULT:    -7.078      3.141      8.383
REMARK INTER + INTRA:         -11.089
REMARK INTER:                 -10.066
REMARK INTRA:                  -1.023
REMARK UNBOUND:                -1.115
REMARK  Name = 
REMARK  8 active torsions:
REMARK  status: ('A' for Active; 'I' for Inactive)
REMARK    1  A    between atoms: C_1  and  N_2
REMARK    2  A    between atoms: N_2  and  C_3
REMARK    3  A    between atoms: C_3  and  C_4
REMARK    4  A    between atoms: C_7  and  C_8
REMARK    5  A    between atoms: C_8  and  N_9
REMARK    6  A    between atoms: N_9  and  C_10
REMARK    7  A    between atoms: C_10  and  C_11
REMARK    8  A    between atoms: C_18  and  C_20
REMARK                            x       y       z     vdW  Elec       q    Type
REMARK                         _______ _______ _______ _____ _____    ______ ____
ROOT
ATOM      1  C   UNL     1      49.208   6.849  15.116  0.00  0.00    +0.000 C 
ENDROOT
BRANCH   1   2
ATOM      2  C   UNL     1      48.018   6.774  14.195  0.00  0.00    +0.000 A 
ATOM      3  C   UNL     1      47.442   5.533  13.899  0.00  0.00    +0.000 A 
ATOM      4  C   UNL     1      46.306   5.458  13.098  0.00  0.00    +0.000 A 
ATOM      5  C   UNL     1      45.702   6.621  12.597  0.00  0.00    +0.000 A 
ATOM      6  C   UNL     1      46.308   7.859  12.859  0.00  0.00    +0.000 A 
ATOM      7  C   UNL     1      47.458   7.935  13.651  0.00  0.00    +0.000 A 
BRANCH   5   8
ATOM      8  C   UNL     1      44.445   6.548  11.757  0.00  0.00    +0.000 C 
BRANCH   8   9
ATOM      9  N   UNL     1      44.718   5.915  10.468  0.00  0.00    +0.000 NA
ATOM     10  H   UNL     1      45.708   5.666  10.431  0.00  0.00    +0.000 HD
BRANCH   9  11
ATOM     11  C   UNL     1      43.938   4.695  10.257  0.00  0.00    +0.000 C 
BRANCH  11  12
ATOM     12  C   UNL     1      44.478   3.980   9.009  0.00  0.00    +0.000 C 
ATOM     13  C   UNL     1      45.120   2.636   9.307  0.00  0.00    +0.000 C 
ATOM     14  C   UNL     1      45.898   2.362   8.033  0.00  0.00    +0.000 C 
ATOM     15  C   UNL     1      46.264   3.741   7.496  0.00  0.00    +0.000 C 
ATOM     16  N   UNL     1      45.577   4.712   8.352  0.00  0.00    +0.000 NA
ATOM     17  H   UNL     1      45.192   5.472   7.792  0.00  0.00    +0.000 HD
ENDBRANCH  11  12
ENDBRANCH   9  11
ENDBRANCH   8   9
ENDBRANCH   5   8
ENDBRANCH   1   2
BRANCH   1  19
ATOM     18  C   UNL     1      49.109   8.976  16.476  0.00  0.00    +0.000 C 
ATOM     19  N   UNL     1      49.035   7.521  16.404  0.00  0.00    +0.000 N 
ATOM     20  C   UNL     1      48.546   6.862  17.546  0.00  0.00    +0.000 C 
ATOM     21  O   UNL     1      48.210   7.486  18.550  0.00  0.00    +0.000 OA
BRANCH  20  22
ATOM     22  C   UNL     1      48.474   5.393  17.553  0.00  0.00    +0.000 A 
ATOM     23  C   UNL     1      47.316   4.662  17.347  0.00  0.00    +0.000 A 
ATOM     24  S   UNL     1      47.565   2.973  17.335  0.00  0.00    +0.000 S 
ATOM     25  C   UNL     1      49.251   3.170  17.456  0.00  0.00    +0.000 A 
ATOM     26  N   UNL     1      50.088   2.102  17.391  0.00  0.00    +0.000 NA
ATOM     27  C   UNL     1      51.341   2.407  17.425  0.00  0.00    +0.000 A 
ATOM     28  N   UNL     1      51.830   3.683  17.563  0.00  0.00    +0.000 N 
ATOM     29  C   UNL     1      51.021   4.777  17.773  0.00  0.00    +0.000 A 
ATOM     30  O   UNL     1      51.489   5.849  18.135  0.00  0.00    +0.000 OA
ATOM     31  C   UNL     1      49.605   4.499  17.609  0.00  0.00    +0.000 A 
ATOM     32  H   UNL     1      52.821   3.847  17.656  0.00  0.00    +0.000 HD
ENDBRANCH  20  22
ENDBRANCH   1  19
TORSDOF 7
ENDMDL
MODEL 5
REMARK VINA RESULT:    -7.028      3.348      8.521
REMARK INTER + INTRA:         -11.019
REMARK INTER:                  -9.925
REMARK INTRA:                  -1.094
REMARK UNBOUND:                -1.115
REMARK  Name = 
REMARK  8 active torsions:
REMARK  status: ('A' for Active; 'I' for Inactive)
REMARK    1  A    between atoms: C_1  and  N_2
REMARK    2  A    between atoms: N_2  and  C_3
REMARK    3  A    between atoms: C_3  and  C_4
REMARK    4  A    between atoms: C_7  and  C_8
REMARK    5  A    between atoms: C_8  and  N_9
REMARK    6  A    between atoms: N_9  and  C_10
REMARK    7  A    between atoms: C_10  and  C_11
REMARK    8  A    between atoms: C_18  and  C_20
REMARK                            x       y       z     vdW  Elec       q    Type
REMARK                         _______ _______ _______ _____ _____    ______ ____
ROOT
ATOM      1  C   UNL     1      48.826   7.060  13.551  0.00  0.00    +0.000 C 
ENDROOT
BRANCH   1   2
ATOM      2  C   UNL     1      47.701   6.244  12.970  0.00  0.00    +0.000 A 
ATOM      3  C   UNL     1      47.198   5.146  13.677  0.00  0.00    +0.000 A 
ATOM      4  C   UNL     1      46.118   4.423  13.178  0.00  0.00    +0.000 A 
ATOM      5  C   UNL     1      45.498   4.796  11.976  0.00  0.00    +0.000 A 
ATOM      6  C   UNL     1      46.032   5.870  11.249  0.00  0.00    +0.000 A 
ATOM      7  C   UNL     1      47.126   6.588  11.741  0.00  0.00    +0.000 A 
BRANCH   5   8
ATOM      8  C   UNL     1      44.299   4.036  11.448  0.00  0.00    +0.000 C 
BRANCH   8   9
ATOM      9  N   UNL     1      44.715   2.788  10.811  0.00  0.00    +0.000 NA
ATOM     10  H   UNL     1      44.172   2.022  11.212  0.00  0.00    +0.000 HD
BRANCH   9  11
ATOM     11  C   UNL     1      44.496   2.788   9.364  0.00  0.00    +0.000 C 
BRANCH  11  12
ATOM     12  C   UNL     1      45.840   2.523   8.667  0.00  0.00    +0.000 C 
ATOM     13  C   UNL     1      45.961   3.187   7.307  0.00  0.00    +0.000 C 
ATOM     14  C   UNL     1      47.144   2.456   6.697  0.00  0.00    +0.000 C 
ATOM     15  C   UNL     1      47.107   1.067   7.322  0.00  0.00    +0.000 C 
ATOM     16  N   UNL     1      46.054   1.101   8.341  0.00  0.00    +0.000 NA
ATOM     17  H   UNL     1      46.351   0.601   9.178  0.00  0.00    +0.000 HD
ENDBRANCH  11  12
ENDBRANCH   9  11
ENDBRANCH   8   9
ENDBRANCH   5   8
ENDBRANCH   1   2
BRANCH   1  19
ATOM     18  C   UNL     1      47.317   8.921  14.353  0.00  0.00    +0.000 C 
ATOM     19  N   UNL     1      48.491   8.077  14.549  0.00  0.00    +0.000 N 
ATOM     20  C   UNL     1      49.091   8.123  15.820  0.00  0.00    +0.000 C 
ATOM     21  O   UNL     1      48.649   8.845  16.710  0.00  0.00    +0.000 OA
BRANCH  20  22
ATOM     22  C   UNL     1      50.297   7.320  16.074  0.00  0.00    +0.000 A 
ATOM     23  C   UNL     1      51.592   7.756  15.848  0.00  0.00    +0.000 A 
ATOM     24  S   UNL     1      52.785   6.626  16.314  0.00  0.00    +0.000 S 
ATOM     25  C   UNL     1      51.613   5.581  16.968  0.00  0.00    +0.000 A 
ATOM     26  N   UNL     1      51.972   4.452  17.634  0.00  0.00    +0.000 NA
ATOM     27  C   UNL     1      50.983   3.795  18.136  0.00  0.00    +0.000 A 
ATOM     28  N   UNL     1      49.662   4.143  17.994  0.00  0.00    +0.000 N 
ATOM     29  C   UNL     1      49.244   5.197  17.212  0.00  0.00    +0.000 A 
ATOM     30  O   UNL     1      48.066   5.331  16.909  0.00  0.00    +0.000 OA
ATOM     31  C   UNL     1      50.328   6.040  16.739  0.00  0.00    +0.000 A 
ATOM     32  H   UNL     1      48.932   3.545  18.350  0.00  0.00    +0.000 HD
ENDBRANCH  20  22
ENDBRANCH   1  19
TORSDOF 7
ENDMDL
MODEL 6
REMARK VINA RESULT:    -7.003      3.071      8.414
REMARK INTER + INTRA:         -10.983
REMARK INTER:                 -10.089
REMARK INTRA:                  -0.894
REMARK UNBOUND:                -1.115
REMARK  Name = 
REMARK  8 active torsions:
REMARK  status: ('A' for Active; 'I' for Inactive)
REMARK    1  A    between atoms: C_1  and  N_2
REMARK    2  A    between atoms: N_2  and  C_3
REMARK    3  A    between atoms: C_3  and  C_4
REMARK    4  A    between atoms: C_7  and  C_8
REMARK    5  A    between atoms: C_8  and  N_9
REMARK    6  A    between atoms: N_9  and  C_10
REMARK    7  A    between atoms: C_10  and  C_11
REMARK    8  A    between atoms: C_18  and  C_20
REMARK                            x       y       z     vdW  Elec       q    Type
REMARK                         _______ _______ _______ _____ _____    ______ ____
ROOT
ATOM      1  C   UNL     1      48.639   6.265  13.740  0.00  0.00    +0.000 C 
ENDROOT
BRANCH   1   2
ATOM      2  C   UNL     1      47.356   5.983  13.002  0.00  0.00    +0.000 A 
ATOM      3  C   UNL     1      47.074   6.659  11.809  0.00  0.00    +0.000 A 
ATOM      4  C   UNL     1      45.921   6.363  11.088  0.00  0.00    +0.000 A 
ATOM      5  C   UNL     1      45.037   5.365  11.526  0.00  0.00    +0.000 A 
ATOM      6  C   UNL     1      45.300   4.721  12.744  0.00  0.00    +0.000 A 
ATOM      7  C   UNL     1      46.450   5.029  13.477  0.00  0.00    +0.000 A 
BRANCH   5   8
ATOM      8  C   UNL     1      43.801   5.013  10.726  0.00  0.00    +0.000 C 
BRANCH   8   9
ATOM      9  N   UNL     1      44.165   4.463   9.422  0.00  0.00    +0.000 NA
ATOM     10  H   UNL     1      45.022   4.920   9.104  0.00  0.00    +0.000 HD
BRANCH   9  11
ATOM     11  C   UNL     1      44.411   3.021   9.462  0.00  0.00    +0.000 C 
BRANCH  11  12
ATOM     12  C   UNL     1      45.754   2.736   8.770  0.00  0.00    +0.000 C 
ATOM     13  C   UNL     1      45.883   3.385   7.403  0.00  0.00    +0.000 C 
ATOM     14  C   UNL     1      47.060   2.636   6.803  0.00  0.00    +0.000 C 
ATOM     15  C   UNL     1      47.008   1.253   7.442  0.00  0.00    +0.000 C 
ATOM     16  N   UNL     1      45.954   1.309   8.458  0.00  0.00    +0.000 NA
ATOM     17  H   UNL     1      46.244   0.814   9.301  0.00  0.00    +0.000 HD
ENDBRANCH  11  12
ENDBRANCH   9  11
ENDBRANCH   8   9
ENDBRANCH   5   8
ENDBRANCH   1   2
BRANCH   1  19
ATOM     18  C   UNL     1      48.481   8.745  14.196  0.00  0.00    +0.000 C 
ATOM     19  N   UNL     1      48.655   7.382  14.685  0.00  0.00    +0.000 N 
ATOM     20  C   UNL     1      48.573   7.201  16.077  0.00  0.00    +0.000 C 
ATOM     21  O   UNL     1      48.375   8.148  16.835  0.00  0.00    +0.000 OA
BRANCH  20  22
ATOM     22  C   UNL     1      48.770   5.857  16.640  0.00  0.00    +0.000 A 
ATOM     23  C   UNL     1      47.791   4.880  16.701  0.00  0.00    +0.000 A 
ATOM     24  S   UNL     1      48.344   3.395  17.338  0.00  0.00    +0.000 S 
ATOM     25  C   UNL     1      49.945   3.965  17.414  0.00  0.00    +0.000 A 
ATOM     26  N   UNL     1      50.965   3.146  17.779  0.00  0.00    +0.000 NA
ATOM     27  C   UNL     1      52.131   3.694  17.723  0.00  0.00    +0.000 A 
ATOM     28  N   UNL     1      52.363   5.002  17.377  0.00  0.00    +0.000 N 
ATOM     29  C   UNL     1      51.352   5.905  17.137  0.00  0.00    +0.000 A 
ATOM     30  O   UNL     1      51.578   7.106  17.075  0.00  0.00    +0.000 OA
ATOM     31  C   UNL     1      50.034   5.300  17.058  0.00  0.00    +0.000 A 
ATOM     32  H   UNL     1      53.294   5.390  17.424  0.00  0.00    +0.000 HD
ENDBRANCH  20  22
ENDBRANCH   1  19
TORSDOF 7
ENDMDL
MODEL 7
REMARK VINA RESULT:    -6.580      1.388      2.232
REMARK INTER + INTRA:         -10.387
REMARK INTER:                  -9.117
REMARK INTRA:                  -1.271
REMARK UNBOUND:                -1.115
REMARK  Name = 
REMARK  8 active torsions:
REMARK  status: ('A' for Active; 'I' for Inactive)
REMARK    1  A    between atoms: C_1  and  N_2
REMARK    2  A    between atoms: N_2  and  C_3
REMARK    3  A    between atoms: C_3  and  C_4
REMARK    4  A    between atoms: C_7  and  C_8
REMARK    5  A    between atoms: C_8  and  N_9
REMARK    6  A    between atoms: N_9  and  C_10
REMARK    7  A    between atoms: C_10  and  C_11
REMARK    8  A    between atoms: C_18  and  C_20
REMARK                            x       y       z     vdW  Elec       q    Type
REMARK                         _______ _______ _______ _____ _____    ______ ____
ROOT
ATOM      1  C   UNL     1      47.156   6.262  12.371  0.00  0.00    +0.000 C 
ENDROOT
BRANCH   1   2
ATOM      2  C   UNL     1      48.099   6.577  13.503  0.00  0.00    +0.000 A 
ATOM      3  C   UNL     1      47.831   6.096  14.790  0.00  0.00    +0.000 A 
ATOM      4  C   UNL     1      48.727   6.330  15.829  0.00  0.00    +0.000 A 
ATOM      5  C   UNL     1      49.923   7.026  15.602  0.00  0.00    +0.000 A 
ATOM      6  C   UNL     1      50.168   7.545  14.322  0.00  0.00    +0.000 A 
ATOM      7  C   UNL     1      49.262   7.324  13.281  0.00  0.00    +0.000 A 
BRANCH   5   8
ATOM      8  C   UNL     1      50.919   7.251  16.721  0.00  0.00    +0.000 C 
BRANCH   8   9
ATOM      9  N   UNL     1      50.383   6.779  17.996  0.00  0.00    +0.000 NA
ATOM     10  H   UNL     1      49.486   6.321  17.823  0.00  0.00    +0.000 HD
BRANCH   9  11
ATOM     11  C   UNL     1      51.261   5.815  18.660  0.00  0.00    +0.000 C 
BRANCH  11  12
ATOM     12  C   UNL     1      50.548   4.453  18.700  0.00  0.00    +0.000 C 
ATOM     13  C   UNL     1      50.728   3.635  17.434  0.00  0.00    +0.000 C 
ATOM     14  C   UNL     1      49.637   2.588  17.571  0.00  0.00    +0.000 C 
ATOM     15  C   UNL     1      48.540   3.273  18.377  0.00  0.00    +0.000 C 
ATOM     16  N   UNL     1      49.082   4.569  18.793  0.00  0.00    +0.000 NA
ATOM     17  H   UNL     1      48.816   4.775  19.755  0.00  0.00    +0.000 HD
ENDBRANCH  11  12
ENDBRANCH   9  11
ENDBRANCH   8   9
ENDBRANCH   5   8
ENDBRANCH   1   2
BRANCH   1  19
ATOM     18  C   UNL     1      46.244   8.612  12.212  0.00  0.00    +0.000 C 
ATOM     19  N   UNL     1      46.033   7.171  12.141  0.00  0.00    +0.000 N 
ATOM     20  C   UNL     1      44.806   6.744  11.602  0.00  0.00    +0.000 C 
ATOM     21  O   UNL     1      43.959   7.548  11.222  0.00  0.00    +0.000 OA
BRANCH  20  22
ATOM     22  C   UNL     1      44.516   5.303  11.530  0.00  0.00    +0.000 A 
ATOM     23  C   UNL     1      43.792   4.600  12.478  0.00  0.00    +0.000 A 
ATOM     24  S   UNL     1      43.555   2.957  12.078  0.00  0.00    +0.000 S 
ATOM     25  C   UNL     1      44.286   3.169  10.556  0.00  0.00    +0.000 A 
ATOM     26  N   UNL     1      44.319   2.160   9.647  0.00  0.00    +0.000 NA
ATOM     27  C   UNL     1      44.841   2.485   8.514  0.00  0.00    +0.000 A 
ATOM     28  N   UNL     1      45.372   3.717   8.223  0.00  0.00    +0.000 N 
ATOM     29  C   UNL     1      45.488   4.723   9.156  0.00  0.00    +0.000 A 
ATOM     30  O   UNL     1      46.180   5.709   8.941  0.00  0.00    +0.000 OA
ATOM     31  C   UNL     1      44.795   4.447  10.403  0.00  0.00    +0.000 A 
ATOM     32  H   UNL     1      45.832   3.884   7.341  0.00  0.00    +0.000 HD
ENDBRANCH  20  22
ENDBRANCH   1  19
TORSDOF 7
ENDMDL
MODEL 8
REMARK VINA RESULT:    -6.559      3.817      4.867
REMARK INTER + INTRA:         -10.357
REMARK INTER:                  -9.274
REMARK INTRA:                  -1.083
REMARK UNBOUND:                -1.115
REMARK  Name = 
REMARK  8 active torsions:
REMARK  status: ('A' for Active; 'I' for Inactive)
REMARK    1  A    between atoms: C_1  and  N_2
REMARK    2  A    between atoms: N_2  and  C_3
REMARK    3  A    between atoms: C_3  and  C_4
REMARK    4  A    between atoms: C_7  and  C_8
REMARK    5  A    between atoms: C_8  and  N_9
REMARK    6  A    between atoms: N_9  and  C_10
REMARK    7  A    between atoms: C_10  and  C_11
REMARK    8  A    between atoms: C_18  and  C_20
REMARK                            x       y       z     vdW  Elec       q    Type
REMARK                         _______ _______ _______ _____ _____    ______ ____
ROOT
ATOM      1  C   UNL     1      46.579   6.232  12.662  0.00  0.00    +0.000 C 
ENDROOT
BRANCH   1   2
ATOM      2  C   UNL     1      47.886   6.948  12.879  0.00  0.00    +0.000 A 
ATOM      3  C   UNL     1      48.383   7.115  14.177  0.00  0.00    +0.000 A 
ATOM      4  C   UNL     1      49.619   7.721  14.384  0.00  0.00    +0.000 A 
ATOM      5  C   UNL     1      50.400   8.148  13.300  0.00  0.00    +0.000 A 
ATOM      6  C   UNL     1      49.879   8.020  12.004  0.00  0.00    +0.000 A 
ATOM      7  C   UNL     1      48.631   7.425  11.795  0.00  0.00    +0.000 A 
BRANCH   5   8
ATOM      8  C   UNL     1      51.762   8.774  13.518  0.00  0.00    +0.000 C 
BRANCH   8   9
ATOM      9  N   UNL     1      52.815   7.938  12.945  0.00  0.00    +0.000 NA
ATOM     10  H   UNL     1      52.383   7.114  12.523  0.00  0.00    +0.000 HD
BRANCH   9  11
ATOM     11  C   UNL     1      53.584   8.626  11.906  0.00  0.00    +0.000 C 
BRANCH  11  12
ATOM     12  C   UNL     1      54.012   7.592  10.852  0.00  0.00    +0.000 C 
ATOM     13  C   UNL     1      52.879   7.140   9.947  0.00  0.00    +0.000 C 
ATOM     14  C   UNL     1      53.453   5.884   9.318  0.00  0.00    +0.000 C 
ATOM     15  C   UNL     1      54.409   5.325  10.366  0.00  0.00    +0.000 C 
ATOM     16  N   UNL     1      54.470   6.320  11.440  0.00  0.00    +0.000 NA
ATOM     17  H   UNL     1      55.427   6.425  11.776  0.00  0.00    +0.000 HD
ENDBRANCH  11  12
ENDBRANCH   9  11
ENDBRANCH   8   9
ENDBRANCH   5   8
ENDBRANCH   1   2
BRANCH   1  19
ATOM     18  C   UNL     1      45.442   8.484  12.523  0.00  0.00    +0.000 C 
ATOM     19  N   UNL     1      45.401   7.039  12.335  0.00  0.00    +0.000 N 
ATOM     20  C   UNL     1      44.311   6.532  11.607  0.00  0.00    +0.000 C 
ATOM     21  O   UNL     1      43.437   7.274  11.164  0.00  0.00    +0.000 OA
BRANCH  20  22
ATOM     22  C   UNL     1      44.193   5.080  11.407  0.00  0.00    +0.000 A 
ATOM     23  C   UNL     1      43.418   4.240  12.190  0.00  0.00    +0.000 A 
ATOM     24  S   UNL     1      43.423   2.615  11.664  0.00  0.00    +0.000 S 
ATOM     25  C   UNL     1      44.340   3.011  10.287  0.00  0.00    +0.000 A 
ATOM     26  N   UNL     1      44.615   2.081   9.336  0.00  0.00    +0.000 NA
ATOM     27  C   UNL     1      45.258   2.539   8.316  0.00  0.00    +0.000 A 
ATOM     28  N   UNL     1      45.688   3.835   8.183  0.00  0.00    +0.000 N 
ATOM     29  C   UNL     1      45.557   4.776   9.180  0.00  0.00    +0.000 A 
ATOM     30  O   UNL     1      46.161   5.839   9.131  0.00  0.00    +0.000 OA
ATOM     31  C   UNL     1      44.724   4.341  10.287  0.00  0.00    +0.000 A 
ATOM     32  H   UNL     1      46.250   4.112   7.392  0.00  0.00    +0.000 HD
ENDBRANCH  20  22
ENDBRANCH   1  19
TORSDOF 7
ENDMDL
MODEL 9
REMARK VINA RESULT:    -6.443      3.659      8.129
REMARK INTER + INTRA:         -10.194
REMARK INTER:                  -8.967
REMARK INTRA:                  -1.226
REMARK UNBOUND:                -1.115
REMARK  Name = 
REMARK  8 active torsions:
REMARK  status: ('A' for Active; 'I' for Inactive)
REMARK    1  A    between atoms: C_1  and  N_2
REMARK    2  A    between atoms: N_2  and  C_3
REMARK    3  A    between atoms: C_3  and  C_4
REMARK    4  A    between atoms: C_7  and  C_8
REMARK    5  A    between atoms: C_8  and  N_9
REMARK    6  A    between atoms: N_9  and  C_10
REMARK    7  A    between atoms: C_10  and  C_11
REMARK    8  A    between atoms: C_18  and  C_20
REMARK                            x       y       z     vdW  Elec       q    Type
REMARK                         _______ _______ _______ _____ _____    ______ ____
ROOT
ATOM      1  C   UNL     1      49.115   7.489  12.306  0.00  0.00    +0.000 C 
ENDROOT
BRANCH   1   2
ATOM      2  C   UNL     1      47.746   6.906  12.542  0.00  0.00    +0.000 A 
ATOM      3  C   UNL     1      46.608   7.604  12.120  0.00  0.00    +0.000 A 
ATOM      4  C   UNL     1      45.342   7.046  12.278  0.00  0.00    +0.000 A 
ATOM      5  C   UNL     1      45.186   5.768  12.835  0.00  0.00    +0.000 A 
ATOM      6  C   UNL     1      46.324   5.091  13.296  0.00  0.00    +0.000 A 
ATOM      7  C   UNL     1      47.595   5.656  13.152  0.00  0.00    +0.000 A 
BRANCH   5   8
ATOM      8  C   UNL     1      43.814   5.141  12.975  0.00  0.00    +0.000 C 
BRANCH   8   9
ATOM      9  N   UNL     1      43.896   3.685  12.874  0.00  0.00    +0.000 NA
ATOM     10  H   UNL     1      43.341   3.275  13.627  0.00  0.00    +0.000 HD
BRANCH   9  11
ATOM     11  C   UNL     1      43.378   3.174  11.604  0.00  0.00    +0.000 C 
BRANCH  11  12
ATOM     12  C   UNL     1      44.526   3.153  10.582  0.00  0.00    +0.000 C 
ATOM     13  C   UNL     1      44.408   4.224   9.512  0.00  0.00    +0.000 C 
ATOM     14  C   UNL     1      45.384   3.733   8.458  0.00  0.00    +0.000 C 
ATOM     15  C   UNL     1      45.380   2.216   8.601  0.00  0.00    +0.000 C 
ATOM     16  N   UNL     1      44.568   1.915   9.782  0.00  0.00    +0.000 NA
ATOM     17  H   UNL     1      44.996   1.170  10.330  0.00  0.00    +0.000 HD
ENDBRANCH  11  12
ENDBRANCH   9  11
ENDBRANCH   8   9
ENDBRANCH   5   8
ENDBRANCH   1   2
BRANCH   1  19
ATOM     18  C   UNL     1      49.116   9.862  11.436  0.00  0.00    +0.000 C 
ATOM     19  N   UNL     1      49.298   8.923  12.537  0.00  0.00    +0.000 N 
ATOM     20  C   UNL     1      49.391   9.479  13.826  0.00  0.00    +0.000 C 
ATOM     21  O   UNL     1      49.331  10.693  14.005  0.00  0.00    +0.000 OA
BRANCH  20  22
ATOM     22  C   UNL     1      49.606   8.590  14.978  0.00  0.00    +0.000 A 
ATOM     23  C   UNL     1      48.600   8.121  15.807  0.00  0.00    +0.000 A 
ATOM     24  S   UNL     1      49.152   7.044  17.011  0.00  0.00    +0.000 S 
ATOM     25  C   UNL     1      50.729   7.056  16.371  0.00  0.00    +0.000 A 
ATOM     26  N   UNL     1      51.697   6.248  16.876  0.00  0.00    +0.000 NA
ATOM     27  C   UNL     1      52.822   6.311  16.248  0.00  0.00    +0.000 A 
ATOM     28  N   UNL     1      53.077   7.143  15.186  0.00  0.00    +0.000 N 
ATOM     29  C   UNL     1      52.173   8.077  14.731  0.00  0.00    +0.000 A 
ATOM     30  O   UNL     1      52.513   8.961  13.955  0.00  0.00    +0.000 OA
ATOM     31  C   UNL     1      50.852   7.948  15.321  0.00  0.00    +0.000 A 
ATOM     32  H   UNL     1      54.001   7.197  14.785  0.00  0.00    +0.000 HD
ENDBRANCH  20  22
ENDBRANCH   1  19
TORSDOF 7
ENDMDL
