MODEL 1
REMARK VINA RESULT:    -8.834      0.000      0.000
REMARK INTER + INTRA:         -11.078
REMARK INTER:                 -11.158
REMARK INTRA:                   0.080
REMARK UNBOUND:                 0.080
REMARK  Name = 
REMARK  5 active torsions:
REMARK  status: ('A' for Active; 'I' for Inactive)
REMARK    1  A    between atoms: N_1  and  C_2
REMARK    2  A    between atoms: C_2  and  C_3
REMARK    3  A    between atoms: C_6  and  C_7
REMARK    4  A    between atoms: C_7  and  C_8
REMARK    5  A    between atoms: C_15  and  C_16
REMARK                            x       y       z     vdW  Elec       q    Type
REMARK                         _______ _______ _______ _____ _____    ______ ____
ROOT
ATOM      1  C   UNL     1      44.000   4.033  10.885  0.00  0.00    +0.000 A 
ATOM      2  N   UNL     1      43.411   5.072  10.268  0.00  0.00    +0.000 NA
ATOM      3  O   UNL     1      43.999   6.202  10.806  0.00  0.00    +0.000 OA
ATOM      4  C   UNL     1      44.867   5.837  11.782  0.00  0.00    +0.000 A 
ATOM      5  C   UNL     1      45.728   6.685  12.463  0.00  0.00    +0.000 A 
ATOM      6  C   UNL     1      46.518   6.092  13.447  0.00  0.00    +0.000 A 
ATOM      7  F   UNL     1      47.398   6.883  14.080  0.00  0.00    +0.000 F 
ATOM      8  C   UNL     1      46.416   4.731  13.768  0.00  0.00    +0.000 A 
ATOM      9  C   UNL     1      45.561   3.896  13.016  0.00  0.00    +0.000 A 
ATOM     10  C   UNL     1      44.800   4.468  11.979  0.00  0.00    +0.000 A 
ENDROOT
BRANCH   8  11
ATOM     11  C   UNL     1      47.190   4.123  14.887  0.00  0.00    +0.000 C 
ATOM     12  N   UNL     1      47.245   4.793  16.076  0.00  0.00    +0.000 N 
ATOM     13  O   UNL     1      47.747   3.039  14.754  0.00  0.00    +0.000 OA
ATOM     14  H   UNL     1      46.790   5.685  16.232  0.00  0.00    +0.000 HD
ATOM     15  H   UNL     1      47.745   4.365  16.844  0.00  0.00    +0.000 HD
ENDBRANCH   8  11
BRANCH   1  16
ATOM     16  C   UNL     1      43.920   2.671  10.274  0.00  0.00    +0.000 C 
BRANCH  16  20
ATOM     17  C   UNL     1      46.643   2.735   6.885  0.00  0.00    +0.000 A 
ATOM     18  C   UNL     1      45.988   3.906   7.299  0.00  0.00    +0.000 A 
ATOM     19  C   UNL     1      45.152   3.904   8.422  0.00  0.00    +0.000 A 
ATOM     20  C   UNL     1      44.953   2.729   9.159  0.00  0.00    +0.000 A 
ATOM     21  C   UNL     1      45.646   1.569   8.768  0.00  0.00    +0.000 A 
ATOM     22  C   UNL     1      46.471   1.571   7.641  0.00  0.00    +0.000 A 
BRANCH  17  23
ATOM     23  C   UNL     1      47.462   2.717   5.620  0.00  0.00    +0.000 C 
BRANCH  23  24
ATOM     24  N   UNL     1      48.560   1.761   5.692  0.00  0.00    +0.000 NA
ATOM     25  H   UNL     1      48.289   0.991   6.300  0.00  0.00    +0.000 HD
ATOM     26  H   UNL     1      49.356   2.214   6.139  0.00  0.00    +0.000 HD
ENDBRANCH  23  24
ENDBRANCH  17  23
ENDBRANCH  16  20
ENDBRANCH   1  16
TORSDOF 5
ENDMDL
MODEL 2
REMARK VINA RESULT:    -8.722      2.177      3.047
REMARK INTER + INTRA:         -10.936
REMARK INTER:                 -10.165
REMARK INTRA:                  -0.771
REMARK UNBOUND:                 0.080
REMARK  Name = 
REMARK  5 active torsions:
REMARK  status: ('A' for Active; 'I' for Inactive)
REMARK    1  A    between atoms: N_1  and  C_2
REMARK    2  A    between atoms: C_2  and  C_3
REMARK    3  A    between atoms: C_6  and  C_7
REMARK    4  A    between atoms: C_7  and  C_8
REMARK    5  A    between atoms: C_15  and  C_16
REMARK                            x       y       z     vdW  Elec       q    Type
REMARK                         _______ _______ _______ _____ _____    ______ ____
ROOT
ATOM      1  C   UNL     1      45.019   4.233  11.619  0.00  0.00    +0.000 A 
ATOM      2  N   UNL     1      44.816   3.269  12.534  0.00  0.00    +0.000 NA
ATOM      3  O   UNL     1      45.512   3.675  13.658  0.00  0.00    +0.000 OA
ATOM      4  C   UNL     1      46.179   4.823  13.384  0.00  0.00    +0.000 A 
ATOM      5  C   UNL     1      46.886   5.590  14.299  0.00  0.00    +0.000 A 
ATOM      6  C   UNL     1      47.516   6.724  13.787  0.00  0.00    +0.000 A 
ATOM      7  F   UNL     1      48.160   7.511  14.664  0.00  0.00    +0.000 F 
ATOM      8  C   UNL     1      47.483   7.047  12.424  0.00  0.00    +0.000 A 
ATOM      9  C   UNL     1      46.712   6.265  11.537  0.00  0.00    +0.000 A 
ATOM     10  C   UNL     1      46.020   5.149  12.048  0.00  0.00    +0.000 A 
ENDROOT
BRANCH   8  11
ATOM     11  C   UNL     1      48.240   8.204  11.867  0.00  0.00    +0.000 C 
ATOM     12  N   UNL     1      49.511   7.989  11.415  0.00  0.00    +0.000 N 
ATOM     13  O   UNL     1      47.731   9.317  11.796  0.00  0.00    +0.000 OA
ATOM     14  H   UNL     1      49.965   7.083  11.444  0.00  0.00    +0.000 HD
ATOM     15  H   UNL     1      50.013   8.768  11.009  0.00  0.00    +0.000 HD
ENDBRANCH   8  11
BRANCH   1  16
ATOM     16  C   UNL     1      44.099   4.342  10.446  0.00  0.00    +0.000 C 
BRANCH  16  20
ATOM     17  C   UNL     1      46.568   2.387   7.449  0.00  0.00    +0.000 A 
ATOM     18  C   UNL     1      45.807   1.630   8.353  0.00  0.00    +0.000 A 
ATOM     19  C   UNL     1      44.968   2.253   9.285  0.00  0.00    +0.000 A 
ATOM     20  C   UNL     1      44.871   3.650   9.333  0.00  0.00    +0.000 A 
ATOM     21  C   UNL     1      45.600   4.403   8.396  0.00  0.00    +0.000 A 
ATOM     22  C   UNL     1      46.445   3.779   7.474  0.00  0.00    +0.000 A 
BRANCH  17  23
ATOM     23  C   UNL     1      47.544   1.718   6.515  0.00  0.00    +0.000 C 
BRANCH  23  24
ATOM     24  N   UNL     1      48.714   2.548   6.257  0.00  0.00    +0.000 NA
ATOM     25  H   UNL     1      49.159   2.234   5.397  0.00  0.00    +0.000 HD
ATOM     26  H   UNL     1      49.390   2.396   7.004  0.00  0.00    +0.000 HD
ENDBRANCH  23  24
ENDBRANCH  17  23
ENDBRANCH  16  20
ENDBRANCH   1  16
TORSDOF 5
ENDMDL
MODEL 3
REMARK VINA RESULT:    -8.291      2.761      6.834
REMARK INTER + INTRA:         -10.392
REMARK INTER:                 -10.326
REMARK INTRA:                  -0.066
REMARK UNBOUND:                 0.080
REMARK  Name = 
REMARK  5 active torsions:
REMARK  status: ('A' for Active; 'I' for Inactive)
REMARK    1  A    between atoms: N_1  and  C_2
REMARK    2  A    between atoms: C_2  and  C_3
REMARK    3  A    between atoms: C_6  and  C_7
REMARK    4  A    between atoms: C_7  and  C_8
REMARK    5  A    between atoms: C_15  and  C_16
REMARK                            x       y       z     vdW  Elec       q    Type
REMARK                         _______ _______ _______ _____ _____    ______ ____
ROOT
ATOM      1  C   UNL     1      44.555   4.796  10.122  0.00  0.00    +0.000 A 
ATOM      2  N   UNL     1      43.595   4.198  10.848  0.00  0.00    +0.000 NA
ATOM      3  O   UNL     1      43.655   2.859  10.508  0.00  0.00    +0.000 OA
ATOM      4  C   UNL     1      44.585   2.683   9.538  0.00  0.00    +0.000 A 
ATOM      5  C   UNL     1      45.009   1.463   9.031  0.00  0.00    +0.000 A 
ATOM      6  C   UNL     1      45.963   1.521   8.016  0.00  0.00    +0.000 A 
ATOM      7  F   UNL     1      46.429   0.351   7.549  0.00  0.00    +0.000 F 
ATOM      8  C   UNL     1      46.431   2.737   7.499  0.00  0.00    +0.000 A 
ATOM      9  C   UNL     1      46.008   3.954   8.078  0.00  0.00    +0.000 A 
ATOM     10  C   UNL     1      45.090   3.910   9.145  0.00  0.00    +0.000 A 
ENDROOT
BRANCH   8  11
ATOM     11  C   UNL     1      47.376   2.796   6.347  0.00  0.00    +0.000 C 
ATOM     12  N   UNL     1      48.699   2.555   6.582  0.00  0.00    +0.000 N 
ATOM     13  O   UNL     1      46.975   3.033   5.213  0.00  0.00    +0.000 OA
ATOM     14  H   UNL     1      49.071   2.344   7.502  0.00  0.00    +0.000 HD
ATOM     15  H   UNL     1      49.335   2.566   5.796  0.00  0.00    +0.000 HD
ENDBRANCH   8  11
BRANCH   1  16
ATOM     16  C   UNL     1      45.054   6.145  10.527  0.00  0.00    +0.000 C 
BRANCH  16  20
ATOM     17  C   UNL     1      47.389   5.522  14.142  0.00  0.00    +0.000 A 
ATOM     18  C   UNL     1      46.256   4.737  13.877  0.00  0.00    +0.000 A 
ATOM     19  C   UNL     1      45.531   4.895  12.690  0.00  0.00    +0.000 A 
ATOM     20  C   UNL     1      45.925   5.845  11.738  0.00  0.00    +0.000 A 
ATOM     21  C   UNL     1      47.087   6.599  11.986  0.00  0.00    +0.000 A 
ATOM     22  C   UNL     1      47.802   6.445  13.176  0.00  0.00    +0.000 A 
BRANCH  17  23
ATOM     23  C   UNL     1      48.107   5.418  15.463  0.00  0.00    +0.000 C 
BRANCH  23  24
ATOM     24  N   UNL     1      47.253   4.871  16.510  0.00  0.00    +0.000 NA
ATOM     25  H   UNL     1      47.787   4.195  17.053  0.00  0.00    +0.000 HD
ATOM     26  H   UNL     1      46.493   4.353  16.071  0.00  0.00    +0.000 HD
ENDBRANCH  23  24
ENDBRANCH  17  23
ENDBRANCH  16  20
ENDBRANCH   1  16
TORSDOF 5
ENDMDL
MODEL 4
REMARK VINA RESULT:    -7.520      3.987      7.684
REMARK INTER + INTRA:          -9.418
REMARK INTER:                  -8.774
REMARK INTRA:                  -0.644
REMARK UNBOUND:                 0.080
REMARK  Name = 
REMARK  5 active torsions:
REMARK  status: ('A' for Active; 'I' for Inactive)
REMARK    1  A    between atoms: N_1  and  C_2
REMARK    2  A    between atoms: C_2  and  C_3
REMARK    3  A    between atoms: C_6  and  C_7
REMARK    4  A    between atoms: C_7  and  C_8
REMARK    5  A    between atoms: C_15  and  C_16
REMARK                            x       y       z     vdW  Elec       q    Type
REMARK                         _______ _______ _______ _____ _____    ______ ____
ROOT
ATOM      1  C   UNL     1      48.440   5.837  15.394  0.00  0.00    +0.000 A 
ATOM      2  N   UNL     1      49.464   6.585  14.947  0.00  0.00    +0.000 NA
ATOM      3  O   UNL     1      49.125   6.941  13.654  0.00  0.00    +0.000 OA
ATOM      4  C   UNL     1      47.953   6.348  13.317  0.00  0.00    +0.000 A 
ATOM      5  C   UNL     1      47.240   6.566  12.147  0.00  0.00    +0.000 A 
ATOM      6  C   UNL     1      46.067   5.826  12.001  0.00  0.00    +0.000 A 
ATOM      7  F   UNL     1      45.332   6.061  10.902  0.00  0.00    +0.000 F 
ATOM      8  C   UNL     1      45.656   4.881  12.950  0.00  0.00    +0.000 A 
ATOM      9  C   UNL     1      46.387   4.726  14.148  0.00  0.00    +0.000 A 
ATOM     10  C   UNL     1      47.542   5.509  14.339  0.00  0.00    +0.000 A 
ENDROOT
BRANCH   8  11
ATOM     11  C   UNL     1      44.456   4.021  12.742  0.00  0.00    +0.000 C 
ATOM     12  N   UNL     1      44.647   2.705  12.432  0.00  0.00    +0.000 N 
ATOM     13  O   UNL     1      43.324   4.476  12.865  0.00  0.00    +0.000 OA
ATOM     14  H   UNL     1      45.565   2.286  12.332  0.00  0.00    +0.000 HD
ATOM     15  H   UNL     1      43.833   2.116  12.320  0.00  0.00    +0.000 HD
ENDBRANCH   8  11
BRANCH   1  16
ATOM     16  C   UNL     1      48.266   5.628  16.863  0.00  0.00    +0.000 C 
BRANCH  16  20
ATOM     17  C   UNL     1      51.040   2.327  17.414  0.00  0.00    +0.000 A 
ATOM     18  C   UNL     1      51.419   3.641  17.731  0.00  0.00    +0.000 A 
ATOM     19  C   UNL     1      50.513   4.701  17.608  0.00  0.00    +0.000 A 
ATOM     20  C   UNL     1      49.204   4.470  17.164  0.00  0.00    +0.000 A 
ATOM     21  C   UNL     1      48.815   3.146  16.890  0.00  0.00    +0.000 A 
ATOM     22  C   UNL     1      49.724   2.092  17.005  0.00  0.00    +0.000 A 
BRANCH  17  23
ATOM     23  C   UNL     1      52.045   1.204  17.453  0.00  0.00    +0.000 C 
BRANCH  23  24
ATOM     24  N   UNL     1      51.568   0.067  18.231  0.00  0.00    +0.000 NA
ATOM     25  H   UNL     1      50.790  -0.367  17.737  0.00  0.00    +0.000 HD
ATOM     26  H   UNL     1      51.191   0.413  19.112  0.00  0.00    +0.000 HD
ENDBRANCH  23  24
ENDBRANCH  17  23
ENDBRANCH  16  20
ENDBRANCH   1  16
TORSDOF 5
ENDMDL
MODEL 5
REMARK VINA RESULT:    -7.509      1.853      3.289
REMARK INTER + INTRA:          -9.405
REMARK INTER:                  -8.854
REMARK INTRA:                  -0.552
REMARK UNBOUND:                 0.080
REMARK  Name = 
REMARK  5 active torsions:
REMARK  status: ('A' for Active; 'I' for Inactive)
REMARK    1  A    between atoms: N_1  and  C_2
REMARK    2  A    between atoms: C_2  and  C_3
REMARK    3  A    between atoms: C_6  and  C_7
REMARK    4  A    between atoms: C_7  and  C_8
REMARK    5  A    between atoms: C_15  and  C_16
REMARK                            x       y       z     vdW  Elec       q    Type
REMARK                         _______ _______ _______ _____ _____    ______ ____
ROOT
ATOM      1  C   UNL     1      45.170   3.794  11.409  0.00  0.00    +0.000 A 
ATOM      2  N   UNL     1      45.746   3.039  12.361  0.00  0.00    +0.000 NA
ATOM      3  O   UNL     1      46.125   3.924  13.355  0.00  0.00    +0.000 OA
ATOM      4  C   UNL     1      45.846   5.191  12.960  0.00  0.00    +0.000 A 
ATOM      5  C   UNL     1      45.973   6.331  13.739  0.00  0.00    +0.000 A 
ATOM      6  C   UNL     1      45.650   7.536  13.115  0.00  0.00    +0.000 A 
ATOM      7  F   UNL     1      45.713   8.647  13.867  0.00  0.00    +0.000 F 
ATOM      8  C   UNL     1      45.267   7.601  11.769  0.00  0.00    +0.000 A 
ATOM      9  C   UNL     1      45.104   6.411  11.027  0.00  0.00    +0.000 A 
ATOM     10  C   UNL     1      45.369   5.181  11.660  0.00  0.00    +0.000 A 
ENDROOT
BRANCH   8  11
ATOM     11  C   UNL     1      45.019   8.900  11.080  0.00  0.00    +0.000 C 
ATOM     12  N   UNL     1      43.855   9.050  10.382  0.00  0.00    +0.000 N 
ATOM     13  O   UNL     1      45.828   9.818  11.152  0.00  0.00    +0.000 OA
ATOM     14  H   UNL     1      43.154   8.321  10.306  0.00  0.00    +0.000 HD
ATOM     15  H   UNL     1      43.673   9.941   9.939  0.00  0.00    +0.000 HD
ENDBRANCH   8  11
BRANCH   1  16
ATOM     16  C   UNL     1      44.283   3.149  10.394  0.00  0.00    +0.000 C 
BRANCH  16  20
ATOM     17  C   UNL     1      46.623   2.633   6.766  0.00  0.00    +0.000 A 
ATOM     18  C   UNL     1      46.187   3.907   7.161  0.00  0.00    +0.000 A 
ATOM     19  C   UNL     1      45.480   4.088   8.355  0.00  0.00    +0.000 A 
ATOM     20  C   UNL     1      45.193   2.995   9.185  0.00  0.00    +0.000 A 
ATOM     21  C   UNL     1      45.671   1.727   8.808  0.00  0.00    +0.000 A 
ATOM     22  C   UNL     1      46.367   1.548   7.610  0.00  0.00    +0.000 A 
BRANCH  17  23
ATOM     23  C   UNL     1      47.296   2.428   5.433  0.00  0.00    +0.000 C 
BRANCH  23  24
ATOM     24  N   UNL     1      48.579   1.747   5.565  0.00  0.00    +0.000 NA
ATOM     25  H   UNL     1      49.289   2.283   5.071  0.00  0.00    +0.000 HD
ATOM     26  H   UNL     1      48.517   0.846   5.093  0.00  0.00    +0.000 HD
ENDBRANCH  23  24
ENDBRANCH  17  23
ENDBRANCH  16  20
ENDBRANCH   1  16
TORSDOF 5
ENDMDL
MODEL 6
REMARK VINA RESULT:    -6.910      3.229      6.908
REMARK INTER + INTRA:          -8.648
REMARK INTER:                  -8.055
REMARK INTRA:                  -0.593
REMARK UNBOUND:                 0.080
REMARK  Name = 
REMARK  5 active torsions:
REMARK  status: ('A' for Active; 'I' for Inactive)
REMARK    1  A    between atoms: N_1  and  C_2
REMARK    2  A    between atoms: C_2  and  C_3
REMARK    3  A    between atoms: C_6  and  C_7
REMARK    4  A    between atoms: C_7  and  C_8
REMARK    5  A    between atoms: C_15  and  C_16
REMARK                            x       y       z     vdW  Elec       q    Type
REMARK                         _______ _______ _______ _____ _____    ______ ____
ROOT
ATOM      1  C   UNL     1      47.074   7.398  12.447  0.00  0.00    +0.000 A 
ATOM      2  N   UNL     1      46.575   8.556  12.914  0.00  0.00    +0.000 NA
ATOM      3  O   UNL     1      45.212   8.487  12.691  0.00  0.00    +0.000 OA
ATOM      4  C   UNL     1      44.921   7.338  12.032  0.00  0.00    +0.000 A 
ATOM      5  C   UNL     1      43.649   6.866  11.743  0.00  0.00    +0.000 A 
ATOM      6  C   UNL     1      43.589   5.667  11.033  0.00  0.00    +0.000 A 
ATOM      7  F   UNL     1      42.368   5.164  10.791  0.00  0.00    +0.000 F 
ATOM      8  C   UNL     1      44.740   5.002  10.591  0.00  0.00    +0.000 A 
ATOM      9  C   UNL     1      46.015   5.493  10.949  0.00  0.00    +0.000 A 
ATOM     10  C   UNL     1      46.092   6.670  11.717  0.00  0.00    +0.000 A 
ENDROOT
BRANCH   8  11
ATOM     11  C   UNL     1      44.669   3.775   9.747  0.00  0.00    +0.000 C 
ATOM     12  N   UNL     1      44.799   2.560  10.359  0.00  0.00    +0.000 N 
ATOM     13  O   UNL     1      44.479   3.849   8.539  0.00  0.00    +0.000 OA
ATOM     14  H   UNL     1      44.946   2.453  11.356  0.00  0.00    +0.000 HD
ATOM     15  H   UNL     1      44.721   1.727   9.790  0.00  0.00    +0.000 HD
ENDBRANCH   8  11
BRANCH   1  16
ATOM     16  C   UNL     1      48.429   6.949  12.889  0.00  0.00    +0.000 C 
BRANCH  16  20
ATOM     17  C   UNL     1      47.863   4.726  16.582  0.00  0.00    +0.000 A 
ATOM     18  C   UNL     1      48.670   5.874  16.554  0.00  0.00    +0.000 A 
ATOM     19  C   UNL     1      48.813   6.625  15.382  0.00  0.00    +0.000 A 
ATOM     20  C   UNL     1      48.150   6.244  14.207  0.00  0.00    +0.000 A 
ATOM     21  C   UNL     1      47.307   5.119  14.250  0.00  0.00    +0.000 A 
ATOM     22  C   UNL     1      47.175   4.366  15.419  0.00  0.00    +0.000 A 
BRANCH  17  23
ATOM     23  C   UNL     1      47.790   3.865  17.817  0.00  0.00    +0.000 C 
BRANCH  23  24
ATOM     24  N   UNL     1      46.714   2.885  17.739  0.00  0.00    +0.000 NA
ATOM     25  H   UNL     1      47.119   1.958  17.621  0.00  0.00    +0.000 HD
ATOM     26  H   UNL     1      46.168   3.069  16.899  0.00  0.00    +0.000 HD
ENDBRANCH  23  24
ENDBRANCH  17  23
ENDBRANCH  16  20
ENDBRANCH   1  16
TORSDOF 5
ENDMDL
MODEL 7
REMARK VINA RESULT:    -6.736      3.667      8.229
REMARK INTER + INTRA:          -8.428
REMARK INTER:                  -8.328
REMARK INTRA:                  -0.100
REMARK UNBOUND:                 0.080
REMARK  Name = 
REMARK  5 active torsions:
REMARK  status: ('A' for Active; 'I' for Inactive)
REMARK    1  A    between atoms: N_1  and  C_2
REMARK    2  A    between atoms: C_2  and  C_3
REMARK    3  A    between atoms: C_6  and  C_7
REMARK    4  A    between atoms: C_7  and  C_8
REMARK    5  A    between atoms: C_15  and  C_16
REMARK                            x       y       z     vdW  Elec       q    Type
REMARK                         _______ _______ _______ _____ _____    ______ ____
ROOT
ATOM      1  C   UNL     1      47.091   4.787  14.325  0.00  0.00    +0.000 A 
ATOM      2  N   UNL     1      47.592   3.549  14.477  0.00  0.00    +0.000 NA
ATOM      3  O   UNL     1      46.898   2.757  13.580  0.00  0.00    +0.000 OA
ATOM      4  C   UNL     1      45.947   3.503  12.964  0.00  0.00    +0.000 A 
ATOM      5  C   UNL     1      45.137   3.084  11.919  0.00  0.00    +0.000 A 
ATOM      6  C   UNL     1      44.210   4.016  11.454  0.00  0.00    +0.000 A 
ATOM      7  F   UNL     1      43.453   3.652  10.406  0.00  0.00    +0.000 F 
ATOM      8  C   UNL     1      44.065   5.281  12.038  0.00  0.00    +0.000 A 
ATOM      9  C   UNL     1      44.943   5.683  13.068  0.00  0.00    +0.000 A 
ATOM     10  C   UNL     1      45.926   4.775  13.509  0.00  0.00    +0.000 A 
ENDROOT
BRANCH   8  11
ATOM     11  C   UNL     1      43.006   6.237  11.603  0.00  0.00    +0.000 C 
ATOM     12  N   UNL     1      43.392   7.430  11.062  0.00  0.00    +0.000 N 
ATOM     13  O   UNL     1      41.818   5.953  11.708  0.00  0.00    +0.000 OA
ATOM     14  H   UNL     1      44.363   7.699  10.947  0.00  0.00    +0.000 HD
ATOM     15  H   UNL     1      42.674   8.065  10.740  0.00  0.00    +0.000 HD
ENDBRANCH   8  11
BRANCH   1  16
ATOM     16  C   UNL     1      47.870   5.963  14.820  0.00  0.00    +0.000 C 
BRANCH  16  20
ATOM     17  C   UNL     1      49.050   5.013  18.895  0.00  0.00    +0.000 A 
ATOM     18  C   UNL     1      47.784   4.647  18.413  0.00  0.00    +0.000 A 
ATOM     19  C   UNL     1      47.418   4.901  17.086  0.00  0.00    +0.000 A 
ATOM     20  C   UNL     1      48.313   5.528  16.209  0.00  0.00    +0.000 A 
ATOM     21  C   UNL     1      49.597   5.853  16.682  0.00  0.00    +0.000 A 
ATOM     22  C   UNL     1      49.955   5.607  18.010  0.00  0.00    +0.000 A 
BRANCH  17  23
ATOM     23  C   UNL     1      49.405   4.827  20.348  0.00  0.00    +0.000 C 
BRANCH  23  24
ATOM     24  N   UNL     1      48.403   4.044  21.061  0.00  0.00    +0.000 NA
ATOM     25  H   UNL     1      48.864   3.502  21.789  0.00  0.00    +0.000 HD
ATOM     26  H   UNL     1      47.997   3.370  20.414  0.00  0.00    +0.000 HD
ENDBRANCH  23  24
ENDBRANCH  17  23
ENDBRANCH  16  20
ENDBRANCH   1  16
TORSDOF 5
ENDMDL
MODEL 8
REMARK VINA RESULT:    -6.686      2.797      4.133
REMARK INTER + INTRA:          -8.366
REMARK INTER:                  -7.692
REMARK INTRA:                  -0.673
REMARK UNBOUND:                 0.080
REMARK  Name = 
REMARK  5 active torsions:
REMARK  status: ('A' for Active; 'I' for Inactive)
REMARK    1  A    between atoms: N_1  and  C_2
REMARK    2  A    between atoms: C_2  and  C_3
REMARK    3  A    between atoms: C_6  and  C_7
REMARK    4  A    between atoms: C_7  and  C_8
REMARK    5  A    between atoms: C_15  and  C_16
REMARK                            x       y       z     vdW  Elec       q    Type
REMARK                         _______ _______ _______ _____ _____    ______ ____
ROOT
ATOM      1  C   UNL     1      46.117   5.110  13.520  0.00  0.00    +0.000 A 
ATOM      2  N   UNL     1      46.473   4.075  14.301  0.00  0.00    +0.000 NA
ATOM      3  O   UNL     1      47.518   4.540  15.078  0.00  0.00    +0.000 OA
ATOM      4  C   UNL     1      47.824   5.808  14.707  0.00  0.00    +0.000 A 
ATOM      5  C   UNL     1      48.734   6.642  15.340  0.00  0.00    +0.000 A 
ATOM      6  C   UNL     1      48.907   7.903  14.769  0.00  0.00    +0.000 A 
ATOM      7  F   UNL     1      49.742   8.747  15.397  0.00  0.00    +0.000 F 
ATOM      8  C   UNL     1      48.242   8.290  13.599  0.00  0.00    +0.000 A 
ATOM      9  C   UNL     1      47.288   7.427  13.015  0.00  0.00    +0.000 A 
ATOM     10  C   UNL     1      47.058   6.174  13.614  0.00  0.00    +0.000 A 
ENDROOT
BRANCH   8  11
ATOM     11  C   UNL     1      48.505   9.600  12.937  0.00  0.00    +0.000 C 
ATOM     12  N   UNL     1      47.521  10.547  12.962  0.00  0.00    +0.000 N 
ATOM     13  O   UNL     1      49.582   9.832  12.400  0.00  0.00    +0.000 OA
ATOM     14  H   UNL     1      46.621  10.401  13.405  0.00  0.00    +0.000 HD
ATOM     15  H   UNL     1      47.710  11.446  12.539  0.00  0.00    +0.000 HD
ENDBRANCH   8  11
BRANCH   1  16
ATOM     16  C   UNL     1      44.776   5.108  12.860  0.00  0.00    +0.000 C 
BRANCH  16  20
ATOM     17  C   UNL     1      45.341   3.747   8.769  0.00  0.00    +0.000 A 
ATOM     18  C   UNL     1      45.662   5.064   9.136  0.00  0.00    +0.000 A 
ATOM     19  C   UNL     1      45.534   5.493  10.463  0.00  0.00    +0.000 A 
ATOM     20  C   UNL     1      45.082   4.612  11.455  0.00  0.00    +0.000 A 
ATOM     21  C   UNL     1      44.804   3.282  11.092  0.00  0.00    +0.000 A 
ATOM     22  C   UNL     1      44.923   2.860   9.765  0.00  0.00    +0.000 A 
BRANCH  17  23
ATOM     23  C   UNL     1      45.385   3.317   7.325  0.00  0.00    +0.000 C 
BRANCH  23  24
ATOM     24  N   UNL     1      46.617   2.607   7.002  0.00  0.00    +0.000 NA
ATOM     25  H   UNL     1      46.704   2.542   5.990  0.00  0.00    +0.000 HD
ATOM     26  H   UNL     1      46.540   1.652   7.347  0.00  0.00    +0.000 HD
ENDBRANCH  23  24
ENDBRANCH  17  23
ENDBRANCH  16  20
ENDBRANCH   1  16
TORSDOF 5
ENDMDL
MODEL 9
REMARK VINA RESULT:    -6.292      4.320      7.667
REMARK INTER + INTRA:          -7.868
REMARK INTER:                  -7.079
REMARK INTRA:                  -0.789
REMARK UNBOUND:                 0.080
REMARK  Name = 
REMARK  5 active torsions:
REMARK  status: ('A' for Active; 'I' for Inactive)
REMARK    1  A    between atoms: N_1  and  C_2
REMARK    2  A    between atoms: C_2  and  C_3
REMARK    3  A    between atoms: C_6  and  C_7
REMARK    4  A    between atoms: C_7  and  C_8
REMARK    5  A    between atoms: C_15  and  C_16
REMARK                            x       y       z     vdW  Elec       q    Type
REMARK                         _______ _______ _______ _____ _____    ______ ____
ROOT
ATOM      1  C   UNL     1      48.364   8.357  12.472  0.00  0.00    +0.000 A 
ATOM      2  N   UNL     1      47.720   9.435  11.991  0.00  0.00    +0.000 NA
ATOM      3  O   UNL     1      46.381   9.091  11.979  0.00  0.00    +0.000 OA
ATOM      4  C   UNL     1      46.244   7.801  12.374  0.00  0.00    +0.000 A 
ATOM      5  C   UNL     1      45.044   7.144  12.601  0.00  0.00    +0.000 A 
ATOM      6  C   UNL     1      45.143   5.805  12.981  0.00  0.00    +0.000 A 
ATOM      7  F   UNL     1      43.996   5.165  13.260  0.00  0.00    +0.000 F 
ATOM      8  C   UNL     1      46.375   5.146  13.079  0.00  0.00    +0.000 A 
ATOM      9  C   UNL     1      47.574   5.866  12.886  0.00  0.00    +0.000 A 
ATOM     10  C   UNL     1      47.493   7.234  12.560  0.00  0.00    +0.000 A 
ENDROOT
BRANCH   8  11
ATOM     11  C   UNL     1      46.470   3.690  13.388  0.00  0.00    +0.000 C 
ATOM     12  N   UNL     1      45.638   2.832  12.728  0.00  0.00    +0.000 N 
ATOM     13  O   UNL     1      47.288   3.268  14.198  0.00  0.00    +0.000 OA
ATOM     14  H   UNL     1      44.955   3.137  12.042  0.00  0.00    +0.000 HD
ATOM     15  H   UNL     1      45.723   1.842  12.915  0.00  0.00    +0.000 HD
ENDBRANCH   8  11
BRANCH   1  16
ATOM     16  C   UNL     1      49.750   8.505  13.009  0.00  0.00    +0.000 C 
BRANCH  16  20
ATOM     17  C   UNL     1      48.978   7.640  17.199  0.00  0.00    +0.000 A 
ATOM     18  C   UNL     1      49.850   6.834  16.451  0.00  0.00    +0.000 A 
ATOM     19  C   UNL     1      50.145   7.138  15.117  0.00  0.00    +0.000 A 
ATOM     20  C   UNL     1      49.574   8.259  14.500  0.00  0.00    +0.000 A 
ATOM     21  C   UNL     1      48.736   9.090  15.265  0.00  0.00    +0.000 A 
ATOM     22  C   UNL     1      48.435   8.777  16.593  0.00  0.00    +0.000 A 
BRANCH  17  23
ATOM     23  C   UNL     1      48.585   7.255  18.602  0.00  0.00    +0.000 C 
BRANCH  23  24
ATOM     24  N   UNL     1      47.271   7.772  18.966  0.00  0.00    +0.000 NA
ATOM     25  H   UNL     1      47.266   7.991  19.960  0.00  0.00    +0.000 HD
ATOM     26  H   UNL     1      46.583   7.032  18.831  0.00  0.00    +0.000 HD
ENDBRANCH  23  24
ENDBRANCH  17  23
ENDBRANCH  16  20
ENDBRANCH   1  16
TORSDOF 5
ENDMDL
