MODEL 1
REMARK VINA RESULT:    -8.271      0.000      0.000
REMARK INTER + INTRA:         -11.623
REMARK INTER:                 -10.689
REMARK INTRA:                  -0.934
REMARK UNBOUND:                -0.934
REMARK  Name = 
REMARK  5 active torsions:
REMARK  status: ('A' for Active; 'I' for Inactive)
REMARK    1  A    between atoms: C_2  and  C_5
REMARK    2  A    between atoms: C_7  and  C_8
REMARK    3  A    between atoms: C_12  and  C_13
REMARK    4  A    between atoms: C_13  and  N_14
REMARK    5  A    between atoms: C_19  and  C_20
REMARK                            x       y       z     vdW  Elec       q    Type
REMARK                         _______ _______ _______ _____ _____    ______ ____
ROOT
ATOM      1  C   UNL     1      45.714   6.142  12.381  0.00  0.00    +0.000 A 
ATOM      2  C   UNL     1      45.104   7.409  12.396  0.00  0.00    +0.000 A 
ATOM      3  C   UNL     1      45.784   8.545  12.842  0.00  0.00    +0.000 A 
ATOM      4  C   UNL     1      47.085   8.440  13.325  0.00  0.00    +0.000 A 
ATOM      5  C   UNL     1      47.718   7.194  13.360  0.00  0.00    +0.000 A 
ATOM      6  C   UNL     1      47.043   6.072  12.847  0.00  0.00    +0.000 A 
ENDROOT
BRANCH   1   9
ATOM      7  C   UNL     1      44.592   3.172  10.279  0.00  0.00    +0.000 A 
ATOM      8  C   UNL     1      45.302   4.300  10.707  0.00  0.00    +0.000 A 
ATOM      9  C   UNL     1      44.989   4.929  11.924  0.00  0.00    +0.000 A 
ATOM     10  C   UNL     1      43.962   4.351  12.681  0.00  0.00    +0.000 A 
ATOM     11  C   UNL     1      43.318   3.217  12.212  0.00  0.00    +0.000 A 
ATOM     12  N   UNL     1      43.603   2.623  11.036  0.00  0.00    +0.000 NA
BRANCH   7  14
ATOM     13  F   UNL     1      46.250   2.563   8.629  0.00  0.00    +0.000 F 
ATOM     14  C   UNL     1      44.913   2.548   8.926  0.00  0.00    +0.000 C 
ATOM     15  F   UNL     1      44.309   3.190   7.885  0.00  0.00    +0.000 F 
ATOM     16  F   UNL     1      44.539   1.240   8.833  0.00  0.00    +0.000 F 
ENDBRANCH   7  14
ENDBRANCH   1   9
BRANCH   5  17
ATOM     17  C   UNL     1      49.079   7.037  13.997  0.00  0.00    +0.000 C 
BRANCH  17  18
ATOM     18  N   UNL     1      49.093   7.598  15.341  0.00  0.00    +0.000 N 
ATOM     19  C   UNL     1      48.800   6.640  16.331  0.00  0.00    +0.000 A 
ATOM     20  C   UNL     1      48.750   7.008  17.676  0.00  0.00    +0.000 A 
ATOM     21  N   UNL     1      48.493   6.139  18.685  0.00  0.00    +0.000 NA
ATOM     22  C   UNL     1      48.296   4.855  18.310  0.00  0.00    +0.000 A 
ATOM     23  C   UNL     1      48.349   4.450  16.985  0.00  0.00    +0.000 A 
ATOM     24  N   UNL     1      48.607   5.349  15.987  0.00  0.00    +0.000 NA
ATOM     25  H   UNL     1      48.460   8.389  15.427  0.00  0.00    +0.000 HD
BRANCH  23  26
ATOM     26  C   UNL     1      48.104   3.001  16.633  0.00  0.00    +0.000 C 
ATOM     27  F   UNL     1      47.197   2.389  17.451  0.00  0.00    +0.000 F 
ATOM     28  F   UNL     1      47.615   2.839  15.369  0.00  0.00    +0.000 F 
ATOM     29  F   UNL     1      49.229   2.234  16.700  0.00  0.00    +0.000 F 
ENDBRANCH  23  26
ENDBRANCH  17  18
ENDBRANCH   5  17
TORSDOF 5
ENDMDL
MODEL 2
REMARK VINA RESULT:    -7.728      1.391      7.462
REMARK INTER + INTRA:         -10.920
REMARK INTER:                  -9.990
REMARK INTRA:                  -0.931
REMARK UNBOUND:                -0.934
REMARK  Name = 
REMARK  5 active torsions:
REMARK  status: ('A' for Active; 'I' for Inactive)
REMARK    1  A    between atoms: C_2  and  C_5
REMARK    2  A    between atoms: C_7  and  C_8
REMARK    3  A    between atoms: C_12  and  C_13
REMARK    4  A    between atoms: C_13  and  N_14
REMARK    5  A    between atoms: C_19  and  C_20
REMARK                            x       y       z     vdW  Elec       q    Type
REMARK                         _______ _______ _______ _____ _____    ______ ____
ROOT
ATOM      1  C   UNL     1      48.464   6.851  14.307  0.00  0.00    +0.000 A 
ATOM      2  C   UNL     1      49.594   7.289  13.594  0.00  0.00    +0.000 A 
ATOM      3  C   UNL     1      49.498   7.747  12.277  0.00  0.00    +0.000 A 
ATOM      4  C   UNL     1      48.271   7.740  11.620  0.00  0.00    +0.000 A 
ATOM      5  C   UNL     1      47.128   7.280  12.280  0.00  0.00    +0.000 A 
ATOM      6  C   UNL     1      47.231   6.885  13.625  0.00  0.00    +0.000 A 
ENDROOT
BRANCH   1   9
ATOM      7  C   UNL     1      48.364   4.555  17.344  0.00  0.00    +0.000 A 
ATOM      8  C   UNL     1      48.288   5.008  16.021  0.00  0.00    +0.000 A 
ATOM      9  C   UNL     1      48.565   6.348  15.701  0.00  0.00    +0.000 A 
ATOM     10  C   UNL     1      48.943   7.179  16.763  0.00  0.00    +0.000 A 
ATOM     11  C   UNL     1      49.026   6.660  18.046  0.00  0.00    +0.000 A 
ATOM     12  N   UNL     1      48.741   5.380  18.358  0.00  0.00    +0.000 NA
BRANCH   7  14
ATOM     13  F   UNL     1      46.662   2.849  17.523  0.00  0.00    +0.000 F 
ATOM     14  C   UNL     1      47.997   3.112  17.668  0.00  0.00    +0.000 C 
ATOM     15  F   UNL     1      48.292   2.762  18.953  0.00  0.00    +0.000 F 
ATOM     16  F   UNL     1      48.631   2.203  16.873  0.00  0.00    +0.000 F 
ENDBRANCH   7  14
ENDBRANCH   1   9
BRANCH   5  17
ATOM     17  C   UNL     1      45.814   7.146  11.546  0.00  0.00    +0.000 C 
BRANCH  17  18
ATOM     18  N   UNL     1      44.920   6.230  12.244  0.00  0.00    +0.000 N 
ATOM     19  C   UNL     1      44.645   5.069  11.498  0.00  0.00    +0.000 A 
ATOM     20  C   UNL     1      43.789   4.090  12.006  0.00  0.00    +0.000 A 
ATOM     21  N   UNL     1      43.491   2.938  11.354  0.00  0.00    +0.000 NA
ATOM     22  C   UNL     1      44.097   2.775  10.157  0.00  0.00    +0.000 A 
ATOM     23  C   UNL     1      44.962   3.719   9.625  0.00  0.00    +0.000 A 
ATOM     24  N   UNL     1      45.242   4.874  10.303  0.00  0.00    +0.000 NA
ATOM     25  H   UNL     1      44.051   6.683  12.513  0.00  0.00    +0.000 HD
BRANCH  23  26
ATOM     26  C   UNL     1      45.594   3.481   8.273  0.00  0.00    +0.000 C 
ATOM     27  F   UNL     1      46.290   2.308   8.198  0.00  0.00    +0.000 F 
ATOM     28  F   UNL     1      44.679   3.422   7.264  0.00  0.00    +0.000 F 
ATOM     29  F   UNL     1      46.482   4.453   7.917  0.00  0.00    +0.000 F 
ENDBRANCH  23  26
ENDBRANCH  17  18
ENDBRANCH   5  17
TORSDOF 5
ENDMDL
MODEL 3
REMARK VINA RESULT:    -7.513      2.243      8.000
REMARK INTER + INTRA:         -10.643
REMARK INTER:                  -9.793
REMARK INTRA:                  -0.849
REMARK UNBOUND:                -0.934
REMARK  Name = 
REMARK  5 active torsions:
REMARK  status: ('A' for Active; 'I' for Inactive)
REMARK    1  A    between atoms: C_2  and  C_5
REMARK    2  A    between atoms: C_7  and  C_8
REMARK    3  A    between atoms: C_12  and  C_13
REMARK    4  A    between atoms: C_13  and  N_14
REMARK    5  A    between atoms: C_19  and  C_20
REMARK                            x       y       z     vdW  Elec       q    Type
REMARK                         _______ _______ _______ _____ _____    ______ ____
ROOT
ATOM      1  C   UNL     1      47.843   6.208  13.975  0.00  0.00    +0.000 A 
ATOM      2  C   UNL     1      48.977   6.814  13.406  0.00  0.00    +0.000 A 
ATOM      3  C   UNL     1      48.921   7.453  12.164  0.00  0.00    +0.000 A 
ATOM      4  C   UNL     1      47.736   7.469  11.435  0.00  0.00    +0.000 A 
ATOM      5  C   UNL     1      46.593   6.850  11.949  0.00  0.00    +0.000 A 
ATOM      6  C   UNL     1      46.649   6.267  13.228  0.00  0.00    +0.000 A 
ENDROOT
BRANCH   1   9
ATOM      7  C   UNL     1      48.752   5.322  17.565  0.00  0.00    +0.000 A 
ATOM      8  C   UNL     1      48.688   6.003  16.343  0.00  0.00    +0.000 A 
ATOM      9  C   UNL     1      47.902   5.513  15.286  0.00  0.00    +0.000 A 
ATOM     10  C   UNL     1      47.179   4.340  15.536  0.00  0.00    +0.000 A 
ATOM     11  C   UNL     1      47.266   3.731  16.779  0.00  0.00    +0.000 A 
ATOM     12  N   UNL     1      48.034   4.188  17.787  0.00  0.00    +0.000 NA
BRANCH   7  14
ATOM     13  F   UNL     1      49.412   7.150  19.003  0.00  0.00    +0.000 F 
ATOM     14  C   UNL     1      49.661   5.845  18.671  0.00  0.00    +0.000 C 
ATOM     15  F   UNL     1      50.984   5.808  18.339  0.00  0.00    +0.000 F 
ATOM     16  F   UNL     1      49.544   5.149  19.838  0.00  0.00    +0.000 F 
ENDBRANCH   7  14
ENDBRANCH   1   9
BRANCH   5  17
ATOM     17  C   UNL     1      45.333   6.745  11.121  0.00  0.00    +0.000 C 
BRANCH  17  18
ATOM     18  N   UNL     1      44.491   5.652  11.590  0.00  0.00    +0.000 N 
ATOM     19  C   UNL     1      44.536   4.531  10.739  0.00  0.00    +0.000 A 
ATOM     20  C   UNL     1      43.773   3.397  11.025  0.00  0.00    +0.000 A 
ATOM     21  N   UNL     1      43.778   2.275  10.263  0.00  0.00    +0.000 NA
ATOM     22  C   UNL     1      44.596   2.307   9.187  0.00  0.00    +0.000 A 
ATOM     23  C   UNL     1      45.378   3.410   8.878  0.00  0.00    +0.000 A 
ATOM     24  N   UNL     1      45.350   4.531   9.663  0.00  0.00    +0.000 NA
ATOM     25  H   UNL     1      43.528   5.947  11.724  0.00  0.00    +0.000 HD
BRANCH  23  26
ATOM     26  C   UNL     1      46.259   3.385   7.651  0.00  0.00    +0.000 C 
ATOM     27  F   UNL     1      45.560   3.291   6.481  0.00  0.00    +0.000 F 
ATOM     28  F   UNL     1      47.022   4.509   7.525  0.00  0.00    +0.000 F 
ATOM     29  F   UNL     1      47.131   2.337   7.638  0.00  0.00    +0.000 F 
ENDBRANCH  23  26
ENDBRANCH  17  18
ENDBRANCH   5  17
TORSDOF 5
ENDMDL
MODEL 4
REMARK VINA RESULT:    -7.242      1.640      2.622
REMARK INTER + INTRA:         -10.293
REMARK INTER:                  -9.220
REMARK INTRA:                  -1.073
REMARK UNBOUND:                -0.934
REMARK  Name = 
REMARK  5 active torsions:
REMARK  status: ('A' for Active; 'I' for Inactive)
REMARK    1  A    between atoms: C_2  and  C_5
REMARK    2  A    between atoms: C_7  and  C_8
REMARK    3  A    between atoms: C_12  and  C_13
REMARK    4  A    between atoms: C_13  and  N_14
REMARK    5  A    between atoms: C_19  and  C_20
REMARK                            x       y       z     vdW  Elec       q    Type
REMARK                         _______ _______ _______ _____ _____    ______ ____
ROOT
ATOM      1  C   UNL     1      47.816   7.510  12.497  0.00  0.00    +0.000 A 
ATOM      2  C   UNL     1      48.308   8.635  11.811  0.00  0.00    +0.000 A 
ATOM      3  C   UNL     1      49.523   9.233  12.161  0.00  0.00    +0.000 A 
ATOM      4  C   UNL     1      50.261   8.746  13.235  0.00  0.00    +0.000 A 
ATOM      5  C   UNL     1      49.792   7.651  13.965  0.00  0.00    +0.000 A 
ATOM      6  C   UNL     1      48.602   7.021  13.560  0.00  0.00    +0.000 A 
ENDROOT
BRANCH   1   9
ATOM      7  C   UNL     1      45.110   4.913  11.842  0.00  0.00    +0.000 A 
ATOM      8  C   UNL     1      46.332   5.491  12.205  0.00  0.00    +0.000 A 
ATOM      9  C   UNL     1      46.518   6.882  12.140  0.00  0.00    +0.000 A 
ATOM     10  C   UNL     1      45.417   7.642  11.724  0.00  0.00    +0.000 A 
ATOM     11  C   UNL     1      44.227   7.007  11.406  0.00  0.00    +0.000 A 
ATOM     12  N   UNL     1      44.051   5.672  11.449  0.00  0.00    +0.000 NA
BRANCH   7  14
ATOM     13  F   UNL     1      43.718   2.984  12.274  0.00  0.00    +0.000 F 
ATOM     14  C   UNL     1      44.958   3.396  11.864  0.00  0.00    +0.000 C 
ATOM     15  F   UNL     1      45.835   2.783  12.709  0.00  0.00    +0.000 F 
ATOM     16  F   UNL     1      45.142   2.818  10.643  0.00  0.00    +0.000 F 
ENDBRANCH   7  14
ENDBRANCH   1   9
BRANCH   5  17
ATOM     17  C   UNL     1      50.512   7.187  15.210  0.00  0.00    +0.000 C 
BRANCH  17  18
ATOM     18  N   UNL     1      49.875   7.717  16.408  0.00  0.00    +0.000 N 
ATOM     19  C   UNL     1      49.059   6.769  17.053  0.00  0.00    +0.000 A 
ATOM     20  C   UNL     1      48.355   7.113  18.208  0.00  0.00    +0.000 A 
ATOM     21  N   UNL     1      47.564   6.249  18.893  0.00  0.00    +0.000 NA
ATOM     22  C   UNL     1      47.504   4.995  18.393  0.00  0.00    +0.000 A 
ATOM     23  C   UNL     1      48.198   4.613  17.255  0.00  0.00    +0.000 A 
ATOM     24  N   UNL     1      48.986   5.507  16.581  0.00  0.00    +0.000 NA
ATOM     25  H   UNL     1      49.339   8.558  16.210  0.00  0.00    +0.000 HD
BRANCH  23  26
ATOM     26  C   UNL     1      48.074   3.198  16.739  0.00  0.00    +0.000 C 
ATOM     27  F   UNL     1      49.255   2.511  16.748  0.00  0.00    +0.000 F 
ATOM     28  F   UNL     1      47.211   2.440  17.475  0.00  0.00    +0.000 F 
ATOM     29  F   UNL     1      47.626   3.133  15.453  0.00  0.00    +0.000 F 
ENDBRANCH  23  26
ENDBRANCH  17  18
ENDBRANCH   5  17
TORSDOF 5
ENDMDL
MODEL 5
REMARK VINA RESULT:    -7.062      2.220      2.731
REMARK INTER + INTRA:         -10.061
REMARK INTER:                  -9.349
REMARK INTRA:                  -0.711
REMARK UNBOUND:                -0.934
REMARK  Name = 
REMARK  5 active torsions:
REMARK  status: ('A' for Active; 'I' for Inactive)
REMARK    1  A    between atoms: C_2  and  C_5
REMARK    2  A    between atoms: C_7  and  C_8
REMARK    3  A    between atoms: C_12  and  C_13
REMARK    4  A    between atoms: C_13  and  N_14
REMARK    5  A    between atoms: C_19  and  C_20
REMARK                            x       y       z     vdW  Elec       q    Type
REMARK                         _______ _______ _______ _____ _____    ______ ____
ROOT
ATOM      1  C   UNL     1      45.867   6.273  12.285  0.00  0.00    +0.000 A 
ATOM      2  C   UNL     1      45.650   7.589  11.842  0.00  0.00    +0.000 A 
ATOM      3  C   UNL     1      46.417   8.658  12.316  0.00  0.00    +0.000 A 
ATOM      4  C   UNL     1      47.398   8.445  13.279  0.00  0.00    +0.000 A 
ATOM      5  C   UNL     1      47.623   7.157  13.773  0.00  0.00    +0.000 A 
ATOM      6  C   UNL     1      46.888   6.084  13.238  0.00  0.00    +0.000 A 
ENDROOT
BRANCH   1   9
ATOM      7  C   UNL     1      44.558   3.406  10.149  0.00  0.00    +0.000 A 
ATOM      8  C   UNL     1      45.358   4.458  10.608  0.00  0.00    +0.000 A 
ATOM      9  C   UNL     1      45.043   5.137  11.797  0.00  0.00    +0.000 A 
ATOM     10  C   UNL     1      43.916   4.685  12.495  0.00  0.00    +0.000 A 
ATOM     11  C   UNL     1      43.183   3.619  11.999  0.00  0.00    +0.000 A 
ATOM     12  N   UNL     1      43.472   2.979  10.849  0.00  0.00    +0.000 NA
BRANCH   7  14
ATOM     13  F   UNL     1      44.241   3.287   7.755  0.00  0.00    +0.000 F 
ATOM     14  C   UNL     1      44.890   2.728   8.824  0.00  0.00    +0.000 C 
ATOM     15  F   UNL     1      44.548   1.408   8.799  0.00  0.00    +0.000 F 
ATOM     16  F   UNL     1      46.215   2.783   8.508  0.00  0.00    +0.000 F 
ENDBRANCH   7  14
ENDBRANCH   1   9
BRANCH   5  17
ATOM     17  C   UNL     1      48.593   6.923  14.908  0.00  0.00    +0.000 C 
BRANCH  17  18
ATOM     18  N   UNL     1      48.040   5.989  15.880  0.00  0.00    +0.000 N 
ATOM     19  C   UNL     1      49.032   5.387  16.678  0.00  0.00    +0.000 A 
ATOM     20  C   UNL     1      48.682   4.450  17.651  0.00  0.00    +0.000 A 
ATOM     21  N   UNL     1      49.579   3.842  18.468  0.00  0.00    +0.000 NA
ATOM     22  C   UNL     1      50.867   4.215  18.296  0.00  0.00    +0.000 A 
ATOM     23  C   UNL     1      51.251   5.152  17.348  0.00  0.00    +0.000 A 
ATOM     24  N   UNL     1      50.325   5.747  16.535  0.00  0.00    +0.000 NA
ATOM     25  H   UNL     1      47.472   5.273  15.436  0.00  0.00    +0.000 HD
BRANCH  23  26
ATOM     26  C   UNL     1      52.711   5.513  17.198  0.00  0.00    +0.000 C 
ATOM     27  F   UNL     1      52.999   6.128  16.012  0.00  0.00    +0.000 F 
ATOM     28  F   UNL     1      53.146   6.371  18.164  0.00  0.00    +0.000 F 
ATOM     29  F   UNL     1      53.540   4.432  17.256  0.00  0.00    +0.000 F 
ENDBRANCH  23  26
ENDBRANCH  17  18
ENDBRANCH   5  17
TORSDOF 5
ENDMDL
MODEL 6
REMARK VINA RESULT:    -6.961      4.179      7.546
REMARK INTER + INTRA:          -9.930
REMARK INTER:                  -9.151
REMARK INTRA:                  -0.779
REMARK UNBOUND:                -0.934
REMARK  Name = 
REMARK  5 active torsions:
REMARK  status: ('A' for Active; 'I' for Inactive)
REMARK    1  A    between atoms: C_2  and  C_5
REMARK    2  A    between atoms: C_7  and  C_8
REMARK    3  A    between atoms: C_12  and  C_13
REMARK    4  A    between atoms: C_13  and  N_14
REMARK    5  A    between atoms: C_19  and  C_20
REMARK                            x       y       z     vdW  Elec       q    Type
REMARK                         _______ _______ _______ _____ _____    ______ ____
ROOT
ATOM      1  C   UNL     1      49.684   8.426  11.803  0.00  0.00    +0.000 A 
ATOM      2  C   UNL     1      48.876   9.553  12.040  0.00  0.00    +0.000 A 
ATOM      3  C   UNL     1      47.660   9.453  12.722  0.00  0.00    +0.000 A 
ATOM      4  C   UNL     1      47.196   8.213  13.151  0.00  0.00    +0.000 A 
ATOM      5  C   UNL     1      47.951   7.063  12.906  0.00  0.00    +0.000 A 
ATOM      6  C   UNL     1      49.202   7.189  12.277  0.00  0.00    +0.000 A 
ENDROOT
BRANCH   1   9
ATOM      7  C   UNL     1      52.809   7.500   9.835  0.00  0.00    +0.000 A 
ATOM      8  C   UNL     1      51.586   7.393  10.508  0.00  0.00    +0.000 A 
ATOM      9  C   UNL     1      50.968   8.526  11.064  0.00  0.00    +0.000 A 
ATOM     10  C   UNL     1      51.625   9.749  10.882  0.00  0.00    +0.000 A 
ATOM     11  C   UNL     1      52.821   9.789  10.181  0.00  0.00    +0.000 A 
ATOM     12  N   UNL     1      53.425   8.701   9.664  0.00  0.00    +0.000 NA
BRANCH   7  14
ATOM     13  F   UNL     1      54.812   6.426   9.013  0.00  0.00    +0.000 F 
ATOM     14  C   UNL     1      53.485   6.244   9.297  0.00  0.00    +0.000 C 
ATOM     15  F   UNL     1      52.929   5.795   8.134  0.00  0.00    +0.000 F 
ATOM     16  F   UNL     1      53.444   5.195  10.166  0.00  0.00    +0.000 F 
ENDBRANCH   7  14
ENDBRANCH   1   9
BRANCH   5  17
ATOM     17  C   UNL     1      47.408   5.695  13.250  0.00  0.00    +0.000 C 
BRANCH  17  18
ATOM     18  N   UNL     1      46.020   5.781  13.687  0.00  0.00    +0.000 N 
ATOM     19  C   UNL     1      45.110   5.433  12.671  0.00  0.00    +0.000 A 
ATOM     20  C   UNL     1      43.735   5.478  12.908  0.00  0.00    +0.000 A 
ATOM     21  N   UNL     1      42.800   5.141  11.985  0.00  0.00    +0.000 NA
ATOM     22  C   UNL     1      43.284   4.732  10.791  0.00  0.00    +0.000 A 
ATOM     23  C   UNL     1      44.642   4.662  10.522  0.00  0.00    +0.000 A 
ATOM     24  N   UNL     1      45.564   5.012  11.471  0.00  0.00    +0.000 NA
ATOM     25  H   UNL     1      45.795   6.702  14.053  0.00  0.00    +0.000 HD
BRANCH  23  26
ATOM     26  C   UNL     1      45.115   4.211   9.160  0.00  0.00    +0.000 C 
ATOM     27  F   UNL     1      46.165   4.942   8.679  0.00  0.00    +0.000 F 
ATOM     28  F   UNL     1      45.545   2.916   9.151  0.00  0.00    +0.000 F 
ATOM     29  F   UNL     1      44.149   4.290   8.202  0.00  0.00    +0.000 F 
ENDBRANCH  23  26
ENDBRANCH  17  18
ENDBRANCH   5  17
TORSDOF 5
ENDMDL
MODEL 7
REMARK VINA RESULT:    -6.942      1.566      2.048
REMARK INTER + INTRA:          -9.904
REMARK INTER:                  -9.012
REMARK INTRA:                  -0.893
REMARK UNBOUND:                -0.934
REMARK  Name = 
REMARK  5 active torsions:
REMARK  status: ('A' for Active; 'I' for Inactive)
REMARK    1  A    between atoms: C_2  and  C_5
REMARK    2  A    between atoms: C_7  and  C_8
REMARK    3  A    between atoms: C_12  and  C_13
REMARK    4  A    between atoms: C_13  and  N_14
REMARK    5  A    between atoms: C_19  and  C_20
REMARK                            x       y       z     vdW  Elec       q    Type
REMARK                         _______ _______ _______ _____ _____    ______ ____
ROOT
ATOM      1  C   UNL     1      47.092   6.740  12.328  0.00  0.00    +0.000 A 
ATOM      2  C   UNL     1      47.902   7.339  11.348  0.00  0.00    +0.000 A 
ATOM      3  C   UNL     1      49.058   8.050  11.685  0.00  0.00    +0.000 A 
ATOM      4  C   UNL     1      49.413   8.218  13.020  0.00  0.00    +0.000 A 
ATOM      5  C   UNL     1      48.617   7.669  14.029  0.00  0.00    +0.000 A 
ATOM      6  C   UNL     1      47.495   6.902  13.670  0.00  0.00    +0.000 A 
ENDROOT
BRANCH   1   9
ATOM      7  C   UNL     1      44.601   4.521  10.493  0.00  0.00    +0.000 A 
ATOM      8  C   UNL     1      45.782   5.194  10.825  0.00  0.00    +0.000 A 
ATOM      9  C   UNL     1      45.854   5.999  11.975  0.00  0.00    +0.000 A 
ATOM     10  C   UNL     1      44.702   6.060  12.769  0.00  0.00    +0.000 A 
ATOM     11  C   UNL     1      43.573   5.346  12.396  0.00  0.00    +0.000 A 
ATOM     12  N   UNL     1      43.496   4.589  11.284  0.00  0.00    +0.000 NA
BRANCH   7  14
ATOM     13  F   UNL     1      43.808   4.315   8.219  0.00  0.00    +0.000 F 
ATOM     14  C   UNL     1      44.534   3.706   9.207  0.00  0.00    +0.000 C 
ATOM     15  F   UNL     1      43.950   2.485   9.378  0.00  0.00    +0.000 F 
ATOM     16  F   UNL     1      45.759   3.466   8.657  0.00  0.00    +0.000 F 
ENDBRANCH   7  14
ENDBRANCH   1   9
BRANCH   5  17
ATOM     17  C   UNL     1      48.914   7.946  15.484  0.00  0.00    +0.000 C 
BRANCH  17  18
ATOM     18  N   UNL     1      50.258   7.504  15.835  0.00  0.00    +0.000 N 
ATOM     19  C   UNL     1      50.266   6.248  16.470  0.00  0.00    +0.000 A 
ATOM     20  C   UNL     1      51.468   5.679  16.893  0.00  0.00    +0.000 A 
ATOM     21  N   UNL     1      51.556   4.466  17.496  0.00  0.00    +0.000 NA
ATOM     22  C   UNL     1      50.385   3.811  17.656  0.00  0.00    +0.000 A 
ATOM     23  C   UNL     1      49.173   4.338  17.237  0.00  0.00    +0.000 A 
ATOM     24  N   UNL     1      49.113   5.566  16.635  0.00  0.00    +0.000 NA
ATOM     25  H   UNL     1      50.742   8.187  16.411  0.00  0.00    +0.000 HD
BRANCH  23  26
ATOM     26  C   UNL     1      47.898   3.559  17.461  0.00  0.00    +0.000 C 
ATOM     27  F   UNL     1      46.845   4.339  17.849  0.00  0.00    +0.000 F 
ATOM     28  F   UNL     1      47.470   2.910  16.339  0.00  0.00    +0.000 F 
ATOM     29  F   UNL     1      48.015   2.602  18.425  0.00  0.00    +0.000 F 
ENDBRANCH  23  26
ENDBRANCH  17  18
ENDBRANCH   5  17
TORSDOF 5
ENDMDL
MODEL 8
REMARK VINA RESULT:    -6.824      2.064      2.489
REMARK INTER + INTRA:          -9.752
REMARK INTER:                  -9.062
REMARK INTRA:                  -0.690
REMARK UNBOUND:                -0.934
REMARK  Name = 
REMARK  5 active torsions:
REMARK  status: ('A' for Active; 'I' for Inactive)
REMARK    1  A    between atoms: C_2  and  C_5
REMARK    2  A    between atoms: C_7  and  C_8
REMARK    3  A    between atoms: C_12  and  C_13
REMARK    4  A    between atoms: C_13  and  N_14
REMARK    5  A    between atoms: C_19  and  C_20
REMARK                            x       y       z     vdW  Elec       q    Type
REMARK                         _______ _______ _______ _____ _____    ______ ____
ROOT
ATOM      1  C   UNL     1      46.265   5.874  12.374  0.00  0.00    +0.000 A 
ATOM      2  C   UNL     1      46.362   7.071  11.643  0.00  0.00    +0.000 A 
ATOM      3  C   UNL     1      47.233   8.095  12.026  0.00  0.00    +0.000 A 
ATOM      4  C   UNL     1      48.002   7.969  13.178  0.00  0.00    +0.000 A 
ATOM      5  C   UNL     1      47.912   6.809  13.953  0.00  0.00    +0.000 A 
ATOM      6  C   UNL     1      47.080   5.761  13.519  0.00  0.00    +0.000 A 
ENDROOT
BRANCH   1   9
ATOM      7  C   UNL     1      44.604   3.058  10.423  0.00  0.00    +0.000 A 
ATOM      8  C   UNL     1      45.508   4.060  10.793  0.00  0.00    +0.000 A 
ATOM      9  C   UNL     1      45.329   4.789  11.980  0.00  0.00    +0.000 A 
ATOM     10  C   UNL     1      44.228   4.438  12.770  0.00  0.00    +0.000 A 
ATOM     11  C   UNL     1      43.386   3.417  12.359  0.00  0.00    +0.000 A 
ATOM     12  N   UNL     1      43.544   2.728  11.212  0.00  0.00    +0.000 NA
BRANCH   7  14
ATOM     13  F   UNL     1      44.399   3.064   8.015  0.00  0.00    +0.000 F 
ATOM     14  C   UNL     1      44.789   2.325   9.100  0.00  0.00    +0.000 C 
ATOM     15  F   UNL     1      44.068   1.170   9.022  0.00  0.00    +0.000 F 
ATOM     16  F   UNL     1      46.085   1.980   8.851  0.00  0.00    +0.000 F 
ENDBRANCH   7  14
ENDBRANCH   1   9
BRANCH   5  17
ATOM     17  C   UNL     1      48.642   6.703  15.272  0.00  0.00    +0.000 C 
BRANCH  17  18
ATOM     18  N   UNL     1      49.926   7.389  15.213  0.00  0.00    +0.000 N 
ATOM     19  C   UNL     1      50.920   6.744  15.973  0.00  0.00    +0.000 A 
ATOM     20  C   UNL     1      52.208   7.275  16.046  0.00  0.00    +0.000 A 
ATOM     21  N   UNL     1      53.221   6.701  16.743  0.00  0.00    +0.000 NA
ATOM     22  C   UNL     1      52.912   5.544  17.370  0.00  0.00    +0.000 A 
ATOM     23  C   UNL     1      51.647   4.979  17.310  0.00  0.00    +0.000 A 
ATOM     24  N   UNL     1      50.643   5.582  16.603  0.00  0.00    +0.000 NA
ATOM     25  H   UNL     1      49.849   8.361  15.498  0.00  0.00    +0.000 HD
BRANCH  23  26
ATOM     26  C   UNL     1      51.364   3.691  18.048  0.00  0.00    +0.000 C 
ATOM     27  F   UNL     1      52.296   3.395  19.002  0.00  0.00    +0.000 F 
ATOM     28  F   UNL     1      50.169   3.708  18.705  0.00  0.00    +0.000 F 
ATOM     29  F   UNL     1      51.325   2.601  17.229  0.00  0.00    +0.000 F 
ENDBRANCH  23  26
ENDBRANCH  17  18
ENDBRANCH   5  17
TORSDOF 5
ENDMDL
MODEL 9
REMARK VINA RESULT:    -6.801      2.653      3.168
REMARK INTER + INTRA:          -9.722
REMARK INTER:                  -8.866
REMARK INTRA:                  -0.856
REMARK UNBOUND:                -0.934
REMARK  Name = 
REMARK  5 active torsions:
REMARK  status: ('A' for Active; 'I' for Inactive)
REMARK    1  A    between atoms: C_2  and  C_5
REMARK    2  A    between atoms: C_7  and  C_8
REMARK    3  A    between atoms: C_12  and  C_13
REMARK    4  A    between atoms: C_13  and  N_14
REMARK    5  A    between atoms: C_19  and  C_20
REMARK                            x       y       z     vdW  Elec       q    Type
REMARK                         _______ _______ _______ _____ _____    ______ ____
ROOT
ATOM      1  C   UNL     1      45.452   6.569  12.000  0.00  0.00    +0.000 A 
ATOM      2  C   UNL     1      44.814   7.779  11.675  0.00  0.00    +0.000 A 
ATOM      3  C   UNL     1      45.411   9.016  11.935  0.00  0.00    +0.000 A 
ATOM      4  C   UNL     1      46.648   9.079  12.568  0.00  0.00    +0.000 A 
ATOM      5  C   UNL     1      47.303   7.901  12.939  0.00  0.00    +0.000 A 
ATOM      6  C   UNL     1      46.719   6.664  12.611  0.00  0.00    +0.000 A 
ENDROOT
BRANCH   1   9
ATOM      7  C   UNL     1      44.503   3.268  10.358  0.00  0.00    +0.000 A 
ATOM      8  C   UNL     1      45.131   4.494  10.601  0.00  0.00    +0.000 A 
ATOM      9  C   UNL     1      44.814   5.253  11.740  0.00  0.00    +0.000 A 
ATOM     10  C   UNL     1      43.869   4.703  12.616  0.00  0.00    +0.000 A 
ATOM     11  C   UNL     1      43.305   3.469  12.329  0.00  0.00    +0.000 A 
ATOM     12  N   UNL     1      43.594   2.748  11.228  0.00  0.00    +0.000 NA
BRANCH   7  14
ATOM     13  F   UNL     1      44.474   3.170   7.943  0.00  0.00    +0.000 F 
ATOM     14  C   UNL     1      44.823   2.496   9.083  0.00  0.00    +0.000 C 
ATOM     15  F   UNL     1      44.171   1.300   9.004  0.00  0.00    +0.000 F 
ATOM     16  F   UNL     1      46.150   2.214   8.942  0.00  0.00    +0.000 F 
ENDBRANCH   7  14
ENDBRANCH   1   9
BRANCH   5  17
ATOM     17  C   UNL     1      48.584   7.948  13.738  0.00  0.00    +0.000 C 
BRANCH  17  18
ATOM     18  N   UNL     1      48.810   6.688  14.435  0.00  0.00    +0.000 N 
ATOM     19  C   UNL     1      48.734   6.822  15.834  0.00  0.00    +0.000 A 
ATOM     20  C   UNL     1      48.945   5.717  16.661  0.00  0.00    +0.000 A 
ATOM     21  N   UNL     1      48.871   5.765  18.015  0.00  0.00    +0.000 NA
ATOM     22  C   UNL     1      48.557   6.972  18.537  0.00  0.00    +0.000 A 
ATOM     23  C   UNL     1      48.329   8.089  17.747  0.00  0.00    +0.000 A 
ATOM     24  N   UNL     1      48.414   8.013  16.383  0.00  0.00    +0.000 NA
ATOM     25  H   UNL     1      49.697   6.266  14.174  0.00  0.00    +0.000 HD
BRANCH  23  26
ATOM     26  C   UNL     1      47.998   9.412  18.397  0.00  0.00    +0.000 C 
ATOM     27  F   UNL     1      49.031   9.935  19.122  0.00  0.00    +0.000 F 
ATOM     28  F   UNL     1      47.669  10.378  17.491  0.00  0.00    +0.000 F 
ATOM     29  F   UNL     1      46.948   9.338  19.263  0.00  0.00    +0.000 F 
ENDBRANCH  23  26
ENDBRANCH  17  18
ENDBRANCH   5  17
TORSDOF 5
ENDMDL
