MODEL 1
REMARK VINA RESULT:    -7.664      0.000      0.000
REMARK INTER + INTRA:          -9.411
REMARK INTER:                  -9.008
REMARK INTRA:                  -0.403
REMARK UNBOUND:                -0.403
REMARK  Name = 
REMARK  3 active torsions:
REMARK  status: ('A' for Active; 'I' for Inactive)
REMARK    1  A    between atoms: C_2  and  C_4
REMARK    2  A    between atoms: N_8  and  C_9
REMARK    3  A    between atoms: C_9  and  C_10
REMARK                            x       y       z     vdW  Elec       q    Type
REMARK                         _______ _______ _______ _____ _____    ______ ____
ROOT
ATOM      1  C   UNL     1      46.418   4.935  13.369  0.00  0.00    +0.000 A 
ATOM      2  C   UNL     1      46.824   5.954  12.513  0.00  0.00    +0.000 A 
ATOM      3  C   UNL     1      46.255   6.033  11.242  0.00  0.00    +0.000 A 
ATOM      4  C   UNL     1      45.331   5.073  10.832  0.00  0.00    +0.000 A 
ATOM      5  N   UNL     1      44.875   5.155   9.518  0.00  0.00    +0.000 N 
ATOM      6  N   UNL     1      44.937   4.075  11.646  0.00  0.00    +0.000 NA
ATOM      7  C   UNL     1      45.483   4.027  12.893  0.00  0.00    +0.000 A 
ATOM      8  H   UNL     1      44.355   6.013   9.366  0.00  0.00    +0.000 HD
ENDROOT
BRANCH   1  10
ATOM      9  N   UNL     1      47.723   5.796  15.227  0.00  0.00    +0.000 N 
ATOM     10  C   UNL     1      46.969   4.770  14.730  0.00  0.00    +0.000 C 
ATOM     11  O   UNL     1      46.737   3.770  15.398  0.00  0.00    +0.000 OA
ATOM     12  H   UNL     1      48.027   5.712  16.190  0.00  0.00    +0.000 HD
ATOM     13  H   UNL     1      47.736   6.717  14.813  0.00  0.00    +0.000 HD
ENDBRANCH   1  10
BRANCH   5  14
ATOM     14  C   UNL     1      44.225   3.979   8.968  0.00  0.00    +0.000 C 
BRANCH  14  15
ATOM     15  C   UNL     1      45.293   3.154   8.296  0.00  0.00    +0.000 A 
ATOM     16  C   UNL     1      46.181   3.694   7.363  0.00  0.00    +0.000 A 
ATOM     17  C   UNL     1      47.193   2.897   6.834  0.00  0.00    +0.000 A 
ATOM     18  C   UNL     1      47.286   1.581   7.254  0.00  0.00    +0.000 A 
ATOM     19  N   UNL     1      46.450   1.018   8.153  0.00  0.00    +0.000 NA
ATOM     20  C   UNL     1      45.478   1.820   8.656  0.00  0.00    +0.000 A 
ENDBRANCH  14  15
ENDBRANCH   5  14
TORSDOF 3
ENDMDL
MODEL 2
REMARK VINA RESULT:    -7.650      2.646      6.097
REMARK INTER + INTRA:          -9.395
REMARK INTER:                  -9.098
REMARK INTRA:                  -0.297
REMARK UNBOUND:                -0.403
REMARK  Name = 
REMARK  3 active torsions:
REMARK  status: ('A' for Active; 'I' for Inactive)
REMARK    1  A    between atoms: C_2  and  C_4
REMARK    2  A    between atoms: N_8  and  C_9
REMARK    3  A    between atoms: C_9  and  C_10
REMARK                            x       y       z     vdW  Elec       q    Type
REMARK                         _______ _______ _______ _____ _____    ______ ____
ROOT
ATOM      1  C   UNL     1      46.498   2.652   7.449  0.00  0.00    +0.000 A 
ATOM      2  C   UNL     1      45.854   1.682   8.211  0.00  0.00    +0.000 A 
ATOM      3  C   UNL     1      44.911   2.085   9.157  0.00  0.00    +0.000 A 
ATOM      4  C   UNL     1      44.662   3.441   9.357  0.00  0.00    +0.000 A 
ATOM      5  N   UNL     1      43.780   3.778  10.382  0.00  0.00    +0.000 N 
ATOM      6  N   UNL     1      45.285   4.391   8.634  0.00  0.00    +0.000 NA
ATOM      7  C   UNL     1      46.185   3.980   7.697  0.00  0.00    +0.000 A 
ATOM      8  H   UNL     1      42.847   3.427  10.189  0.00  0.00    +0.000 HD
ENDROOT
BRANCH   1  10
ATOM      9  N   UNL     1      47.582   3.131   5.330  0.00  0.00    +0.000 N 
ATOM     10  C   UNL     1      47.514   2.320   6.428  0.00  0.00    +0.000 C 
ATOM     11  O   UNL     1      48.283   1.378   6.572  0.00  0.00    +0.000 OA
ATOM     12  H   UNL     1      48.334   2.948   4.676  0.00  0.00    +0.000 HD
ATOM     13  H   UNL     1      47.141   4.038   5.290  0.00  0.00    +0.000 HD
ENDBRANCH   1  10
BRANCH   5  14
ATOM     14  C   UNL     1      43.798   5.153  10.846  0.00  0.00    +0.000 C 
BRANCH  14  15
ATOM     15  C   UNL     1      44.961   5.289  11.795  0.00  0.00    +0.000 A 
ATOM     16  C   UNL     1      45.937   6.278  11.647  0.00  0.00    +0.000 A 
ATOM     17  C   UNL     1      46.946   6.397  12.600  0.00  0.00    +0.000 A 
ATOM     18  C   UNL     1      46.948   5.523  13.674  0.00  0.00    +0.000 A 
ATOM     19  N   UNL     1      46.025   4.555  13.856  0.00  0.00    +0.000 NA
ATOM     20  C   UNL     1      45.051   4.466  12.916  0.00  0.00    +0.000 A 
ENDBRANCH  14  15
ENDBRANCH   5  14
TORSDOF 3
ENDMDL
MODEL 3
REMARK VINA RESULT:    -7.018      1.595      2.012
REMARK INTER + INTRA:          -8.652
REMARK INTER:                  -8.337
REMARK INTRA:                  -0.316
REMARK UNBOUND:                -0.403
REMARK  Name = 
REMARK  3 active torsions:
REMARK  status: ('A' for Active; 'I' for Inactive)
REMARK    1  A    between atoms: C_2  and  C_4
REMARK    2  A    between atoms: N_8  and  C_9
REMARK    3  A    between atoms: C_9  and  C_10
REMARK                            x       y       z     vdW  Elec       q    Type
REMARK                         _______ _______ _______ _____ _____    ______ ____
ROOT
ATOM      1  C   UNL     1      46.379   6.573  12.756  0.00  0.00    +0.000 A 
ATOM      2  C   UNL     1      45.587   5.579  13.322  0.00  0.00    +0.000 A 
ATOM      3  C   UNL     1      45.028   4.608  12.491  0.00  0.00    +0.000 A 
ATOM      4  C   UNL     1      45.230   4.670  11.114  0.00  0.00    +0.000 A 
ATOM      5  N   UNL     1      44.566   3.726  10.333  0.00  0.00    +0.000 N 
ATOM      6  N   UNL     1      45.986   5.632  10.551  0.00  0.00    +0.000 NA
ATOM      7  C   UNL     1      46.545   6.559  11.379  0.00  0.00    +0.000 A 
ATOM      8  H   UNL     1      44.891   2.788  10.543  0.00  0.00    +0.000 HD
ENDROOT
BRANCH   1  10
ATOM      9  N   UNL     1      46.322   8.823  13.665  0.00  0.00    +0.000 N 
ATOM     10  C   UNL     1      47.007   7.645  13.556  0.00  0.00    +0.000 C 
ATOM     11  O   UNL     1      48.081   7.479  14.121  0.00  0.00    +0.000 OA
ATOM     12  H   UNL     1      46.718   9.523  14.282  0.00  0.00    +0.000 HD
ATOM     13  H   UNL     1      45.346   8.915  13.422  0.00  0.00    +0.000 HD
ENDBRANCH   1  10
BRANCH   5  14
ATOM     14  C   UNL     1      44.460   3.999   8.912  0.00  0.00    +0.000 C 
BRANCH  14  15
ATOM     15  C   UNL     1      45.433   3.087   8.209  0.00  0.00    +0.000 A 
ATOM     16  C   UNL     1      46.297   3.541   7.209  0.00  0.00    +0.000 A 
ATOM     17  C   UNL     1      47.225   2.665   6.652  0.00  0.00    +0.000 A 
ATOM     18  C   UNL     1      47.263   1.360   7.113  0.00  0.00    +0.000 A 
ATOM     19  N   UNL     1      46.449   0.880   8.077  0.00  0.00    +0.000 NA
ATOM     20  C   UNL     1      45.559   1.757   8.606  0.00  0.00    +0.000 A 
ENDBRANCH  14  15
ENDBRANCH   5  14
TORSDOF 3
ENDMDL
MODEL 4
REMARK VINA RESULT:    -6.261      3.064      6.988
REMARK INTER + INTRA:          -7.762
REMARK INTER:                  -7.443
REMARK INTRA:                  -0.319
REMARK UNBOUND:                -0.403
REMARK  Name = 
REMARK  3 active torsions:
REMARK  status: ('A' for Active; 'I' for Inactive)
REMARK    1  A    between atoms: C_2  and  C_4
REMARK    2  A    between atoms: N_8  and  C_9
REMARK    3  A    between atoms: C_9  and  C_10
REMARK                            x       y       z     vdW  Elec       q    Type
REMARK                         _______ _______ _______ _____ _____    ______ ____
ROOT
ATOM      1  C   UNL     1      45.457   4.676  11.683  0.00  0.00    +0.000 A 
ATOM      2  C   UNL     1      45.948   5.920  12.067  0.00  0.00    +0.000 A 
ATOM      3  C   UNL     1      46.617   6.035  13.285  0.00  0.00    +0.000 A 
ATOM      4  C   UNL     1      46.746   4.923  14.116  0.00  0.00    +0.000 A 
ATOM      5  N   UNL     1      47.340   5.128  15.359  0.00  0.00    +0.000 N 
ATOM      6  N   UNL     1      46.267   3.715  13.762  0.00  0.00    +0.000 NA
ATOM      7  C   UNL     1      45.638   3.614  12.558  0.00  0.00    +0.000 A 
ATOM      8  H   UNL     1      48.308   5.416  15.257  0.00  0.00    +0.000 HD
ENDROOT
BRANCH   1  10
ATOM      9  N   UNL     1      45.208   5.103   9.306  0.00  0.00    +0.000 N 
ATOM     10  C   UNL     1      44.731   4.461  10.415  0.00  0.00    +0.000 C 
ATOM     11  O   UNL     1      43.761   3.717  10.350  0.00  0.00    +0.000 OA
ATOM     12  H   UNL     1      44.757   4.886   8.426  0.00  0.00    +0.000 HD
ATOM     13  H   UNL     1      46.126   5.522   9.268  0.00  0.00    +0.000 HD
ENDBRANCH   1  10
BRANCH   5  14
ATOM     14  C   UNL     1      47.146   4.098  16.364  0.00  0.00    +0.000 C 
BRANCH  14  15
ATOM     15  C   UNL     1      48.506   3.542  16.701  0.00  0.00    +0.000 A 
ATOM     16  C   UNL     1      49.427   4.241  17.486  0.00  0.00    +0.000 A 
ATOM     17  C   UNL     1      50.638   3.641  17.824  0.00  0.00    +0.000 A 
ATOM     18  C   UNL     1      50.890   2.358  17.368  0.00  0.00    +0.000 A 
ATOM     19  N   UNL     1      50.029   1.648  16.609  0.00  0.00    +0.000 NA
ATOM     20  C   UNL     1      48.856   2.254  16.300  0.00  0.00    +0.000 A 
ENDBRANCH  14  15
ENDBRANCH   5  14
TORSDOF 3
ENDMDL
MODEL 5
REMARK VINA RESULT:    -6.155      1.936      2.340
REMARK INTER + INTRA:          -7.638
REMARK INTER:                  -7.510
REMARK INTRA:                  -0.127
REMARK UNBOUND:                -0.403
REMARK  Name = 
REMARK  3 active torsions:
REMARK  status: ('A' for Active; 'I' for Inactive)
REMARK    1  A    between atoms: C_2  and  C_4
REMARK    2  A    between atoms: N_8  and  C_9
REMARK    3  A    between atoms: C_9  and  C_10
REMARK                            x       y       z     vdW  Elec       q    Type
REMARK                         _______ _______ _______ _____ _____    ______ ____
ROOT
ATOM      1  C   UNL     1      45.326   5.806  12.174  0.00  0.00    +0.000 A 
ATOM      2  C   UNL     1      44.373   6.170  11.227  0.00  0.00    +0.000 A 
ATOM      3  C   UNL     1      43.899   5.203  10.341  0.00  0.00    +0.000 A 
ATOM      4  C   UNL     1      44.412   3.908  10.386  0.00  0.00    +0.000 A 
ATOM      5  N   UNL     1      43.965   3.017   9.412  0.00  0.00    +0.000 N 
ATOM      6  N   UNL     1      45.341   3.544  11.289  0.00  0.00    +0.000 NA
ATOM      7  C   UNL     1      45.776   4.494  12.164  0.00  0.00    +0.000 A 
ATOM      8  H   UNL     1      42.970   2.843   9.507  0.00  0.00    +0.000 HD
ENDROOT
BRANCH   1  10
ATOM      9  N   UNL     1      46.801   6.277  14.044  0.00  0.00    +0.000 N 
ATOM     10  C   UNL     1      45.890   6.763  13.148  0.00  0.00    +0.000 C 
ATOM     11  O   UNL     1      45.579   7.948  13.137  0.00  0.00    +0.000 OA
ATOM     12  H   UNL     1      47.245   6.954  14.653  0.00  0.00    +0.000 HD
ATOM     13  H   UNL     1      47.255   5.382  13.933  0.00  0.00    +0.000 HD
ENDBRANCH   1  10
BRANCH   5  14
ATOM     14  C   UNL     1      44.747   1.811   9.208  0.00  0.00    +0.000 C 
BRANCH  14  15
ATOM     15  C   UNL     1      45.764   2.115   8.138  0.00  0.00    +0.000 A 
ATOM     16  C   UNL     1      46.740   1.194   7.749  0.00  0.00    +0.000 A 
ATOM     17  C   UNL     1      47.604   1.507   6.703  0.00  0.00    +0.000 A 
ATOM     18  C   UNL     1      47.464   2.733   6.074  0.00  0.00    +0.000 A 
ATOM     19  N   UNL     1      46.536   3.651   6.416  0.00  0.00    +0.000 NA
ATOM     20  C   UNL     1      45.704   3.317   7.435  0.00  0.00    +0.000 A 
ENDBRANCH  14  15
ENDBRANCH   5  14
TORSDOF 3
ENDMDL
MODEL 6
REMARK VINA RESULT:    -5.508      3.269      6.066
REMARK INTER + INTRA:          -6.878
REMARK INTER:                  -6.595
REMARK INTRA:                  -0.283
REMARK UNBOUND:                -0.403
REMARK  Name = 
REMARK  3 active torsions:
REMARK  status: ('A' for Active; 'I' for Inactive)
REMARK    1  A    between atoms: C_2  and  C_4
REMARK    2  A    between atoms: N_8  and  C_9
REMARK    3  A    between atoms: C_9  and  C_10
REMARK                            x       y       z     vdW  Elec       q    Type
REMARK                         _______ _______ _______ _____ _____    ______ ____
ROOT
ATOM      1  C   UNL     1      44.534   4.062  11.702  0.00  0.00    +0.000 A 
ATOM      2  C   UNL     1      45.242   3.992  12.898  0.00  0.00    +0.000 A 
ATOM      3  C   UNL     1      45.790   5.161  13.427  0.00  0.00    +0.000 A 
ATOM      4  C   UNL     1      45.662   6.364  12.734  0.00  0.00    +0.000 A 
ATOM      5  N   UNL     1      46.314   7.474  13.269  0.00  0.00    +0.000 N 
ATOM      6  N   UNL     1      44.989   6.445  11.571  0.00  0.00    +0.000 NA
ATOM      7  C   UNL     1      44.438   5.299  11.081  0.00  0.00    +0.000 A 
ATOM      8  H   UNL     1      45.928   7.720  14.175  0.00  0.00    +0.000 HD
ENDROOT
BRANCH   1  10
ATOM      9  N   UNL     1      44.559   2.363   9.968  0.00  0.00    +0.000 N 
ATOM     10  C   UNL     1      43.925   2.876  11.065  0.00  0.00    +0.000 C 
ATOM     11  O   UNL     1      42.912   2.356  11.515  0.00  0.00    +0.000 OA
ATOM     12  H   UNL     1      44.183   1.503   9.586  0.00  0.00    +0.000 HD
ATOM     13  H   UNL     1      45.505   2.609   9.716  0.00  0.00    +0.000 HD
ENDBRANCH   1  10
BRANCH   5  14
ATOM     14  C   UNL     1      46.507   8.614  12.392  0.00  0.00    +0.000 C 
BRANCH  14  15
ATOM     15  C   UNL     1      47.980   8.691  12.080  0.00  0.00    +0.000 A 
ATOM     16  C   UNL     1      48.781   7.552  11.960  0.00  0.00    +0.000 A 
ATOM     17  C   UNL     1      50.119   7.687  11.596  0.00  0.00    +0.000 A 
ATOM     18  C   UNL     1      50.616   8.958  11.362  0.00  0.00    +0.000 A 
ATOM     19  N   UNL     1      49.878  10.084  11.466  0.00  0.00    +0.000 NA
ATOM     20  C   UNL     1      48.577   9.922  11.816  0.00  0.00    +0.000 A 
ENDBRANCH  14  15
ENDBRANCH   5  14
TORSDOF 3
ENDMDL
MODEL 7
REMARK VINA RESULT:    -5.495      3.165      7.942
REMARK INTER + INTRA:          -6.862
REMARK INTER:                  -6.642
REMARK INTRA:                  -0.220
REMARK UNBOUND:                -0.403
REMARK  Name = 
REMARK  3 active torsions:
REMARK  status: ('A' for Active; 'I' for Inactive)
REMARK    1  A    between atoms: C_2  and  C_4
REMARK    2  A    between atoms: N_8  and  C_9
REMARK    3  A    between atoms: C_9  and  C_10
REMARK                            x       y       z     vdW  Elec       q    Type
REMARK                         _______ _______ _______ _____ _____    ______ ____
ROOT
ATOM      1  C   UNL     1      45.535   4.979  11.747  0.00  0.00    +0.000 A 
ATOM      2  C   UNL     1      46.410   6.020  12.040  0.00  0.00    +0.000 A 
ATOM      3  C   UNL     1      47.114   5.990  13.244  0.00  0.00    +0.000 A 
ATOM      4  C   UNL     1      46.900   4.953  14.149  0.00  0.00    +0.000 A 
ATOM      5  N   UNL     1      47.562   5.034  15.373  0.00  0.00    +0.000 N 
ATOM      6  N   UNL     1      46.048   3.945  13.884  0.00  0.00    +0.000 NA
ATOM      7  C   UNL     1      45.387   3.975  12.693  0.00  0.00    +0.000 A 
ATOM      8  H   UNL     1      48.568   4.987  15.245  0.00  0.00    +0.000 HD
ENDROOT
BRANCH   1  10
ATOM      9  N   UNL     1      45.392   5.236   9.337  0.00  0.00    +0.000 N 
ATOM     10  C   UNL     1      44.743   4.928  10.500  0.00  0.00    +0.000 C 
ATOM     11  O   UNL     1      43.564   4.597  10.502  0.00  0.00    +0.000 OA
ATOM     12  H   UNL     1      44.866   5.119   8.479  0.00  0.00    +0.000 HD
ATOM     13  H   UNL     1      46.398   5.277   9.265  0.00  0.00    +0.000 HD
ENDBRANCH   1  10
BRANCH   5  14
ATOM     14  C   UNL     1      47.074   4.191  16.448  0.00  0.00    +0.000 C 
BRANCH  14  15
ATOM     15  C   UNL     1      47.710   4.681  17.723  0.00  0.00    +0.000 A 
ATOM     16  C   UNL     1      47.023   5.472  18.648  0.00  0.00    +0.000 A 
ATOM     17  C   UNL     1      47.642   5.830  19.843  0.00  0.00    +0.000 A 
ATOM     18  C   UNL     1      48.932   5.386  20.078  0.00  0.00    +0.000 A 
ATOM     19  N   UNL     1      49.633   4.621  19.213  0.00  0.00    +0.000 NA
ATOM     20  C   UNL     1      49.002   4.282  18.061  0.00  0.00    +0.000 A 
ENDBRANCH  14  15
ENDBRANCH   5  14
TORSDOF 3
ENDMDL
MODEL 8
REMARK VINA RESULT:    -5.486      3.580      5.781
REMARK INTER + INTRA:          -6.851
REMARK INTER:                  -6.631
REMARK INTRA:                  -0.221
REMARK UNBOUND:                -0.403
REMARK  Name = 
REMARK  3 active torsions:
REMARK  status: ('A' for Active; 'I' for Inactive)
REMARK    1  A    between atoms: C_2  and  C_4
REMARK    2  A    between atoms: N_8  and  C_9
REMARK    3  A    between atoms: C_9  and  C_10
REMARK                            x       y       z     vdW  Elec       q    Type
REMARK                         _______ _______ _______ _____ _____    ______ ____
ROOT
ATOM      1  C   UNL     1      49.065   4.363  18.272  0.00  0.00    +0.000 A 
ATOM      2  C   UNL     1      48.074   3.385  18.267  0.00  0.00    +0.000 A 
ATOM      3  C   UNL     1      47.296   3.218  17.122  0.00  0.00    +0.000 A 
ATOM      4  C   UNL     1      47.487   4.054  16.023  0.00  0.00    +0.000 A 
ATOM      5  N   UNL     1      46.613   3.897  14.949  0.00  0.00    +0.000 N 
ATOM      6  N   UNL     1      48.434   5.011  16.017  0.00  0.00    +0.000 NA
ATOM      7  C   UNL     1      49.203   5.145  17.134  0.00  0.00    +0.000 A 
ATOM      8  H   UNL     1      46.718   2.981  14.526  0.00  0.00    +0.000 HD
ENDROOT
BRANCH   1  10
ATOM      9  N   UNL     1      51.260   4.314  19.308  0.00  0.00    +0.000 N 
ATOM     10  C   UNL     1      49.933   4.615  19.440  0.00  0.00    +0.000 C 
ATOM     11  O   UNL     1      49.491   5.100  20.474  0.00  0.00    +0.000 OA
ATOM     12  H   UNL     1      51.862   4.566  20.082  0.00  0.00    +0.000 HD
ATOM     13  H   UNL     1      51.697   4.144  18.413  0.00  0.00    +0.000 HD
ENDBRANCH   1  10
BRANCH   5  14
ATOM     14  C   UNL     1      46.551   4.978  13.983  0.00  0.00    +0.000 C 
BRANCH  14  15
ATOM     15  C   UNL     1      45.345   4.729  13.113  0.00  0.00    +0.000 A 
ATOM     16  C   UNL     1      44.364   5.700  12.896  0.00  0.00    +0.000 A 
ATOM     17  C   UNL     1      43.313   5.434  12.022  0.00  0.00    +0.000 A 
ATOM     18  C   UNL     1      43.275   4.203  11.390  0.00  0.00    +0.000 A 
ATOM     19  N   UNL     1      44.201   3.237  11.569  0.00  0.00    +0.000 NA
ATOM     20  C   UNL     1      45.216   3.526  12.421  0.00  0.00    +0.000 A 
ENDBRANCH  14  15
ENDBRANCH   5  14
TORSDOF 3
ENDMDL
MODEL 9
REMARK VINA RESULT:    -5.357      2.878      6.209
REMARK INTER + INTRA:          -6.699
REMARK INTER:                  -6.327
REMARK INTRA:                  -0.373
REMARK UNBOUND:                -0.403
REMARK  Name = 
REMARK  3 active torsions:
REMARK  status: ('A' for Active; 'I' for Inactive)
REMARK    1  A    between atoms: C_2  and  C_4
REMARK    2  A    between atoms: N_8  and  C_9
REMARK    3  A    between atoms: C_9  and  C_10
REMARK                            x       y       z     vdW  Elec       q    Type
REMARK                         _______ _______ _______ _____ _____    ______ ____
ROOT
ATOM      1  C   UNL     1      44.946   3.751  10.067  0.00  0.00    +0.000 A 
ATOM      2  C   UNL     1      45.017   3.271  11.371  0.00  0.00    +0.000 A 
ATOM      3  C   UNL     1      45.136   4.183  12.420  0.00  0.00    +0.000 A 
ATOM      4  C   UNL     1      45.227   5.547  12.148  0.00  0.00    +0.000 A 
ATOM      5  N   UNL     1      45.440   6.395  13.233  0.00  0.00    +0.000 N 
ATOM      6  N   UNL     1      45.170   6.025  10.891  0.00  0.00    +0.000 NA
ATOM      7  C   UNL     1      45.029   5.124   9.879  0.00  0.00    +0.000 A 
ATOM      8  H   UNL     1      44.654   6.370  13.875  0.00  0.00    +0.000 HD
ENDROOT
BRANCH   1  10
ATOM      9  N   UNL     1      44.863   1.514   9.128  0.00  0.00    +0.000 N 
ATOM     10  C   UNL     1      44.825   2.861   8.894  0.00  0.00    +0.000 C 
ATOM     11  O   UNL     1      44.668   3.306   7.765  0.00  0.00    +0.000 OA
ATOM     12  H   UNL     1      44.697   0.910   8.331  0.00  0.00    +0.000 HD
ATOM     13  H   UNL     1      44.750   1.113  10.047  0.00  0.00    +0.000 HD
ENDBRANCH   1  10
BRANCH   5  14
ATOM     14  C   UNL     1      45.906   7.739  12.942  0.00  0.00    +0.000 C 
BRANCH  14  15
ATOM     15  C   UNL     1      47.413   7.705  12.977  0.00  0.00    +0.000 A 
ATOM     16  C   UNL     1      48.191   7.799  11.821  0.00  0.00    +0.000 A 
ATOM     17  C   UNL     1      49.580   7.837  11.927  0.00  0.00    +0.000 A 
ATOM     18  C   UNL     1      50.148   7.782  13.188  0.00  0.00    +0.000 A 
ATOM     19  N   UNL     1      49.435   7.692  14.330  0.00  0.00    +0.000 NA
ATOM     20  C   UNL     1      48.085   7.662  14.197  0.00  0.00    +0.000 A 
ENDBRANCH  14  15
ENDBRANCH   5  14
TORSDOF 3
ENDMDL
