MODEL 1
REMARK VINA RESULT:    -7.618      0.000      0.000
REMARK INTER + INTRA:         -11.014
REMARK INTER:                 -10.291
REMARK INTRA:                  -0.724
REMARK UNBOUND:                -0.724
REMARK  Name = 
REMARK  7 active torsions:
REMARK  status: ('A' for Active; 'I' for Inactive)
REMARK    1  A    between atoms: C_1  and  C_2
REMARK    2  A    between atoms: C_2  and  C_3
REMARK    3  A    between atoms: C_2  and  C_18
REMARK    4  A    between atoms: C_3  and  N_4
REMARK    5  A    between atoms: N_4  and  C_5
REMARK    6  A    between atoms: C_8  and  C_9
REMARK    7  A    between atoms: C_12  and  C_13
REMARK                            x       y       z     vdW  Elec       q    Type
REMARK                         _______ _______ _______ _____ _____    ______ ____
ROOT
ATOM      1  C   UNL     1      45.830   5.692  11.600  0.00  0.00    +0.000 A 
ATOM      2  C   UNL     1      45.666   4.976  12.782  0.00  0.00    +0.000 A 
ATOM      3  C   UNL     1      46.499   5.201  13.883  0.00  0.00    +0.000 A 
ATOM      4  C   UNL     1      47.511   6.176  13.854  0.00  0.00    +0.000 A 
ATOM      5  C   UNL     1      47.707   6.908  12.675  0.00  0.00    +0.000 A 
ATOM      6  C   UNL     1      46.835   6.669  11.579  0.00  0.00    +0.000 A 
ENDROOT
BRANCH   4   7
ATOM      7  C   UNL     1      48.272   6.308  15.128  0.00  0.00    +0.000 C 
ATOM      8  N   UNL     1      48.289   7.509  15.769  0.00  0.00    +0.000 N 
ATOM      9  O   UNL     1      48.814   5.332  15.635  0.00  0.00    +0.000 OA
ATOM     10  H   UNL     1      48.032   8.389  15.345  0.00  0.00    +0.000 HD
ATOM     11  H   UNL     1      48.872   7.561  16.596  0.00  0.00    +0.000 HD
ENDBRANCH   4   7
BRANCH   5  12
ATOM     12  C   UNL     1      48.798   7.913  12.435  0.00  0.00    +0.000 C 
ATOM     13  F   UNL     1      48.680   9.097  13.089  0.00  0.00    +0.000 F 
ATOM     14  F   UNL     1      50.026   7.434  12.787  0.00  0.00    +0.000 F 
ATOM     15  F   UNL     1      48.901   8.243  11.116  0.00  0.00    +0.000 F 
ENDBRANCH   5  12
BRANCH   1  16
ATOM     16  N   UNL     1      44.988   5.580  10.490  0.00  0.00    +0.000 N 
ATOM     17  H   UNL     1      44.370   6.381  10.391  0.00  0.00    +0.000 HD
BRANCH  16  18
ATOM     18  C   UNL     1      45.530   5.122   9.220  0.00  0.00    +0.000 C 
BRANCH  18  20
ATOM     19  C   UNL     1      44.208   3.008   9.934  0.00  0.00    +0.000 C 
ATOM     20  C   UNL     1      44.999   3.755   8.903  0.00  0.00    +0.000 C 
BRANCH  20  21
ATOM     21  C   UNL     1      45.853   2.947   8.016  0.00  0.00    +0.000 A 
ATOM     22  C   UNL     1      46.120   1.611   8.323  0.00  0.00    +0.000 A 
ATOM     23  C   UNL     1      46.897   0.837   7.458  0.00  0.00    +0.000 A 
ATOM     24  C   UNL     1      47.403   1.395   6.284  0.00  0.00    +0.000 A 
ATOM     25  C   UNL     1      47.138   2.728   5.973  0.00  0.00    +0.000 A 
ATOM     26  C   UNL     1      46.372   3.505   6.841  0.00  0.00    +0.000 A 
ENDBRANCH  20  21
ENDBRANCH  18  20
ENDBRANCH  16  18
ENDBRANCH   1  16
TORSDOF 6
ENDMDL
MODEL 2
REMARK VINA RESULT:    -7.592      1.543      1.912
REMARK INTER + INTRA:         -10.979
REMARK INTER:                  -9.957
REMARK INTRA:                  -1.022
REMARK UNBOUND:                -0.724
REMARK  Name = 
REMARK  7 active torsions:
REMARK  status: ('A' for Active; 'I' for Inactive)
REMARK    1  A    between atoms: C_1  and  C_2
REMARK    2  A    between atoms: C_2  and  C_3
REMARK    3  A    between atoms: C_2  and  C_18
REMARK    4  A    between atoms: C_3  and  N_4
REMARK    5  A    between atoms: N_4  and  C_5
REMARK    6  A    between atoms: C_8  and  C_9
REMARK    7  A    between atoms: C_12  and  C_13
REMARK                            x       y       z     vdW  Elec       q    Type
REMARK                         _______ _______ _______ _____ _____    ______ ____
ROOT
ATOM      1  C   UNL     1      45.122   4.035  12.197  0.00  0.00    +0.000 A 
ATOM      2  C   UNL     1      46.068   3.420  13.011  0.00  0.00    +0.000 A 
ATOM      3  C   UNL     1      47.028   4.173  13.695  0.00  0.00    +0.000 A 
ATOM      4  C   UNL     1      47.058   5.575  13.616  0.00  0.00    +0.000 A 
ATOM      5  C   UNL     1      46.124   6.224  12.798  0.00  0.00    +0.000 A 
ATOM      6  C   UNL     1      45.150   5.435  12.129  0.00  0.00    +0.000 A 
ENDROOT
BRANCH   4   7
ATOM      7  C   UNL     1      48.121   6.213  14.442  0.00  0.00    +0.000 C 
ATOM      8  N   UNL     1      47.982   6.240  15.796  0.00  0.00    +0.000 N 
ATOM      9  O   UNL     1      49.145   6.641  13.921  0.00  0.00    +0.000 OA
ATOM     10  H   UNL     1      47.114   6.080  16.287  0.00  0.00    +0.000 HD
ATOM     11  H   UNL     1      48.702   6.740  16.306  0.00  0.00    +0.000 HD
ENDBRANCH   4   7
BRANCH   5  12
ATOM     12  C   UNL     1      46.072   7.699  12.519  0.00  0.00    +0.000 C 
ATOM     13  F   UNL     1      45.965   8.513  13.601  0.00  0.00    +0.000 F 
ATOM     14  F   UNL     1      47.181   8.136  11.855  0.00  0.00    +0.000 F 
ATOM     15  F   UNL     1      45.017   8.027  11.720  0.00  0.00    +0.000 F 
ENDBRANCH   5  12
BRANCH   1  16
ATOM     16  N   UNL     1      44.084   3.358  11.549  0.00  0.00    +0.000 N 
ATOM     17  H   UNL     1      43.252   3.934  11.446  0.00  0.00    +0.000 HD
BRANCH  16  18
ATOM     18  C   UNL     1      44.373   2.563  10.365  0.00  0.00    +0.000 C 
BRANCH  18  20
ATOM     19  C   UNL     1      44.089   4.569   8.744  0.00  0.00    +0.000 C 
ATOM     20  C   UNL     1      44.924   3.445   9.282  0.00  0.00    +0.000 C 
BRANCH  20  21
ATOM     21  C   UNL     1      45.815   2.770   8.324  0.00  0.00    +0.000 A 
ATOM     22  C   UNL     1      46.033   1.394   8.417  0.00  0.00    +0.000 A 
ATOM     23  C   UNL     1      46.847   0.751   7.481  0.00  0.00    +0.000 A 
ATOM     24  C   UNL     1      47.439   1.480   6.450  0.00  0.00    +0.000 A 
ATOM     25  C   UNL     1      47.223   2.855   6.353  0.00  0.00    +0.000 A 
ATOM     26  C   UNL     1      46.420   3.499   7.293  0.00  0.00    +0.000 A 
ENDBRANCH  20  21
ENDBRANCH  18  20
ENDBRANCH  16  18
ENDBRANCH   1  16
TORSDOF 6
ENDMDL
MODEL 3
REMARK VINA RESULT:    -7.554      2.006      2.638
REMARK INTER + INTRA:         -10.927
REMARK INTER:                  -9.928
REMARK INTRA:                  -0.999
REMARK UNBOUND:                -0.724
REMARK  Name = 
REMARK  7 active torsions:
REMARK  status: ('A' for Active; 'I' for Inactive)
REMARK    1  A    between atoms: C_1  and  C_2
REMARK    2  A    between atoms: C_2  and  C_3
REMARK    3  A    between atoms: C_2  and  C_18
REMARK    4  A    between atoms: C_3  and  N_4
REMARK    5  A    between atoms: N_4  and  C_5
REMARK    6  A    between atoms: C_8  and  C_9
REMARK    7  A    between atoms: C_12  and  C_13
REMARK                            x       y       z     vdW  Elec       q    Type
REMARK                         _______ _______ _______ _____ _____    ______ ____
ROOT
ATOM      1  C   UNL     1      44.479   6.124  11.258  0.00  0.00    +0.000 A 
ATOM      2  C   UNL     1      44.256   7.497  11.315  0.00  0.00    +0.000 A 
ATOM      3  C   UNL     1      45.136   8.341  12.001  0.00  0.00    +0.000 A 
ATOM      4  C   UNL     1      46.292   7.848  12.630  0.00  0.00    +0.000 A 
ATOM      5  C   UNL     1      46.539   6.469  12.598  0.00  0.00    +0.000 A 
ATOM      6  C   UNL     1      45.637   5.638  11.879  0.00  0.00    +0.000 A 
ENDROOT
BRANCH   4   7
ATOM      7  C   UNL     1      47.132   8.894  13.275  0.00  0.00    +0.000 C 
ATOM      8  N   UNL     1      47.047   9.074  14.623  0.00  0.00    +0.000 N 
ATOM      9  O   UNL     1      47.947   9.534  12.620  0.00  0.00    +0.000 OA
ATOM     10  H   UNL     1      46.294   8.730  15.200  0.00  0.00    +0.000 HD
ATOM     11  H   UNL     1      47.592   9.840  15.003  0.00  0.00    +0.000 HD
ENDBRANCH   4   7
BRANCH   5  12
ATOM     12  C   UNL     1      47.665   5.760  13.296  0.00  0.00    +0.000 C 
ATOM     13  F   UNL     1      48.919   6.068  12.880  0.00  0.00    +0.000 F 
ATOM     14  F   UNL     1      47.668   5.999  14.640  0.00  0.00    +0.000 F 
ATOM     15  F   UNL     1      47.568   4.406  13.168  0.00  0.00    +0.000 F 
ENDBRANCH   5  12
BRANCH   1  16
ATOM     16  N   UNL     1      43.692   5.231  10.526  0.00  0.00    +0.000 N 
ATOM     17  H   UNL     1      42.714   5.506  10.503  0.00  0.00    +0.000 HD
BRANCH  16  18
ATOM     18  C   UNL     1      44.170   4.733   9.245  0.00  0.00    +0.000 C 
BRANCH  18  20
ATOM     19  C   UNL     1      44.179   2.538  10.626  0.00  0.00    +0.000 C 
ATOM     20  C   UNL     1      44.385   3.249   9.323  0.00  0.00    +0.000 C 
BRANCH  20  21
ATOM     21  C   UNL     1      45.450   2.729   8.450  0.00  0.00    +0.000 A 
ATOM     22  C   UNL     1      46.175   3.598   7.632  0.00  0.00    +0.000 A 
ATOM     23  C   UNL     1      47.212   3.106   6.835  0.00  0.00    +0.000 A 
ATOM     24  C   UNL     1      47.530   1.748   6.860  0.00  0.00    +0.000 A 
ATOM     25  C   UNL     1      46.809   0.877   7.677  0.00  0.00    +0.000 A 
ATOM     26  C   UNL     1      45.767   1.365   8.464  0.00  0.00    +0.000 A 
ENDBRANCH  20  21
ENDBRANCH  18  20
ENDBRANCH  16  18
ENDBRANCH   1  16
TORSDOF 6
ENDMDL
MODEL 4
REMARK VINA RESULT:    -7.532      4.553      7.396
REMARK INTER + INTRA:         -10.897
REMARK INTER:                  -9.796
REMARK INTRA:                  -1.102
REMARK UNBOUND:                -0.724
REMARK  Name = 
REMARK  7 active torsions:
REMARK  status: ('A' for Active; 'I' for Inactive)
REMARK    1  A    between atoms: C_1  and  C_2
REMARK    2  A    between atoms: C_2  and  C_3
REMARK    3  A    between atoms: C_2  and  C_18
REMARK    4  A    between atoms: C_3  and  N_4
REMARK    5  A    between atoms: N_4  and  C_5
REMARK    6  A    between atoms: C_8  and  C_9
REMARK    7  A    between atoms: C_12  and  C_13
REMARK                            x       y       z     vdW  Elec       q    Type
REMARK                         _______ _______ _______ _____ _____    ______ ____
ROOT
ATOM      1  C   UNL     1      44.746   2.885   9.558  0.00  0.00    +0.000 A 
ATOM      2  C   UNL     1      45.110   4.075   8.937  0.00  0.00    +0.000 A 
ATOM      3  C   UNL     1      45.981   4.080   7.842  0.00  0.00    +0.000 A 
ATOM      4  C   UNL     1      46.498   2.887   7.307  0.00  0.00    +0.000 A 
ATOM      5  C   UNL     1      46.158   1.672   7.917  0.00  0.00    +0.000 A 
ATOM      6  C   UNL     1      45.257   1.698   9.016  0.00  0.00    +0.000 A 
ENDROOT
BRANCH   4   7
ATOM      7  C   UNL     1      47.375   3.079   6.119  0.00  0.00    +0.000 C 
ATOM      8  N   UNL     1      48.716   2.878   6.246  0.00  0.00    +0.000 N 
ATOM      9  O   UNL     1      46.894   3.338   5.022  0.00  0.00    +0.000 OA
ATOM     10  H   UNL     1      49.210   2.842   7.127  0.00  0.00    +0.000 HD
ATOM     11  H   UNL     1      49.275   3.082   5.425  0.00  0.00    +0.000 HD
ENDBRANCH   4   7
BRANCH   5  12
ATOM     12  C   UNL     1      46.692   0.319   7.542  0.00  0.00    +0.000 C 
ATOM     13  F   UNL     1      46.048  -0.751   8.072  0.00  0.00    +0.000 F 
ATOM     14  F   UNL     1      46.671   0.114   6.193  0.00  0.00    +0.000 F 
ATOM     15  F   UNL     1      47.996   0.170   7.912  0.00  0.00    +0.000 F 
ENDBRANCH   5  12
BRANCH   1  16
ATOM     16  N   UNL     1      43.820   2.794  10.602  0.00  0.00    +0.000 N 
ATOM     17  H   UNL     1      43.173   2.020  10.479  0.00  0.00    +0.000 HD
BRANCH  16  18
ATOM     18  C   UNL     1      44.270   2.943  11.977  0.00  0.00    +0.000 C 
BRANCH  18  20
ATOM     19  C   UNL     1      42.838   5.106  11.997  0.00  0.00    +0.000 C 
ATOM     20  C   UNL     1      44.064   4.360  12.429  0.00  0.00    +0.000 C 
BRANCH  20  21
ATOM     21  C   UNL     1      45.299   5.149  12.577  0.00  0.00    +0.000 A 
ATOM     22  C   UNL     1      46.175   4.894  13.634  0.00  0.00    +0.000 A 
ATOM     23  C   UNL     1      47.364   5.618  13.746  0.00  0.00    +0.000 A 
ATOM     24  C   UNL     1      47.682   6.593  12.801  0.00  0.00    +0.000 A 
ATOM     25  C   UNL     1      46.810   6.851  11.743  0.00  0.00    +0.000 A 
ATOM     26  C   UNL     1      45.618   6.137  11.636  0.00  0.00    +0.000 A 
ENDBRANCH  20  21
ENDBRANCH  18  20
ENDBRANCH  16  18
ENDBRANCH   1  16
TORSDOF 6
ENDMDL
MODEL 5
REMARK VINA RESULT:    -7.355      1.733      2.405
REMARK INTER + INTRA:         -10.659
REMARK INTER:                  -9.395
REMARK INTRA:                  -1.264
REMARK UNBOUND:                -0.724
REMARK  Name = 
REMARK  7 active torsions:
REMARK  status: ('A' for Active; 'I' for Inactive)
REMARK    1  A    between atoms: C_1  and  C_2
REMARK    2  A    between atoms: C_2  and  C_3
REMARK    3  A    between atoms: C_2  and  C_18
REMARK    4  A    between atoms: C_3  and  N_4
REMARK    5  A    between atoms: N_4  and  C_5
REMARK    6  A    between atoms: C_8  and  C_9
REMARK    7  A    between atoms: C_12  and  C_13
REMARK                            x       y       z     vdW  Elec       q    Type
REMARK                         _______ _______ _______ _____ _____    ______ ____
ROOT
ATOM      1  C   UNL     1      45.120   6.030  12.724  0.00  0.00    +0.000 A 
ATOM      2  C   UNL     1      46.051   5.154  13.272  0.00  0.00    +0.000 A 
ATOM      3  C   UNL     1      47.364   5.564  13.526  0.00  0.00    +0.000 A 
ATOM      4  C   UNL     1      47.788   6.879  13.268  0.00  0.00    +0.000 A 
ATOM      5  C   UNL     1      46.877   7.783  12.707  0.00  0.00    +0.000 A 
ATOM      6  C   UNL     1      45.545   7.343  12.477  0.00  0.00    +0.000 A 
ENDROOT
BRANCH   4   7
ATOM      7  C   UNL     1      49.206   7.149  13.637  0.00  0.00    +0.000 C 
ATOM      8  N   UNL     1      50.146   7.209  12.654  0.00  0.00    +0.000 N 
ATOM      9  O   UNL     1      49.515   7.390  14.798  0.00  0.00    +0.000 OA
ATOM     10  H   UNL     1      50.020   6.854  11.717  0.00  0.00    +0.000 HD
ATOM     11  H   UNL     1      51.104   7.333  12.963  0.00  0.00    +0.000 HD
ENDBRANCH   4   7
BRANCH   5  12
ATOM     12  C   UNL     1      47.183   9.189  12.277  0.00  0.00    +0.000 C 
ATOM     13  F   UNL     1      48.149   9.333  11.334  0.00  0.00    +0.000 F 
ATOM     14  F   UNL     1      46.088   9.820  11.763  0.00  0.00    +0.000 F 
ATOM     15  F   UNL     1      47.589   9.962  13.325  0.00  0.00    +0.000 F 
ENDBRANCH   5  12
BRANCH   1  16
ATOM     16  N   UNL     1      43.773   5.718  12.519  0.00  0.00    +0.000 N 
ATOM     17  H   UNL     1      43.149   6.355  13.008  0.00  0.00    +0.000 HD
BRANCH  16  18
ATOM     18  C   UNL     1      43.307   5.386  11.181  0.00  0.00    +0.000 C 
BRANCH  18  20
ATOM     19  C   UNL     1      43.401   2.950  12.067  0.00  0.00    +0.000 C 
ATOM     20  C   UNL     1      43.493   3.918  10.926  0.00  0.00    +0.000 C 
BRANCH  20  21
ATOM     21  C   UNL     1      44.454   3.590   9.860  0.00  0.00    +0.000 A 
ATOM     22  C   UNL     1      44.719   2.258   9.539  0.00  0.00    +0.000 A 
ATOM     23  C   UNL     1      45.600   1.951   8.499  0.00  0.00    +0.000 A 
ATOM     24  C   UNL     1      46.212   2.975   7.776  0.00  0.00    +0.000 A 
ATOM     25  C   UNL     1      45.949   4.307   8.093  0.00  0.00    +0.000 A 
ATOM     26  C   UNL     1      45.079   4.614   9.137  0.00  0.00    +0.000 A 
ENDBRANCH  20  21
ENDBRANCH  18  20
ENDBRANCH  16  18
ENDBRANCH   1  16
TORSDOF 6
ENDMDL
MODEL 6
REMARK VINA RESULT:    -6.925      2.234      2.917
REMARK INTER + INTRA:         -10.078
REMARK INTER:                  -8.941
REMARK INTRA:                  -1.137
REMARK UNBOUND:                -0.724
REMARK  Name = 
REMARK  7 active torsions:
REMARK  status: ('A' for Active; 'I' for Inactive)
REMARK    1  A    between atoms: C_1  and  C_2
REMARK    2  A    between atoms: C_2  and  C_3
REMARK    3  A    between atoms: C_2  and  C_18
REMARK    4  A    between atoms: C_3  and  N_4
REMARK    5  A    between atoms: N_4  and  C_5
REMARK    6  A    between atoms: C_8  and  C_9
REMARK    7  A    between atoms: C_12  and  C_13
REMARK                            x       y       z     vdW  Elec       q    Type
REMARK                         _______ _______ _______ _____ _____    ______ ____
ROOT
ATOM      1  C   UNL     1      44.741   6.753  12.223  0.00  0.00    +0.000 A 
ATOM      2  C   UNL     1      44.650   8.027  11.671  0.00  0.00    +0.000 A 
ATOM      3  C   UNL     1      45.707   8.937  11.778  0.00  0.00    +0.000 A 
ATOM      4  C   UNL     1      46.911   8.595  12.416  0.00  0.00    +0.000 A 
ATOM      5  C   UNL     1      47.031   7.323  12.991  0.00  0.00    +0.000 A 
ATOM      6  C   UNL     1      45.948   6.414  12.851  0.00  0.00    +0.000 A 
ENDROOT
BRANCH   4   7
ATOM      7  C   UNL     1      47.940   9.672  12.401  0.00  0.00    +0.000 C 
ATOM      8  N   UNL     1      47.845  10.693  13.297  0.00  0.00    +0.000 N 
ATOM      9  O   UNL     1      48.904   9.605  11.646  0.00  0.00    +0.000 OA
ATOM     10  H   UNL     1      47.011  10.921  13.819  0.00  0.00    +0.000 HD
ATOM     11  H   UNL     1      48.533  11.431  13.203  0.00  0.00    +0.000 HD
ENDBRANCH   4   7
BRANCH   5  12
ATOM     12  C   UNL     1      48.201   6.826  13.793  0.00  0.00    +0.000 C 
ATOM     13  F   UNL     1      49.358   6.632  13.111  0.00  0.00    +0.000 F 
ATOM     14  F   UNL     1      48.526   7.677  14.809  0.00  0.00    +0.000 F 
ATOM     15  F   UNL     1      47.934   5.630  14.391  0.00  0.00    +0.000 F 
ENDBRANCH   5  12
BRANCH   1  16
ATOM     16  N   UNL     1      43.762   5.765  12.087  0.00  0.00    +0.000 N 
ATOM     17  H   UNL     1      42.954   5.938  12.678  0.00  0.00    +0.000 HD
BRANCH  16  18
ATOM     18  C   UNL     1      43.402   5.288  10.760  0.00  0.00    +0.000 C 
BRANCH  18  20
ATOM     19  C   UNL     1      43.624   2.968  11.898  0.00  0.00    +0.000 C 
ATOM     20  C   UNL     1      43.664   3.813  10.661  0.00  0.00    +0.000 C 
BRANCH  20  21
ATOM     21  C   UNL     1      44.640   3.424   9.629  0.00  0.00    +0.000 A 
ATOM     22  C   UNL     1      44.914   2.075   9.394  0.00  0.00    +0.000 A 
ATOM     23  C   UNL     1      45.809   1.710   8.386  0.00  0.00    +0.000 A 
ATOM     24  C   UNL     1      46.427   2.689   7.609  0.00  0.00    +0.000 A 
ATOM     25  C   UNL     1      46.155   4.038   7.839  0.00  0.00    +0.000 A 
ATOM     26  C   UNL     1      45.270   4.405   8.852  0.00  0.00    +0.000 A 
ENDBRANCH  20  21
ENDBRANCH  18  20
ENDBRANCH  16  18
ENDBRANCH   1  16
TORSDOF 6
ENDMDL
MODEL 7
REMARK VINA RESULT:    -6.908      2.160      3.040
REMARK INTER + INTRA:         -10.054
REMARK INTER:                  -9.112
REMARK INTRA:                  -0.942
REMARK UNBOUND:                -0.724
REMARK  Name = 
REMARK  7 active torsions:
REMARK  status: ('A' for Active; 'I' for Inactive)
REMARK    1  A    between atoms: C_1  and  C_2
REMARK    2  A    between atoms: C_2  and  C_3
REMARK    3  A    between atoms: C_2  and  C_18
REMARK    4  A    between atoms: C_3  and  N_4
REMARK    5  A    between atoms: N_4  and  C_5
REMARK    6  A    between atoms: C_8  and  C_9
REMARK    7  A    between atoms: C_12  and  C_13
REMARK                            x       y       z     vdW  Elec       q    Type
REMARK                         _______ _______ _______ _____ _____    ______ ____
ROOT
ATOM      1  C   UNL     1      46.370   5.938  12.521  0.00  0.00    +0.000 A 
ATOM      2  C   UNL     1      46.939   6.645  11.466  0.00  0.00    +0.000 A 
ATOM      3  C   UNL     1      48.119   7.377  11.643  0.00  0.00    +0.000 A 
ATOM      4  C   UNL     1      48.792   7.403  12.877  0.00  0.00    +0.000 A 
ATOM      5  C   UNL     1      48.238   6.708  13.961  0.00  0.00    +0.000 A 
ATOM      6  C   UNL     1      47.049   5.960  13.747  0.00  0.00    +0.000 A 
ENDROOT
BRANCH   4   7
ATOM      7  C   UNL     1      50.051   8.198  12.871  0.00  0.00    +0.000 C 
ATOM      8  N   UNL     1      51.130   7.726  12.187  0.00  0.00    +0.000 N 
ATOM      9  O   UNL     1      50.098   9.298  13.409  0.00  0.00    +0.000 OA
ATOM     10  H   UNL     1      51.239   6.771  11.877  0.00  0.00    +0.000 HD
ATOM     11  H   UNL     1      51.980   8.273  12.267  0.00  0.00    +0.000 HD
ENDBRANCH   4   7
BRANCH   5  12
ATOM     12  C   UNL     1      48.766   6.707  15.367  0.00  0.00    +0.000 C 
ATOM     13  F   UNL     1      48.263   5.759  16.198  0.00  0.00    +0.000 F 
ATOM     14  F   UNL     1      50.119   6.534  15.409  0.00  0.00    +0.000 F 
ATOM     15  F   UNL     1      48.532   7.894  15.997  0.00  0.00    +0.000 F 
ENDBRANCH   5  12
BRANCH   1  16
ATOM     16  N   UNL     1      45.242   5.121  12.400  0.00  0.00    +0.000 N 
ATOM     17  H   UNL     1      44.759   4.996  13.286  0.00  0.00    +0.000 HD
BRANCH  16  18
ATOM     18  C   UNL     1      44.332   5.312  11.281  0.00  0.00    +0.000 C 
BRANCH  18  20
ATOM     19  C   UNL     1      43.375   2.924  11.614  0.00  0.00    +0.000 C 
ATOM     20  C   UNL     1      43.939   3.980  10.711  0.00  0.00    +0.000 C 
BRANCH  20  21
ATOM     21  C   UNL     1      44.775   3.512   9.593  0.00  0.00    +0.000 A 
ATOM     22  C   UNL     1      45.394   4.433   8.745  0.00  0.00    +0.000 A 
ATOM     23  C   UNL     1      46.219   3.985   7.710  0.00  0.00    +0.000 A 
ATOM     24  C   UNL     1      46.430   2.619   7.524  0.00  0.00    +0.000 A 
ATOM     25  C   UNL     1      45.814   1.696   8.369  0.00  0.00    +0.000 A 
ATOM     26  C   UNL     1      44.982   2.141   9.396  0.00  0.00    +0.000 A 
ENDBRANCH  20  21
ENDBRANCH  18  20
ENDBRANCH  16  18
ENDBRANCH   1  16
TORSDOF 6
ENDMDL
MODEL 8
REMARK VINA RESULT:    -6.869      2.815      3.658
REMARK INTER + INTRA:         -10.002
REMARK INTER:                  -9.213
REMARK INTRA:                  -0.789
REMARK UNBOUND:                -0.724
REMARK  Name = 
REMARK  7 active torsions:
REMARK  status: ('A' for Active; 'I' for Inactive)
REMARK    1  A    between atoms: C_1  and  C_2
REMARK    2  A    between atoms: C_2  and  C_3
REMARK    3  A    between atoms: C_2  and  C_18
REMARK    4  A    between atoms: C_3  and  N_4
REMARK    5  A    between atoms: N_4  and  C_5
REMARK    6  A    between atoms: C_8  and  C_9
REMARK    7  A    between atoms: C_12  and  C_13
REMARK                            x       y       z     vdW  Elec       q    Type
REMARK                         _______ _______ _______ _____ _____    ______ ____
ROOT
ATOM      1  C   UNL     1      46.618   4.829  13.512  0.00  0.00    +0.000 A 
ATOM      2  C   UNL     1      47.358   5.967  13.206  0.00  0.00    +0.000 A 
ATOM      3  C   UNL     1      48.194   6.560  14.159  0.00  0.00    +0.000 A 
ATOM      4  C   UNL     1      48.346   6.017  15.446  0.00  0.00    +0.000 A 
ATOM      5  C   UNL     1      47.607   4.876  15.787  0.00  0.00    +0.000 A 
ATOM      6  C   UNL     1      46.780   4.286  14.794  0.00  0.00    +0.000 A 
ENDROOT
BRANCH   4   7
ATOM      7  C   UNL     1      49.306   6.755  16.313  0.00  0.00    +0.000 C 
ATOM      8  N   UNL     1      48.838   7.733  17.137  0.00  0.00    +0.000 N 
ATOM      9  O   UNL     1      50.490   6.439  16.345  0.00  0.00    +0.000 OA
ATOM     10  H   UNL     1      47.934   8.174  17.048  0.00  0.00    +0.000 HD
ATOM     11  H   UNL     1      49.539   8.246  17.659  0.00  0.00    +0.000 HD
ENDBRANCH   4   7
BRANCH   5  12
ATOM     12  C   UNL     1      47.570   4.223  17.140  0.00  0.00    +0.000 C 
ATOM     13  F   UNL     1      47.087   4.978  18.159  0.00  0.00    +0.000 F 
ATOM     14  F   UNL     1      46.809   3.091  17.144  0.00  0.00    +0.000 F 
ATOM     15  F   UNL     1      48.811   3.829  17.545  0.00  0.00    +0.000 F 
ENDBRANCH   5  12
BRANCH   1  16
ATOM     16  N   UNL     1      45.827   4.136  12.591  0.00  0.00    +0.000 N 
ATOM     17  H   UNL     1      45.272   3.406  13.030  0.00  0.00    +0.000 HD
BRANCH  16  18
ATOM     18  C   UNL     1      45.091   4.874  11.575  0.00  0.00    +0.000 C 
BRANCH  18  20
ATOM     19  C   UNL     1      43.399   2.928  11.298  0.00  0.00    +0.000 C 
ATOM     20  C   UNL     1      44.348   3.916  10.690  0.00  0.00    +0.000 C 
BRANCH  20  21
ATOM     21  C   UNL     1      45.087   3.472   9.497  0.00  0.00    +0.000 A 
ATOM     22  C   UNL     1      45.624   4.409   8.613  0.00  0.00    +0.000 A 
ATOM     23  C   UNL     1      46.360   3.983   7.504  0.00  0.00    +0.000 A 
ATOM     24  C   UNL     1      46.564   2.622   7.281  0.00  0.00    +0.000 A 
ATOM     25  C   UNL     1      46.030   1.682   8.162  0.00  0.00    +0.000 A 
ATOM     26  C   UNL     1      45.287   2.105   9.262  0.00  0.00    +0.000 A 
ENDBRANCH  20  21
ENDBRANCH  18  20
ENDBRANCH  16  18
ENDBRANCH   1  16
TORSDOF 6
ENDMDL
MODEL 9
REMARK VINA RESULT:    -6.731      1.573      2.541
REMARK INTER + INTRA:          -9.816
REMARK INTER:                  -8.938
REMARK INTRA:                  -0.878
REMARK UNBOUND:                -0.724
REMARK  Name = 
REMARK  7 active torsions:
REMARK  status: ('A' for Active; 'I' for Inactive)
REMARK    1  A    between atoms: C_1  and  C_2
REMARK    2  A    between atoms: C_2  and  C_3
REMARK    3  A    between atoms: C_2  and  C_18
REMARK    4  A    between atoms: C_3  and  N_4
REMARK    5  A    between atoms: N_4  and  C_5
REMARK    6  A    between atoms: C_8  and  C_9
REMARK    7  A    between atoms: C_12  and  C_13
REMARK                            x       y       z     vdW  Elec       q    Type
REMARK                         _______ _______ _______ _____ _____    ______ ____
ROOT
ATOM      1  C   UNL     1      46.393   4.166  13.485  0.00  0.00    +0.000 A 
ATOM      2  C   UNL     1      46.771   4.075  14.821  0.00  0.00    +0.000 A 
ATOM      3  C   UNL     1      47.634   5.017  15.391  0.00  0.00    +0.000 A 
ATOM      4  C   UNL     1      48.128   6.106  14.653  0.00  0.00    +0.000 A 
ATOM      5  C   UNL     1      47.773   6.221  13.303  0.00  0.00    +0.000 A 
ATOM      6  C   UNL     1      46.881   5.259  12.755  0.00  0.00    +0.000 A 
ENDROOT
BRANCH   4   7
ATOM      7  C   UNL     1      48.999   7.030  15.432  0.00  0.00    +0.000 C 
ATOM      8  N   UNL     1      48.434   8.088  16.078  0.00  0.00    +0.000 N 
ATOM      9  O   UNL     1      50.197   6.802  15.557  0.00  0.00    +0.000 OA
ATOM     10  H   UNL     1      47.511   8.448  15.888  0.00  0.00    +0.000 HD
ATOM     11  H   UNL     1      49.078   8.719  16.540  0.00  0.00    +0.000 HD
ENDBRANCH   4   7
BRANCH   5  12
ATOM     12  C   UNL     1      48.283   7.259  12.344  0.00  0.00    +0.000 C 
ATOM     13  F   UNL     1      48.031   8.553  12.667  0.00  0.00    +0.000 F 
ATOM     14  F   UNL     1      49.637   7.190  12.184  0.00  0.00    +0.000 F 
ATOM     15  F   UNL     1      47.761   7.095  11.095  0.00  0.00    +0.000 F 
ENDBRANCH   5  12
BRANCH   1  16
ATOM     16  N   UNL     1      45.474   3.313  12.868  0.00  0.00    +0.000 N 
ATOM     17  H   UNL     1      45.561   2.352  13.190  0.00  0.00    +0.000 HD
BRANCH  16  18
ATOM     18  C   UNL     1      44.089   3.735  12.718  0.00  0.00    +0.000 C 
BRANCH  18  20
ATOM     19  C   UNL     1      42.757   5.499  11.360  0.00  0.00    +0.000 C 
ATOM     20  C   UNL     1      43.952   4.605  11.502  0.00  0.00    +0.000 C 
BRANCH  20  21
ATOM     21  C   UNL     1      44.494   4.027  10.261  0.00  0.00    +0.000 A 
ATOM     22  C   UNL     1      45.256   4.813   9.394  0.00  0.00    +0.000 A 
ATOM     23  C   UNL     1      45.802   4.249   8.238  0.00  0.00    +0.000 A 
ATOM     24  C   UNL     1      45.592   2.901   7.950  0.00  0.00    +0.000 A 
ATOM     25  C   UNL     1      44.832   2.113   8.814  0.00  0.00    +0.000 A 
ATOM     26  C   UNL     1      44.277   2.676   9.962  0.00  0.00    +0.000 A 
ENDBRANCH  20  21
ENDBRANCH  18  20
ENDBRANCH  16  18
ENDBRANCH   1  16
TORSDOF 6
ENDMDL
