MODEL 1
REMARK VINA RESULT:    -8.411      0.000      0.000
REMARK INTER + INTRA:         -10.405
REMARK INTER:                  -9.886
REMARK INTRA:                  -0.519
REMARK UNBOUND:                -0.519
REMARK  Name = 
REMARK  3 active torsions:
REMARK  status: ('A' for Active; 'I' for Inactive)
REMARK    1  A    between atoms: C_2  and  C_4
REMARK    2  A    between atoms: N_8  and  C_9
REMARK    3  A    between atoms: C_9  and  C_10
REMARK                            x       y       z     vdW  Elec       q    Type
REMARK                         _______ _______ _______ _____ _____    ______ ____
ROOT
ATOM      1  C   UNL     1      46.540   2.681   7.512  0.00  0.00    +0.000 A 
ATOM      2  C   UNL     1      46.243   4.028   7.690  0.00  0.00    +0.000 A 
ATOM      3  C   UNL     1      45.369   4.407   8.715  0.00  0.00    +0.000 A 
ATOM      4  C   UNL     1      44.804   3.438   9.532  0.00  0.00    +0.000 A 
ATOM      5  N   UNL     1      43.865   3.727  10.521  0.00  0.00    +0.000 N 
ATOM      6  N   UNL     1      45.068   2.126   9.351  0.00  0.00    +0.000 NA
ATOM      7  C   UNL     1      45.920   1.772   8.348  0.00  0.00    +0.000 A 
ATOM      8  H   UNL     1      43.655   2.845  10.992  0.00  0.00    +0.000 HD
ENDROOT
BRANCH   1  10
ATOM      9  N   UNL     1      47.757   3.045   5.441  0.00  0.00    +0.000 N 
ATOM     10  C   UNL     1      47.458   2.188   6.467  0.00  0.00    +0.000 C 
ATOM     11  O   UNL     1      47.963   1.078   6.525  0.00  0.00    +0.000 OA
ATOM     12  H   UNL     1      48.462   2.733   4.791  0.00  0.00    +0.000 HD
ATOM     13  H   UNL     1      47.560   4.036   5.486  0.00  0.00    +0.000 HD
ENDBRANCH   1  10
BRANCH   5  14
ATOM     14  C   UNL     1      43.887   4.913  11.403  0.00  0.00    +0.000 C 
ATOM     15  C   UNL     1      42.551   5.155  12.104  0.00  0.00    +0.000 C 
ATOM     16  C   UNL     1      43.082   6.182  11.164  0.00  0.00    +0.000 C 
BRANCH  14  17
ATOM     17  C   UNL     1      45.173   5.098  12.230  0.00  0.00    +0.000 A 
ATOM     18  C   UNL     1      46.043   6.157  11.950  0.00  0.00    +0.000 A 
ATOM     19  C   UNL     1      47.112   6.424  12.802  0.00  0.00    +0.000 A 
ATOM     20  C   UNL     1      47.312   5.616  13.910  0.00  0.00    +0.000 A 
ATOM     21  C   UNL     1      46.444   4.557  14.104  0.00  0.00    +0.000 A 
ATOM     22  N   UNL     1      45.394   4.282  13.296  0.00  0.00    +0.000 NA
ENDBRANCH  14  17
ENDBRANCH   5  14
TORSDOF 3
ENDMDL
MODEL 2
REMARK VINA RESULT:    -6.474      3.204      6.231
REMARK INTER + INTRA:          -8.128
REMARK INTER:                  -7.888
REMARK INTRA:                  -0.239
REMARK UNBOUND:                -0.519
REMARK  Name = 
REMARK  3 active torsions:
REMARK  status: ('A' for Active; 'I' for Inactive)
REMARK    1  A    between atoms: C_2  and  C_4
REMARK    2  A    between atoms: N_8  and  C_9
REMARK    3  A    between atoms: C_9  and  C_10
REMARK                            x       y       z     vdW  Elec       q    Type
REMARK                         _______ _______ _______ _____ _____    ______ ____
ROOT
ATOM      1  C   UNL     1      48.139   6.564  13.825  0.00  0.00    +0.000 A 
ATOM      2  C   UNL     1      47.290   5.513  14.157  0.00  0.00    +0.000 A 
ATOM      3  C   UNL     1      46.290   5.130  13.257  0.00  0.00    +0.000 A 
ATOM      4  C   UNL     1      46.151   5.806  12.054  0.00  0.00    +0.000 A 
ATOM      5  N   UNL     1      45.132   5.537  11.141  0.00  0.00    +0.000 N 
ATOM      6  N   UNL     1      46.955   6.843  11.733  0.00  0.00    +0.000 NA
ATOM      7  C   UNL     1      47.924   7.206  12.620  0.00  0.00    +0.000 A 
ATOM      8  H   UNL     1      45.292   6.143  10.335  0.00  0.00    +0.000 HD
ENDROOT
BRANCH   1  10
ATOM      9  N   UNL     1      50.397   7.415  14.102  0.00  0.00    +0.000 N 
ATOM     10  C   UNL     1      49.228   7.031  14.704  0.00  0.00    +0.000 C 
ATOM     11  O   UNL     1      49.090   7.110  15.914  0.00  0.00    +0.000 OA
ATOM     12  H   UNL     1      51.095   7.827  14.704  0.00  0.00    +0.000 HD
ATOM     13  H   UNL     1      50.464   7.596  13.109  0.00  0.00    +0.000 HD
ENDBRANCH   1  10
BRANCH   5  14
ATOM     14  C   UNL     1      44.606   4.195  10.815  0.00  0.00    +0.000 C 
ATOM     15  C   UNL     1      43.104   4.069  11.067  0.00  0.00    +0.000 C 
ATOM     16  C   UNL     1      44.050   3.213  11.836  0.00  0.00    +0.000 C 
BRANCH  14  17
ATOM     17  C   UNL     1      45.173   3.557   9.533  0.00  0.00    +0.000 A 
ATOM     18  C   UNL     1      45.676   4.365   8.509  0.00  0.00    +0.000 A 
ATOM     19  C   UNL     1      46.341   3.789   7.429  0.00  0.00    +0.000 A 
ATOM     20  C   UNL     1      46.474   2.410   7.375  0.00  0.00    +0.000 A 
ATOM     21  C   UNL     1      45.913   1.665   8.397  0.00  0.00    +0.000 A 
ATOM     22  N   UNL     1      45.271   2.202   9.459  0.00  0.00    +0.000 NA
ENDBRANCH  14  17
ENDBRANCH   5  14
TORSDOF 3
ENDMDL
MODEL 3
REMARK VINA RESULT:    -6.083      3.013      6.257
REMARK INTER + INTRA:          -7.669
REMARK INTER:                  -8.065
REMARK INTRA:                   0.396
REMARK UNBOUND:                -0.519
REMARK  Name = 
REMARK  3 active torsions:
REMARK  status: ('A' for Active; 'I' for Inactive)
REMARK    1  A    between atoms: C_2  and  C_4
REMARK    2  A    between atoms: N_8  and  C_9
REMARK    3  A    between atoms: C_9  and  C_10
REMARK                            x       y       z     vdW  Elec       q    Type
REMARK                         _______ _______ _______ _____ _____    ______ ____
ROOT
ATOM      1  C   UNL     1      47.902   5.929  14.522  0.00  0.00    +0.000 A 
ATOM      2  C   UNL     1      47.534   6.159  13.200  0.00  0.00    +0.000 A 
ATOM      3  C   UNL     1      46.748   5.212  12.535  0.00  0.00    +0.000 A 
ATOM      4  C   UNL     1      46.355   4.056  13.194  0.00  0.00    +0.000 A 
ATOM      5  N   UNL     1      45.640   3.032  12.577  0.00  0.00    +0.000 N 
ATOM      6  N   UNL     1      46.729   3.814  14.469  0.00  0.00    +0.000 NA
ATOM      7  C   UNL     1      47.495   4.744  15.105  0.00  0.00    +0.000 A 
ATOM      8  H   UNL     1      45.450   2.332  13.296  0.00  0.00    +0.000 HD
ENDROOT
BRANCH   1  10
ATOM      9  N   UNL     1      48.085   7.975  15.819  0.00  0.00    +0.000 N 
ATOM     10  C   UNL     1      48.719   6.874  15.308  0.00  0.00    +0.000 C 
ATOM     11  O   UNL     1      49.903   6.672  15.530  0.00  0.00    +0.000 OA
ATOM     12  H   UNL     1      48.631   8.557  16.438  0.00  0.00    +0.000 HD
ATOM     13  H   UNL     1      47.077   8.050  15.866  0.00  0.00    +0.000 HD
ENDBRANCH   1  10
BRANCH   5  14
ATOM     14  C   UNL     1      44.558   3.217  11.588  0.00  0.00    +0.000 C 
ATOM     15  C   UNL     1      43.492   4.209  12.054  0.00  0.00    +0.000 C 
ATOM     16  C   UNL     1      43.112   2.791  11.799  0.00  0.00    +0.000 C 
BRANCH  14  17
ATOM     17  C   UNL     1      45.011   3.292  10.118  0.00  0.00    +0.000 A 
ATOM     18  C   UNL     1      45.250   4.533   9.518  0.00  0.00    +0.000 A 
ATOM     19  C   UNL     1      45.820   4.596   8.249  0.00  0.00    +0.000 A 
ATOM     20  C   UNL     1      46.124   3.417   7.586  0.00  0.00    +0.000 A 
ATOM     21  C   UNL     1      45.820   2.223   8.215  0.00  0.00    +0.000 A 
ATOM     22  N   UNL     1      45.274   2.137   9.449  0.00  0.00    +0.000 NA
ENDBRANCH  14  17
ENDBRANCH   5  14
TORSDOF 3
ENDMDL
MODEL 4
REMARK VINA RESULT:    -5.530      4.643      7.653
REMARK INTER + INTRA:          -7.019
REMARK INTER:                  -7.234
REMARK INTRA:                   0.215
REMARK UNBOUND:                -0.519
REMARK  Name = 
REMARK  3 active torsions:
REMARK  status: ('A' for Active; 'I' for Inactive)
REMARK    1  A    between atoms: C_2  and  C_4
REMARK    2  A    between atoms: N_8  and  C_9
REMARK    3  A    between atoms: C_9  and  C_10
REMARK                            x       y       z     vdW  Elec       q    Type
REMARK                         _______ _______ _______ _____ _____    ______ ____
ROOT
ATOM      1  C   UNL     1      48.300   4.367  17.563  0.00  0.00    +0.000 A 
ATOM      2  C   UNL     1      48.415   5.620  16.969  0.00  0.00    +0.000 A 
ATOM      3  C   UNL     1      48.035   5.780  15.632  0.00  0.00    +0.000 A 
ATOM      4  C   UNL     1      47.562   4.691  14.915  0.00  0.00    +0.000 A 
ATOM      5  N   UNL     1      47.240   4.751  13.560  0.00  0.00    +0.000 N 
ATOM      6  N   UNL     1      47.471   3.466  15.476  0.00  0.00    +0.000 NA
ATOM      7  C   UNL     1      47.845   3.324  16.779  0.00  0.00    +0.000 A 
ATOM      8  H   UNL     1      46.881   3.831  13.302  0.00  0.00    +0.000 HD
ENDROOT
BRANCH   1  10
ATOM      9  N   UNL     1      48.242   2.921  19.515  0.00  0.00    +0.000 N 
ATOM     10  C   UNL     1      48.664   4.104  18.969  0.00  0.00    +0.000 C 
ATOM     11  O   UNL     1      49.344   4.886  19.615  0.00  0.00    +0.000 OA
ATOM     12  H   UNL     1      48.583   2.709  20.441  0.00  0.00    +0.000 HD
ATOM     13  H   UNL     1      47.898   2.155  18.951  0.00  0.00    +0.000 HD
ENDBRANCH   1  10
BRANCH   5  14
ATOM     14  C   UNL     1      46.578   5.888  12.887  0.00  0.00    +0.000 C 
ATOM     15  C   UNL     1      47.527   6.681  11.989  0.00  0.00    +0.000 C 
ATOM     16  C   UNL     1      46.888   7.353  13.156  0.00  0.00    +0.000 C 
BRANCH  14  17
ATOM     17  C   UNL     1      45.160   5.605  12.355  0.00  0.00    +0.000 A 
ATOM     18  C   UNL     1      44.971   5.227  11.022  0.00  0.00    +0.000 A 
ATOM     19  C   UNL     1      43.715   4.807  10.588  0.00  0.00    +0.000 A 
ATOM     20  C   UNL     1      42.659   4.794  11.485  0.00  0.00    +0.000 A 
ATOM     21  C   UNL     1      42.902   5.225  12.777  0.00  0.00    +0.000 A 
ATOM     22  N   UNL     1      44.113   5.628  13.224  0.00  0.00    +0.000 NA
ENDBRANCH  14  17
ENDBRANCH   5  14
TORSDOF 3
ENDMDL
MODEL 5
REMARK VINA RESULT:    -5.489      3.062      5.256
REMARK INTER + INTRA:          -6.970
REMARK INTER:                  -7.054
REMARK INTRA:                   0.084
REMARK UNBOUND:                -0.519
REMARK  Name = 
REMARK  3 active torsions:
REMARK  status: ('A' for Active; 'I' for Inactive)
REMARK    1  A    between atoms: C_2  and  C_4
REMARK    2  A    between atoms: N_8  and  C_9
REMARK    3  A    between atoms: C_9  and  C_10
REMARK                            x       y       z     vdW  Elec       q    Type
REMARK                         _______ _______ _______ _____ _____    ______ ____
ROOT
ATOM      1  C   UNL     1      44.843   4.992  11.038  0.00  0.00    +0.000 A 
ATOM      2  C   UNL     1      45.885   5.793  10.579  0.00  0.00    +0.000 A 
ATOM      3  C   UNL     1      46.586   6.591  11.489  0.00  0.00    +0.000 A 
ATOM      4  C   UNL     1      46.231   6.584  12.830  0.00  0.00    +0.000 A 
ATOM      5  N   UNL     1      46.827   7.409  13.782  0.00  0.00    +0.000 N 
ATOM      6  N   UNL     1      45.205   5.829  13.280  0.00  0.00    +0.000 NA
ATOM      7  C   UNL     1      44.530   5.057  12.383  0.00  0.00    +0.000 A 
ATOM      8  H   UNL     1      46.409   7.167  14.682  0.00  0.00    +0.000 HD
ENDROOT
BRANCH   1  10
ATOM      9  N   UNL     1      44.076   4.384   8.816  0.00  0.00    +0.000 N 
ATOM     10  C   UNL     1      44.055   4.110  10.157  0.00  0.00    +0.000 C 
ATOM     11  O   UNL     1      43.437   3.151  10.593  0.00  0.00    +0.000 OA
ATOM     12  H   UNL     1      43.616   3.714   8.216  0.00  0.00    +0.000 HD
ATOM     13  H   UNL     1      44.757   5.003   8.397  0.00  0.00    +0.000 HD
ENDBRANCH   1  10
BRANCH   5  14
ATOM     14  C   UNL     1      48.262   7.757  13.836  0.00  0.00    +0.000 C 
ATOM     15  C   UNL     1      48.516   9.255  13.676  0.00  0.00    +0.000 C 
ATOM     16  C   UNL     1      49.063   8.308  12.664  0.00  0.00    +0.000 C 
BRANCH  14  17
ATOM     17  C   UNL     1      49.086   7.001  14.895  0.00  0.00    +0.000 A 
ATOM     18  C   UNL     1      50.419   7.353  15.132  0.00  0.00    +0.000 A 
ATOM     19  C   UNL     1      51.109   6.788  16.202  0.00  0.00    +0.000 A 
ATOM     20  C   UNL     1      50.466   5.860  17.007  0.00  0.00    +0.000 A 
ATOM     21  C   UNL     1      49.163   5.520  16.690  0.00  0.00    +0.000 A 
ATOM     22  N   UNL     1      48.470   6.061  15.662  0.00  0.00    +0.000 NA
ENDBRANCH  14  17
ENDBRANCH   5  14
TORSDOF 3
ENDMDL
