MODEL 1
REMARK VINA RESULT:    -8.057      0.000      0.000
REMARK INTER + INTRA:         -12.528
REMARK INTER:                 -11.825
REMARK INTRA:                  -0.703
REMARK UNBOUND:                -0.703
REMARK  Name = 
REMARK  9 active torsions:
REMARK  status: ('A' for Active; 'I' for Inactive)
REMARK    1  A    between atoms: C_1  and  C_2
REMARK    2  A    between atoms: C_2  and  N_3
REMARK    3  A    between atoms: C_2  and  C_19
REMARK    4  A    between atoms: N_3  and  C_4
REMARK    5  A    between atoms: C_4  and  C_5
REMARK    6  A    between atoms: C_8  and  C_9
REMARK    7  A    between atoms: C_9  and  N_10
REMARK    8  A    between atoms: N_10  and  C_11
REMARK    9  A    between atoms: C_11  and  C_12
REMARK                            x       y       z     vdW  Elec       q    Type
REMARK                         _______ _______ _______ _____ _____    ______ ____
ROOT
ATOM      1  C   UNL     1      47.731   5.411  14.677  0.00  0.00    +0.000 C 
ENDROOT
BRANCH   1   2
ATOM      2  C   UNL     1      46.788   4.947  13.595  0.00  0.00    +0.000 A 
ATOM      3  C   UNL     1      46.234   5.841  12.677  0.00  0.00    +0.000 A 
ATOM      4  C   UNL     1      45.346   5.383  11.706  0.00  0.00    +0.000 A 
ATOM      5  C   UNL     1      45.025   4.028  11.674  0.00  0.00    +0.000 A 
ATOM      6  N   UNL     1      45.549   3.136  12.553  0.00  0.00    +0.000 NA
ATOM      7  C   UNL     1      46.413   3.612  13.481  0.00  0.00    +0.000 A 
BRANCH   5   8
ATOM      8  C   UNL     1      44.024   3.501  10.664  0.00  0.00    +0.000 C 
BRANCH   8   9
ATOM      9  N   UNL     1      44.559   3.392   9.296  0.00  0.00    +0.000 NA
ATOM     10  H   UNL     1      45.382   4.003   9.268  0.00  0.00    +0.000 HD
BRANCH   9  11
ATOM     11  C   UNL     1      45.011   2.036   8.997  0.00  0.00    +0.000 C 
BRANCH  11  12
ATOM     12  C   UNL     1      46.144   2.106   8.046  0.00  0.00    +0.000 A 
ATOM     13  C   UNL     1      46.674   3.138   7.302  0.00  0.00    +0.000 A 
ATOM     14  C   UNL     1      47.746   2.560   6.598  0.00  0.00    +0.000 A 
ATOM     15  N   UNL     1      47.898   1.262   6.875  0.00  0.00    +0.000 NA
ATOM     16  N   UNL     1      46.900   1.007   7.739  0.00  0.00    +0.000 N 
ATOM     17  H   UNL     1      46.769   0.057   8.073  0.00  0.00    +0.000 HD
ENDBRANCH  11  12
ENDBRANCH   9  11
ENDBRANCH   8   9
ENDBRANCH   5   8
ENDBRANCH   1   2
BRANCH   1  18
ATOM     18  N   UNL     1      47.250   5.029  16.003  0.00  0.00    +0.000 NA
ATOM     19  H   UNL     1      47.378   5.818  16.636  0.00  0.00    +0.000 HD
BRANCH  18  21
ATOM     20  C   UNL     1      47.052   2.955  17.395  0.00  0.00    +0.000 C 
ATOM     21  C   UNL     1      47.964   3.878  16.582  0.00  0.00    +0.000 C 
BRANCH  21  22
ATOM     22  C   UNL     1      49.072   4.437  17.463  0.00  0.00    +0.000 A 
ATOM     23  C   UNL     1      49.014   5.652  18.131  0.00  0.00    +0.000 A 
ATOM     24  S   UNL     1      50.436   6.016  19.004  0.00  0.00    +0.000 S 
ATOM     25  C   UNL     1      51.160   4.542  18.551  0.00  0.00    +0.000 A 
ATOM     26  N   UNL     1      52.409   4.214  18.972  0.00  0.00    +0.000 NA
ATOM     27  C   UNL     1      52.817   3.055  18.570  0.00  0.00    +0.000 A 
ATOM     28  N   UNL     1      52.087   2.194  17.788  0.00  0.00    +0.000 N 
ATOM     29  C   UNL     1      50.817   2.482  17.337  0.00  0.00    +0.000 A 
ATOM     30  O   UNL     1      50.180   1.688  16.654  0.00  0.00    +0.000 OA
ATOM     31  C   UNL     1      50.325   3.784  17.752  0.00  0.00    +0.000 A 
ATOM     32  H   UNL     1      52.460   1.296  17.523  0.00  0.00    +0.000 HD
ENDBRANCH  21  22
ENDBRANCH  18  21
ENDBRANCH   1  18
TORSDOF 8
ENDMDL
MODEL 2
REMARK VINA RESULT:    -7.895      1.226      1.499
REMARK INTER + INTRA:         -12.290
REMARK INTER:                 -11.458
REMARK INTRA:                  -0.833
REMARK UNBOUND:                -0.703
REMARK  Name = 
REMARK  9 active torsions:
REMARK  status: ('A' for Active; 'I' for Inactive)
REMARK    1  A    between atoms: C_1  and  C_2
REMARK    2  A    between atoms: C_2  and  N_3
REMARK    3  A    between atoms: C_2  and  C_19
REMARK    4  A    between atoms: N_3  and  C_4
REMARK    5  A    between atoms: C_4  and  C_5
REMARK    6  A    between atoms: C_8  and  C_9
REMARK    7  A    between atoms: C_9  and  N_10
REMARK    8  A    between atoms: N_10  and  C_11
REMARK    9  A    between atoms: C_11  and  C_12
REMARK                            x       y       z     vdW  Elec       q    Type
REMARK                         _______ _______ _______ _____ _____    ______ ____
ROOT
ATOM      1  C   UNL     1      47.893   6.007  14.782  0.00  0.00    +0.000 C 
ENDROOT
BRANCH   1   2
ATOM      2  C   UNL     1      46.978   5.341  13.786  0.00  0.00    +0.000 A 
ATOM      3  C   UNL     1      46.293   6.078  12.817  0.00  0.00    +0.000 A 
ATOM      4  C   UNL     1      45.435   5.434  11.928  0.00  0.00    +0.000 A 
ATOM      5  C   UNL     1      45.277   4.054  12.027  0.00  0.00    +0.000 A 
ATOM      6  N   UNL     1      45.930   3.312  12.958  0.00  0.00    +0.000 NA
ATOM      7  C   UNL     1      46.760   3.967  13.803  0.00  0.00    +0.000 A 
BRANCH   5   8
ATOM      8  C   UNL     1      44.313   3.325  11.110  0.00  0.00    +0.000 C 
BRANCH   8   9
ATOM      9  N   UNL     1      44.976   2.509  10.079  0.00  0.00    +0.000 NA
ATOM     10  H   UNL     1      44.439   1.638  10.021  0.00  0.00    +0.000 HD
BRANCH   9  11
ATOM     11  C   UNL     1      44.919   3.144   8.766  0.00  0.00    +0.000 C 
BRANCH  11  12
ATOM     12  C   UNL     1      46.019   2.614   7.927  0.00  0.00    +0.000 A 
ATOM     13  C   UNL     1      46.812   3.190   6.958  0.00  0.00    +0.000 A 
ATOM     14  C   UNL     1      47.672   2.159   6.537  0.00  0.00    +0.000 A 
ATOM     15  N   UNL     1      47.453   1.015   7.191  0.00  0.00    +0.000 NA
ATOM     16  N   UNL     1      46.431   1.312   8.012  0.00  0.00    +0.000 N 
ATOM     17  H   UNL     1      46.040   0.579   8.595  0.00  0.00    +0.000 HD
ENDBRANCH  11  12
ENDBRANCH   9  11
ENDBRANCH   8   9
ENDBRANCH   5   8
ENDBRANCH   1   2
BRANCH   1  18
ATOM     18  N   UNL     1      48.499   5.031  15.685  0.00  0.00    +0.000 NA
ATOM     19  H   UNL     1      47.850   4.254  15.806  0.00  0.00    +0.000 HD
BRANCH  18  21
ATOM     20  C   UNL     1      48.704   7.096  17.088  0.00  0.00    +0.000 C 
ATOM     21  C   UNL     1      48.800   5.569  17.023  0.00  0.00    +0.000 C 
BRANCH  21  22
ATOM     22  C   UNL     1      50.205   5.111  17.382  0.00  0.00    +0.000 A 
ATOM     23  C   UNL     1      51.257   5.958  17.701  0.00  0.00    +0.000 A 
ATOM     24  S   UNL     1      52.720   5.136  18.016  0.00  0.00    +0.000 S 
ATOM     25  C   UNL     1      51.986   3.618  17.779  0.00  0.00    +0.000 A 
ATOM     26  N   UNL     1      52.696   2.466  17.904  0.00  0.00    +0.000 NA
ATOM     27  C   UNL     1      52.000   1.392  17.719  0.00  0.00    +0.000 A 
ATOM     28  N   UNL     1      50.659   1.366  17.423  0.00  0.00    +0.000 N 
ATOM     29  C   UNL     1      49.898   2.506  17.286  0.00  0.00    +0.000 A 
ATOM     30  O   UNL     1      48.699   2.454  17.039  0.00  0.00    +0.000 OA
ATOM     31  C   UNL     1      50.644   3.739  17.469  0.00  0.00    +0.000 A 
ATOM     32  H   UNL     1      50.174   0.491  17.308  0.00  0.00    +0.000 HD
ENDBRANCH  21  22
ENDBRANCH  18  21
ENDBRANCH   1  18
TORSDOF 8
ENDMDL
MODEL 3
REMARK VINA RESULT:    -7.586      3.261      9.045
REMARK INTER + INTRA:         -11.837
REMARK INTER:                 -10.876
REMARK INTRA:                  -0.961
REMARK UNBOUND:                -0.703
REMARK  Name = 
REMARK  9 active torsions:
REMARK  status: ('A' for Active; 'I' for Inactive)
REMARK    1  A    between atoms: C_1  and  C_2
REMARK    2  A    between atoms: C_2  and  N_3
REMARK    3  A    between atoms: C_2  and  C_19
REMARK    4  A    between atoms: N_3  and  C_4
REMARK    5  A    between atoms: C_4  and  C_5
REMARK    6  A    between atoms: C_8  and  C_9
REMARK    7  A    between atoms: C_9  and  N_10
REMARK    8  A    between atoms: N_10  and  C_11
REMARK    9  A    between atoms: C_11  and  C_12
REMARK                            x       y       z     vdW  Elec       q    Type
REMARK                         _______ _______ _______ _____ _____    ______ ____
ROOT
ATOM      1  C   UNL     1      47.618   7.025  13.458  0.00  0.00    +0.000 C 
ENDROOT
BRANCH   1   2
ATOM      2  C   UNL     1      47.853   6.066  14.599  0.00  0.00    +0.000 A 
ATOM      3  C   UNL     1      47.159   4.857  14.691  0.00  0.00    +0.000 A 
ATOM      4  C   UNL     1      47.382   4.007  15.771  0.00  0.00    +0.000 A 
ATOM      5  C   UNL     1      48.302   4.385  16.747  0.00  0.00    +0.000 A 
ATOM      6  N   UNL     1      48.990   5.553  16.682  0.00  0.00    +0.000 NA
ATOM      7  C   UNL     1      48.755   6.355  15.618  0.00  0.00    +0.000 A 
BRANCH   5   8
ATOM      8  C   UNL     1      48.533   3.508  17.963  0.00  0.00    +0.000 C 
BRANCH   8   9
ATOM      9  N   UNL     1      49.944   3.136  18.168  0.00  0.00    +0.000 NA
ATOM     10  H   UNL     1      49.989   2.708  19.098  0.00  0.00    +0.000 HD
BRANCH   9  11
ATOM     11  C   UNL     1      50.386   2.134  17.203  0.00  0.00    +0.000 C 
BRANCH  11  12
ATOM     12  C   UNL     1      51.688   1.583  17.644  0.00  0.00    +0.000 A 
ATOM     13  C   UNL     1      52.943   2.140  17.763  0.00  0.00    +0.000 A 
ATOM     14  C   UNL     1      53.756   1.095  18.238  0.00  0.00    +0.000 A 
ATOM     15  N   UNL     1      53.075  -0.040  18.418  0.00  0.00    +0.000 NA
ATOM     16  N   UNL     1      51.828   0.277  18.029  0.00  0.00    +0.000 N 
ATOM     17  H   UNL     1      51.114  -0.445  18.029  0.00  0.00    +0.000 HD
ENDBRANCH  11  12
ENDBRANCH   9  11
ENDBRANCH   8   9
ENDBRANCH   5   8
ENDBRANCH   1   2
BRANCH   1  18
ATOM     18  N   UNL     1      47.303   6.315  12.221  0.00  0.00    +0.000 NA
ATOM     19  H   UNL     1      48.011   6.543  11.525  0.00  0.00    +0.000 HD
BRANCH  18  21
ATOM     20  C   UNL     1      45.265   7.753  12.457  0.00  0.00    +0.000 C 
ATOM     21  C   UNL     1      45.992   6.672  11.652  0.00  0.00    +0.000 C 
BRANCH  21  22
ATOM     22  C   UNL     1      45.162   5.398  11.608  0.00  0.00    +0.000 A 
ATOM     23  C   UNL     1      44.392   4.918  12.658  0.00  0.00    +0.000 A 
ATOM     24  S   UNL     1      43.613   3.439  12.309  0.00  0.00    +0.000 S 
ATOM     25  C   UNL     1      44.245   3.413  10.728  0.00  0.00    +0.000 A 
ATOM     26  N   UNL     1      43.958   2.396   9.873  0.00  0.00    +0.000 NA
ATOM     27  C   UNL     1      44.488   2.524   8.701  0.00  0.00    +0.000 A 
ATOM     28  N   UNL     1      45.277   3.577   8.306  0.00  0.00    +0.000 N 
ATOM     29  C   UNL     1      45.595   4.629   9.136  0.00  0.00    +0.000 A 
ATOM     30  O   UNL     1      46.287   5.566   8.753  0.00  0.00    +0.000 OA
ATOM     31  C   UNL     1      45.034   4.518  10.471  0.00  0.00    +0.000 A 
ATOM     32  H   UNL     1      45.645   3.622   7.370  0.00  0.00    +0.000 HD
ENDBRANCH  21  22
ENDBRANCH  18  21
ENDBRANCH   1  18
TORSDOF 8
ENDMDL
MODEL 4
REMARK VINA RESULT:    -7.361      2.695      3.477
REMARK INTER + INTRA:         -11.507
REMARK INTER:                 -10.632
REMARK INTRA:                  -0.874
REMARK UNBOUND:                -0.703
REMARK  Name = 
REMARK  9 active torsions:
REMARK  status: ('A' for Active; 'I' for Inactive)
REMARK    1  A    between atoms: C_1  and  C_2
REMARK    2  A    between atoms: C_2  and  N_3
REMARK    3  A    between atoms: C_2  and  C_19
REMARK    4  A    between atoms: N_3  and  C_4
REMARK    5  A    between atoms: C_4  and  C_5
REMARK    6  A    between atoms: C_8  and  C_9
REMARK    7  A    between atoms: C_9  and  N_10
REMARK    8  A    between atoms: N_10  and  C_11
REMARK    9  A    between atoms: C_11  and  C_12
REMARK                            x       y       z     vdW  Elec       q    Type
REMARK                         _______ _______ _______ _____ _____    ______ ____
ROOT
ATOM      1  C   UNL     1      47.652   6.698  13.639  0.00  0.00    +0.000 C 
ENDROOT
BRANCH   1   2
ATOM      2  C   UNL     1      46.658   5.813  12.927  0.00  0.00    +0.000 A 
ATOM      3  C   UNL     1      46.151   6.148  11.670  0.00  0.00    +0.000 A 
ATOM      4  C   UNL     1      45.215   5.322  11.052  0.00  0.00    +0.000 A 
ATOM      5  C   UNL     1      44.799   4.167  11.711  0.00  0.00    +0.000 A 
ATOM      6  N   UNL     1      45.275   3.817  12.933  0.00  0.00    +0.000 NA
ATOM      7  C   UNL     1      46.187   4.637  13.504  0.00  0.00    +0.000 A 
BRANCH   5   8
ATOM      8  C   UNL     1      43.744   3.270  11.093  0.00  0.00    +0.000 C 
BRANCH   8   9
ATOM      9  N   UNL     1      43.842   3.160   9.627  0.00  0.00    +0.000 NA
ATOM     10  H   UNL     1      44.326   4.007   9.313  0.00  0.00    +0.000 HD
BRANCH   9  11
ATOM     11  C   UNL     1      44.655   2.016   9.223  0.00  0.00    +0.000 C 
BRANCH  11  12
ATOM     12  C   UNL     1      45.695   2.477   8.274  0.00  0.00    +0.000 A 
ATOM     13  C   UNL     1      46.724   1.823   7.631  0.00  0.00    +0.000 A 
ATOM     14  C   UNL     1      47.356   2.817   6.861  0.00  0.00    +0.000 A 
ATOM     15  N   UNL     1      46.773   4.012   6.994  0.00  0.00    +0.000 NA
ATOM     16  N   UNL     1      45.782   3.782   7.873  0.00  0.00    +0.000 N 
ATOM     17  H   UNL     1      45.207   4.560   8.180  0.00  0.00    +0.000 HD
ENDBRANCH  11  12
ENDBRANCH   9  11
ENDBRANCH   8   9
ENDBRANCH   5   8
ENDBRANCH   1   2
BRANCH   1  18
ATOM     18  N   UNL     1      48.402   5.952  14.646  0.00  0.00    +0.000 NA
ATOM     19  H   UNL     1      47.782   5.263  15.071  0.00  0.00    +0.000 HD
BRANCH  18  21
ATOM     20  C   UNL     1      50.397   7.194  15.514  0.00  0.00    +0.000 C 
ATOM     21  C   UNL     1      48.935   6.795  15.730  0.00  0.00    +0.000 C 
BRANCH  21  22
ATOM     22  C   UNL     1      48.787   6.005  17.023  0.00  0.00    +0.000 A 
ATOM     23  C   UNL     1      49.075   4.655  17.163  0.00  0.00    +0.000 A 
ATOM     24  S   UNL     1      48.765   4.053  18.730  0.00  0.00    +0.000 S 
ATOM     25  C   UNL     1      48.276   5.587  19.285  0.00  0.00    +0.000 A 
ATOM     26  N   UNL     1      47.876   5.775  20.570  0.00  0.00    +0.000 NA
ATOM     27  C   UNL     1      47.557   6.995  20.853  0.00  0.00    +0.000 A 
ATOM     28  N   UNL     1      47.605   8.044  19.967  0.00  0.00    +0.000 N 
ATOM     29  C   UNL     1      48.002   7.903  18.656  0.00  0.00    +0.000 A 
ATOM     30  O   UNL     1      48.052   8.860  17.891  0.00  0.00    +0.000 OA
ATOM     31  C   UNL     1      48.354   6.543  18.290  0.00  0.00    +0.000 A 
ATOM     32  H   UNL     1      47.357   8.976  20.259  0.00  0.00    +0.000 HD
ENDBRANCH  21  22
ENDBRANCH  18  21
ENDBRANCH   1  18
TORSDOF 8
ENDMDL
MODEL 5
REMARK VINA RESULT:    -7.304      1.827      2.263
REMARK INTER + INTRA:         -11.423
REMARK INTER:                 -10.469
REMARK INTRA:                  -0.954
REMARK UNBOUND:                -0.703
REMARK  Name = 
REMARK  9 active torsions:
REMARK  status: ('A' for Active; 'I' for Inactive)
REMARK    1  A    between atoms: C_1  and  C_2
REMARK    2  A    between atoms: C_2  and  N_3
REMARK    3  A    between atoms: C_2  and  C_19
REMARK    4  A    between atoms: N_3  and  C_4
REMARK    5  A    between atoms: C_4  and  C_5
REMARK    6  A    between atoms: C_8  and  C_9
REMARK    7  A    between atoms: C_9  and  N_10
REMARK    8  A    between atoms: N_10  and  C_11
REMARK    9  A    between atoms: C_11  and  C_12
REMARK                            x       y       z     vdW  Elec       q    Type
REMARK                         _______ _______ _______ _____ _____    ______ ____
ROOT
ATOM      1  C   UNL     1      48.081   6.587  13.759  0.00  0.00    +0.000 C 
ENDROOT
BRANCH   1   2
ATOM      2  C   UNL     1      46.934   6.009  12.968  0.00  0.00    +0.000 A 
ATOM      3  C   UNL     1      46.361   4.780  13.304  0.00  0.00    +0.000 A 
ATOM      4  C   UNL     1      45.321   4.262  12.536  0.00  0.00    +0.000 A 
ATOM      5  C   UNL     1      44.871   4.990  11.436  0.00  0.00    +0.000 A 
ATOM      6  N   UNL     1      45.408   6.186  11.087  0.00  0.00    +0.000 NA
ATOM      7  C   UNL     1      46.414   6.664  11.856  0.00  0.00    +0.000 A 
BRANCH   5   8
ATOM      8  C   UNL     1      43.774   4.434  10.547  0.00  0.00    +0.000 C 
BRANCH   8   9
ATOM      9  N   UNL     1      44.222   3.350   9.657  0.00  0.00    +0.000 NA
ATOM     10  H   UNL     1      43.369   2.934   9.269  0.00  0.00    +0.000 HD
BRANCH   9  11
ATOM     11  C   UNL     1      45.008   3.859   8.537  0.00  0.00    +0.000 C 
BRANCH  11  12
ATOM     12  C   UNL     1      45.872   2.771   8.022  0.00  0.00    +0.000 A 
ATOM     13  C   UNL     1      46.835   2.733   7.036  0.00  0.00    +0.000 A 
ATOM     14  C   UNL     1      47.291   1.403   7.030  0.00  0.00    +0.000 A 
ATOM     15  N   UNL     1      46.675   0.648   7.944  0.00  0.00    +0.000 NA
ATOM     16  N   UNL     1      45.804   1.497   8.517  0.00  0.00    +0.000 N 
ATOM     17  H   UNL     1      45.171   1.146   9.229  0.00  0.00    +0.000 HD
ENDBRANCH  11  12
ENDBRANCH   9  11
ENDBRANCH   8   9
ENDBRANCH   5   8
ENDBRANCH   1   2
BRANCH   1  18
ATOM     18  N   UNL     1      48.221   5.926  15.055  0.00  0.00    +0.000 NA
ATOM     19  H   UNL     1      47.313   5.551  15.329  0.00  0.00    +0.000 HD
BRANCH  18  21
ATOM     20  C   UNL     1      48.561   8.306  15.760  0.00  0.00    +0.000 C 
ATOM     21  C   UNL     1      48.671   6.825  16.131  0.00  0.00    +0.000 C 
BRANCH  21  22
ATOM     22  C   UNL     1      50.116   6.463  16.439  0.00  0.00    +0.000 A 
ATOM     23  C   UNL     1      51.212   7.262  16.147  0.00  0.00    +0.000 A 
ATOM     24  S   UNL     1      52.705   6.555  16.579  0.00  0.00    +0.000 S 
ATOM     25  C   UNL     1      51.933   5.174  17.211  0.00  0.00    +0.000 A 
ATOM     26  N   UNL     1      52.649   4.156  17.756  0.00  0.00    +0.000 NA
ATOM     27  C   UNL     1      51.927   3.187  18.216  0.00  0.00    +0.000 A 
ATOM     28  N   UNL     1      50.554   3.147  18.184  0.00  0.00    +0.000 N 
ATOM     29  C   UNL     1      49.786   4.154  17.643  0.00  0.00    +0.000 A 
ATOM     30  O   UNL     1      48.561   4.101  17.643  0.00  0.00    +0.000 OA
ATOM     31  C   UNL     1      50.558   5.257  17.098  0.00  0.00    +0.000 A 
ATOM     32  H   UNL     1      50.052   2.366  18.576  0.00  0.00    +0.000 HD
ENDBRANCH  21  22
ENDBRANCH  18  21
ENDBRANCH   1  18
TORSDOF 8
ENDMDL
MODEL 6
REMARK VINA RESULT:    -7.246      3.350      8.936
REMARK INTER + INTRA:         -11.338
REMARK INTER:                  -9.967
REMARK INTRA:                  -1.371
REMARK UNBOUND:                -0.703
REMARK  Name = 
REMARK  9 active torsions:
REMARK  status: ('A' for Active; 'I' for Inactive)
REMARK    1  A    between atoms: C_1  and  C_2
REMARK    2  A    between atoms: C_2  and  N_3
REMARK    3  A    between atoms: C_2  and  C_19
REMARK    4  A    between atoms: N_3  and  C_4
REMARK    5  A    between atoms: C_4  and  C_5
REMARK    6  A    between atoms: C_8  and  C_9
REMARK    7  A    between atoms: C_9  and  N_10
REMARK    8  A    between atoms: N_10  and  C_11
REMARK    9  A    between atoms: C_11  and  C_12
REMARK                            x       y       z     vdW  Elec       q    Type
REMARK                         _______ _______ _______ _____ _____    ______ ____
ROOT
ATOM      1  C   UNL     1      47.912   7.849  12.065  0.00  0.00    +0.000 C 
ENDROOT
BRANCH   1   2
ATOM      2  C   UNL     1      48.759   7.570  13.282  0.00  0.00    +0.000 A 
ATOM      3  C   UNL     1      49.985   8.209  13.480  0.00  0.00    +0.000 A 
ATOM      4  C   UNL     1      50.754   7.910  14.602  0.00  0.00    +0.000 A 
ATOM      5  C   UNL     1      50.278   6.968  15.512  0.00  0.00    +0.000 A 
ATOM      6  N   UNL     1      49.091   6.333  15.345  0.00  0.00    +0.000 NA
ATOM      7  C   UNL     1      48.364   6.650  14.248  0.00  0.00    +0.000 A 
BRANCH   5   8
ATOM      8  C   UNL     1      51.111   6.580  16.719  0.00  0.00    +0.000 C 
BRANCH   8   9
ATOM      9  N   UNL     1      51.145   5.130  16.976  0.00  0.00    +0.000 NA
ATOM     10  H   UNL     1      52.134   4.887  17.090  0.00  0.00    +0.000 HD
BRANCH   9  11
ATOM     11  C   UNL     1      50.464   4.785  18.221  0.00  0.00    +0.000 C 
BRANCH  11  12
ATOM     12  C   UNL     1      49.127   4.234  17.902  0.00  0.00    +0.000 A 
ATOM     13  C   UNL     1      48.715   3.012  17.415  0.00  0.00    +0.000 A 
ATOM     14  C   UNL     1      47.314   3.112  17.332  0.00  0.00    +0.000 A 
ATOM     15  N   UNL     1      46.863   4.301  17.740  0.00  0.00    +0.000 NA
ATOM     16  N   UNL     1      47.984   4.971  18.059  0.00  0.00    +0.000 N 
ATOM     17  H   UNL     1      47.911   5.937  18.361  0.00  0.00    +0.000 HD
ENDBRANCH  11  12
ENDBRANCH   9  11
ENDBRANCH   8   9
ENDBRANCH   5   8
ENDBRANCH   1   2
BRANCH   1  18
ATOM     18  N   UNL     1      47.119   6.680  11.690  0.00  0.00    +0.000 NA
ATOM     19  H   UNL     1      47.484   6.307  10.814  0.00  0.00    +0.000 HD
BRANCH  18  21
ATOM     20  C   UNL     1      45.136   7.981  12.496  0.00  0.00    +0.000 C 
ATOM     21  C   UNL     1      45.691   6.976  11.483  0.00  0.00    +0.000 C 
BRANCH  21  22
ATOM     22  C   UNL     1      44.943   5.655  11.584  0.00  0.00    +0.000 A 
ATOM     23  C   UNL     1      44.176   5.261  12.671  0.00  0.00    +0.000 A 
ATOM     24  S   UNL     1      43.499   3.703  12.496  0.00  0.00    +0.000 S 
ATOM     25  C   UNL     1      44.172   3.522  10.942  0.00  0.00    +0.000 A 
ATOM     26  N   UNL     1      43.970   2.392  10.216  0.00  0.00    +0.000 NA
ATOM     27  C   UNL     1      44.522   2.407   9.047  0.00  0.00    +0.000 A 
ATOM     28  N   UNL     1      45.254   3.452   8.538  0.00  0.00    +0.000 N 
ATOM     29  C   UNL     1      45.486   4.617   9.236  0.00  0.00    +0.000 A 
ATOM     30  O   UNL     1      46.128   5.541   8.751  0.00  0.00    +0.000 OA
ATOM     31  C   UNL     1      44.898   4.636  10.563  0.00  0.00    +0.000 A 
ATOM     32  H   UNL     1      45.643   3.404   7.610  0.00  0.00    +0.000 HD
ENDBRANCH  21  22
ENDBRANCH  18  21
ENDBRANCH   1  18
TORSDOF 8
ENDMDL
MODEL 7
REMARK VINA RESULT:    -7.148      2.265      3.125
REMARK INTER + INTRA:         -11.195
REMARK INTER:                 -10.104
REMARK INTRA:                  -1.090
REMARK UNBOUND:                -0.703
REMARK  Name = 
REMARK  9 active torsions:
REMARK  status: ('A' for Active; 'I' for Inactive)
REMARK    1  A    between atoms: C_1  and  C_2
REMARK    2  A    between atoms: C_2  and  N_3
REMARK    3  A    between atoms: C_2  and  C_19
REMARK    4  A    between atoms: N_3  and  C_4
REMARK    5  A    between atoms: C_4  and  C_5
REMARK    6  A    between atoms: C_8  and  C_9
REMARK    7  A    between atoms: C_9  and  N_10
REMARK    8  A    between atoms: N_10  and  C_11
REMARK    9  A    between atoms: C_11  and  C_12
REMARK                            x       y       z     vdW  Elec       q    Type
REMARK                         _______ _______ _______ _____ _____    ______ ____
ROOT
ATOM      1  C   UNL     1      48.654   6.578  13.150  0.00  0.00    +0.000 C 
ENDROOT
BRANCH   1   2
ATOM      2  C   UNL     1      47.206   6.171  13.030  0.00  0.00    +0.000 A 
ATOM      3  C   UNL     1      46.283   6.954  12.332  0.00  0.00    +0.000 A 
ATOM      4  C   UNL     1      44.948   6.562  12.263  0.00  0.00    +0.000 A 
ATOM      5  C   UNL     1      44.559   5.385  12.898  0.00  0.00    +0.000 A 
ATOM      6  N   UNL     1      45.434   4.604  13.582  0.00  0.00    +0.000 NA
ATOM      7  C   UNL     1      46.724   5.010  13.626  0.00  0.00    +0.000 A 
BRANCH   5   8
ATOM      8  C   UNL     1      43.105   4.953  12.886  0.00  0.00    +0.000 C 
BRANCH   8   9
ATOM      9  N   UNL     1      42.685   4.314  11.627  0.00  0.00    +0.000 NA
ATOM     10  H   UNL     1      42.920   4.978  10.883  0.00  0.00    +0.000 HD
BRANCH   9  11
ATOM     11  C   UNL     1      43.428   3.085  11.368  0.00  0.00    +0.000 C 
BRANCH  11  12
ATOM     12  C   UNL     1      44.172   3.232  10.096  0.00  0.00    +0.000 A 
ATOM     13  C   UNL     1      44.932   2.352   9.354  0.00  0.00    +0.000 A 
ATOM     14  C   UNL     1      45.367   3.100   8.245  0.00  0.00    +0.000 A 
ATOM     15  N   UNL     1      44.916   4.358   8.269  0.00  0.00    +0.000 NA
ATOM     16  N   UNL     1      44.212   4.417   9.413  0.00  0.00    +0.000 N 
ATOM     17  H   UNL     1      43.796   5.301   9.689  0.00  0.00    +0.000 HD
ENDBRANCH  11  12
ENDBRANCH   9  11
ENDBRANCH   8   9
ENDBRANCH   5   8
ENDBRANCH   1   2
BRANCH   1  18
ATOM     18  N   UNL     1      48.795   7.833  13.884  0.00  0.00    +0.000 NA
ATOM     19  H   UNL     1      49.731   8.202  13.722  0.00  0.00    +0.000 HD
BRANCH  18  21
ATOM     20  C   UNL     1      48.277   9.008  16.036  0.00  0.00    +0.000 C 
ATOM     21  C   UNL     1      48.623   7.688  15.340  0.00  0.00    +0.000 C 
BRANCH  21  22
ATOM     22  C   UNL     1      49.925   7.126  15.889  0.00  0.00    +0.000 A 
ATOM     23  C   UNL     1      51.171   7.718  15.735  0.00  0.00    +0.000 A 
ATOM     24  S   UNL     1      52.443   6.817  16.431  0.00  0.00    +0.000 S 
ATOM     25  C   UNL     1      51.366   5.626  16.999  0.00  0.00    +0.000 A 
ATOM     26  N   UNL     1      51.813   4.550  17.697  0.00  0.00    +0.000 NA
ATOM     27  C   UNL     1      50.879   3.743  18.084  0.00  0.00    +0.000 A 
ATOM     28  N   UNL     1      49.539   3.919  17.837  0.00  0.00    +0.000 N 
ATOM     29  C   UNL     1      49.039   4.993  17.135  0.00  0.00    +0.000 A 
ATOM     30  O   UNL     1      47.836   5.134  16.944  0.00  0.00    +0.000 OA
ATOM     31  C   UNL     1      50.056   5.917  16.666  0.00  0.00    +0.000 A 
ATOM     32  H   UNL     1      48.861   3.258  18.183  0.00  0.00    +0.000 HD
ENDBRANCH  21  22
ENDBRANCH  18  21
ENDBRANCH   1  18
TORSDOF 8
ENDMDL
MODEL 8
REMARK VINA RESULT:    -7.069      2.537      2.988
REMARK INTER + INTRA:         -11.079
REMARK INTER:                 -10.401
REMARK INTRA:                  -0.678
REMARK UNBOUND:                -0.703
REMARK  Name = 
REMARK  9 active torsions:
REMARK  status: ('A' for Active; 'I' for Inactive)
REMARK    1  A    between atoms: C_1  and  C_2
REMARK    2  A    between atoms: C_2  and  N_3
REMARK    3  A    between atoms: C_2  and  C_19
REMARK    4  A    between atoms: N_3  and  C_4
REMARK    5  A    between atoms: C_4  and  C_5
REMARK    6  A    between atoms: C_8  and  C_9
REMARK    7  A    between atoms: C_9  and  N_10
REMARK    8  A    between atoms: N_10  and  C_11
REMARK    9  A    between atoms: C_11  and  C_12
REMARK                            x       y       z     vdW  Elec       q    Type
REMARK                         _______ _______ _______ _____ _____    ______ ____
ROOT
ATOM      1  C   UNL     1      47.421   3.831  14.476  0.00  0.00    +0.000 C 
ENDROOT
BRANCH   1   2
ATOM      2  C   UNL     1      46.487   4.109  13.325  0.00  0.00    +0.000 A 
ATOM      3  C   UNL     1      46.451   5.356  12.698  0.00  0.00    +0.000 A 
ATOM      4  C   UNL     1      45.557   5.586  11.654  0.00  0.00    +0.000 A 
ATOM      5  C   UNL     1      44.709   4.555  11.255  0.00  0.00    +0.000 A 
ATOM      6  N   UNL     1      44.723   3.333  11.846  0.00  0.00    +0.000 NA
ATOM      7  C   UNL     1      45.606   3.140  12.853  0.00  0.00    +0.000 A 
BRANCH   5   8
ATOM      8  C   UNL     1      43.689   4.784  10.156  0.00  0.00    +0.000 C 
BRANCH   8   9
ATOM      9  N   UNL     1      44.143   4.351   8.824  0.00  0.00    +0.000 NA
ATOM     10  H   UNL     1      45.002   4.877   8.635  0.00  0.00    +0.000 HD
BRANCH   9  11
ATOM     11  C   UNL     1      44.485   2.932   8.802  0.00  0.00    +0.000 C 
BRANCH  11  12
ATOM     12  C   UNL     1      45.752   2.754   8.056  0.00  0.00    +0.000 A 
ATOM     13  C   UNL     1      46.540   3.627   7.337  0.00  0.00    +0.000 A 
ATOM     14  C   UNL     1      47.611   2.844   6.871  0.00  0.00    +0.000 A 
ATOM     15  N   UNL     1      47.522   1.571   7.267  0.00  0.00    +0.000 NA
ATOM     16  N   UNL     1      46.374   1.539   7.965  0.00  0.00    +0.000 N 
ATOM     17  H   UNL     1      46.052   0.653   8.342  0.00  0.00    +0.000 HD
ENDBRANCH  11  12
ENDBRANCH   9  11
ENDBRANCH   8   9
ENDBRANCH   5   8
ENDBRANCH   1   2
BRANCH   1  18
ATOM     18  N   UNL     1      47.095   4.656  15.637  0.00  0.00    +0.000 NA
ATOM     19  H   UNL     1      47.239   5.635  15.392  0.00  0.00    +0.000 HD
BRANCH  18  21
ATOM     20  C   UNL     1      47.395   3.202  17.655  0.00  0.00    +0.000 C 
ATOM     21  C   UNL     1      47.926   4.369  16.819  0.00  0.00    +0.000 C 
BRANCH  21  22
ATOM     22  C   UNL     1      47.970   5.641  17.653  0.00  0.00    +0.000 A 
ATOM     23  C   UNL     1      47.408   5.780  18.914  0.00  0.00    +0.000 A 
ATOM     24  S   UNL     1      47.590   7.345  19.571  0.00  0.00    +0.000 S 
ATOM     25  C   UNL     1      48.463   7.877  18.210  0.00  0.00    +0.000 A 
ATOM     26  N   UNL     1      48.931   9.151  18.128  0.00  0.00    +0.000 NA
ATOM     27  C   UNL     1      49.596   9.403  17.048  0.00  0.00    +0.000 A 
ATOM     28  N   UNL     1      49.838   8.496  16.045  0.00  0.00    +0.000 N 
ATOM     29  C   UNL     1      49.385   7.196  16.083  0.00  0.00    +0.000 A 
ATOM     30  O   UNL     1      49.630   6.402  15.182  0.00  0.00    +0.000 OA
ATOM     31  C   UNL     1      48.617   6.873  17.273  0.00  0.00    +0.000 A 
ATOM     32  H   UNL     1      50.379   8.756  15.236  0.00  0.00    +0.000 HD
ENDBRANCH  21  22
ENDBRANCH  18  21
ENDBRANCH   1  18
TORSDOF 8
ENDMDL
MODEL 9
REMARK VINA RESULT:    -6.919      3.791      8.681
REMARK INTER + INTRA:         -10.858
REMARK INTER:                  -9.551
REMARK INTRA:                  -1.306
REMARK UNBOUND:                -0.703
REMARK  Name = 
REMARK  9 active torsions:
REMARK  status: ('A' for Active; 'I' for Inactive)
REMARK    1  A    between atoms: C_1  and  C_2
REMARK    2  A    between atoms: C_2  and  N_3
REMARK    3  A    between atoms: C_2  and  C_19
REMARK    4  A    between atoms: N_3  and  C_4
REMARK    5  A    between atoms: C_4  and  C_5
REMARK    6  A    between atoms: C_8  and  C_9
REMARK    7  A    between atoms: C_9  and  N_10
REMARK    8  A    between atoms: N_10  and  C_11
REMARK    9  A    between atoms: C_11  and  C_12
REMARK                            x       y       z     vdW  Elec       q    Type
REMARK                         _______ _______ _______ _____ _____    ______ ____
ROOT
ATOM      1  C   UNL     1      47.976   8.529  14.101  0.00  0.00    +0.000 C 
ENDROOT
BRANCH   1   2
ATOM      2  C   UNL     1      48.662   8.059  15.360  0.00  0.00    +0.000 A 
ATOM      3  C   UNL     1      49.670   7.093  15.326  0.00  0.00    +0.000 A 
ATOM      4  C   UNL     1      50.265   6.664  16.510  0.00  0.00    +0.000 A 
ATOM      5  C   UNL     1      49.836   7.213  17.716  0.00  0.00    +0.000 A 
ATOM      6  N   UNL     1      48.860   8.153  17.779  0.00  0.00    +0.000 NA
ATOM      7  C   UNL     1      48.305   8.554  16.611  0.00  0.00    +0.000 A 
BRANCH   5   8
ATOM      8  C   UNL     1      50.425   6.733  19.029  0.00  0.00    +0.000 C 
BRANCH   8   9
ATOM      9  N   UNL     1      50.459   5.267  19.165  0.00  0.00    +0.000 NA
ATOM     10  H   UNL     1      51.131   5.070  19.913  0.00  0.00    +0.000 HD
BRANCH   9  11
ATOM     11  C   UNL     1      49.168   4.731  19.585  0.00  0.00    +0.000 C 
BRANCH  11  12
ATOM     12  C   UNL     1      48.542   4.032  18.439  0.00  0.00    +0.000 A 
ATOM     13  C   UNL     1      49.047   3.184  17.477  0.00  0.00    +0.000 A 
ATOM     14  C   UNL     1      47.942   2.857  16.670  0.00  0.00    +0.000 A 
ATOM     15  N   UNL     1      46.815   3.442  17.087  0.00  0.00    +0.000 NA
ATOM     16  N   UNL     1      47.211   4.166  18.149  0.00  0.00    +0.000 N 
ATOM     17  H   UNL     1      46.533   4.751  18.626  0.00  0.00    +0.000 HD
ENDBRANCH  11  12
ENDBRANCH   9  11
ENDBRANCH   8   9
ENDBRANCH   5   8
ENDBRANCH   1   2
BRANCH   1  18
ATOM     18  N   UNL     1      46.753   7.770  13.847  0.00  0.00    +0.000 NA
ATOM     19  H   UNL     1      46.373   7.457  14.740  0.00  0.00    +0.000 HD
BRANCH  18  21
ATOM     20  C   UNL     1      48.044   6.771  11.946  0.00  0.00    +0.000 C 
ATOM     21  C   UNL     1      46.963   6.575  13.012  0.00  0.00    +0.000 C 
BRANCH  21  22
ATOM     22  C   UNL     1      45.628   6.248  12.359  0.00  0.00    +0.000 A 
ATOM     23  C   UNL     1      44.815   7.170  11.715  0.00  0.00    +0.000 A 
ATOM     24  S   UNL     1      43.362   6.498  11.122  0.00  0.00    +0.000 S 
ATOM     25  C   UNL     1      43.790   4.943  11.670  0.00  0.00    +0.000 A 
ATOM     26  N   UNL     1      42.968   3.879  11.476  0.00  0.00    +0.000 NA
ATOM     27  C   UNL     1      43.436   2.759  11.923  0.00  0.00    +0.000 A 
ATOM     28  N   UNL     1      44.653   2.609  12.543  0.00  0.00    +0.000 N 
ATOM     29  C   UNL     1      45.519   3.657  12.761  0.00  0.00    +0.000 A 
ATOM     30  O   UNL     1      46.607   3.492  13.301  0.00  0.00    +0.000 OA
ATOM     31  C   UNL     1      45.026   4.939  12.289  0.00  0.00    +0.000 A 
ATOM     32  H   UNL     1      44.964   1.702  12.853  0.00  0.00    +0.000 HD
ENDBRANCH  21  22
ENDBRANCH  18  21
ENDBRANCH   1  18
TORSDOF 8
ENDMDL
