MODEL 1
REMARK VINA RESULT:    -7.358      0.000      0.000
REMARK INTER + INTRA:         -12.367
REMARK INTER:                 -10.799
REMARK INTRA:                  -1.568
REMARK UNBOUND:                -1.568
REMARK  Name = 
REMARK  9 active torsions:
REMARK  status: ('A' for Active; 'I' for Inactive)
REMARK    1  A    between atoms: C_1  and  C_2
REMARK    2  A    between atoms: C_2  and  O_3
REMARK    3  A    between atoms: O_3  and  C_4
REMARK    4  A    between atoms: C_9  and  C_10
REMARK    5  A    between atoms: N_12  and  C_13
REMARK    6  A    between atoms: C_13  and  C_14
REMARK    7  A    between atoms: C_17  and  C_18
REMARK    8  A    between atoms: C_18  and  N_19
REMARK    9  A    between atoms: C_20  and  C_22
REMARK                            x       y       z     vdW  Elec       q    Type
REMARK                         _______ _______ _______ _____ _____    ______ ____
ROOT
ATOM      1  C   UNL     1      50.297   7.428  15.249  0.00  0.00    +0.000 A 
ATOM      2  C   UNL     1      50.634   8.137  14.089  0.00  0.00    +0.000 A 
ATOM      3  C   UNL     1      49.716   8.267  13.039  0.00  0.00    +0.000 A 
ATOM      4  C   UNL     1      48.435   7.709  13.140  0.00  0.00    +0.000 A 
ATOM      5  C   UNL     1      48.100   6.999  14.301  0.00  0.00    +0.000 A 
ATOM      6  C   UNL     1      49.018   6.868  15.348  0.00  0.00    +0.000 A 
ENDROOT
BRANCH   1   7
ATOM      7  C   UNL     1      51.281   7.295  16.386  0.00  0.00    +0.000 C 
BRANCH   7  10
ATOM      8  C   UNL     1      51.193   5.157  17.606  0.00  0.00    +0.000 C 
ATOM      9  O   UNL     1      50.430   5.617  18.450  0.00  0.00    +0.000 OA
ATOM     10  N   UNL     1      51.684   5.923  16.574  0.00  0.00    +0.000 N 
ATOM     11  H   UNL     1      52.313   5.496  15.904  0.00  0.00    +0.000 HD
BRANCH   8  17
ATOM     12  C   UNL     1      50.795   2.627  17.236  0.00  0.00    +0.000 A 
ATOM     13  C   UNL     1      51.270   1.316  17.413  0.00  0.00    +0.000 A 
ATOM     14  C   UNL     1      52.530   1.073  17.963  0.00  0.00    +0.000 A 
ATOM     15  C   UNL     1      53.339   2.137  18.338  0.00  0.00    +0.000 A 
ATOM     16  C   UNL     1      52.877   3.443  18.187  0.00  0.00    +0.000 A 
ATOM     17  C   UNL     1      51.600   3.709  17.654  0.00  0.00    +0.000 A 
BRANCH  12  18
ATOM     18  O   UNL     1      49.572   2.906  16.674  0.00  0.00    +0.000 OA
BRANCH  18  20
ATOM     19  C   UNL     1      47.386   3.816  16.999  0.00  0.00    +0.000 C 
ATOM     20  C   UNL     1      48.424   2.840  17.522  0.00  0.00    +0.000 C 
ENDBRANCH  18  20
ENDBRANCH  12  18
ENDBRANCH   8  17
ENDBRANCH   7  10
ENDBRANCH   1   7
BRANCH   4  21
ATOM     21  C   UNL     1      47.440   7.830  12.013  0.00  0.00    +0.000 C 
BRANCH  21  22
ATOM     22  N   UNL     1      46.773   6.575  11.766  0.00  0.00    +0.000 N 
ATOM     23  C   UNL     1      45.406   6.487  11.727  0.00  0.00    +0.000 C 
ATOM     24  O   UNL     1      44.685   7.474  11.851  0.00  0.00    +0.000 OA
ATOM     25  H   UNL     1      47.322   5.732  11.902  0.00  0.00    +0.000 HD
BRANCH  23  26
ATOM     26  C   UNL     1      44.843   5.155  11.464  0.00  0.00    +0.000 A 
ATOM     27  C   UNL     1      44.114   4.505  12.452  0.00  0.00    +0.000 A 
ATOM     28  S   UNL     1      43.489   2.997  11.960  0.00  0.00    +0.000 S 
ATOM     29  C   UNL     1      44.214   3.134  10.427  0.00  0.00    +0.000 A 
ATOM     30  N   UNL     1      44.088   2.146   9.501  0.00  0.00    +0.000 NA
ATOM     31  C   UNL     1      44.714   2.368   8.392  0.00  0.00    +0.000 A 
ATOM     32  N   UNL     1      45.453   3.493   8.126  0.00  0.00    +0.000 N 
ATOM     33  C   UNL     1      45.584   4.528   9.021  0.00  0.00    +0.000 A 
ATOM     34  O   UNL     1      46.218   5.539   8.733  0.00  0.00    +0.000 OA
ATOM     35  C   UNL     1      44.907   4.323  10.286  0.00  0.00    +0.000 A 
ATOM     36  H   UNL     1      45.911   3.611   7.236  0.00  0.00    +0.000 HD
ENDBRANCH  23  26
ENDBRANCH  21  22
ENDBRANCH   4  21
TORSDOF 8
ENDMDL
MODEL 2
REMARK VINA RESULT:    -6.702      2.086      2.501
REMARK INTER + INTRA:         -11.404
REMARK INTER:                  -9.680
REMARK INTRA:                  -1.724
REMARK UNBOUND:                -1.568
REMARK  Name = 
REMARK  9 active torsions:
REMARK  status: ('A' for Active; 'I' for Inactive)
REMARK    1  A    between atoms: C_1  and  C_2
REMARK    2  A    between atoms: C_2  and  O_3
REMARK    3  A    between atoms: O_3  and  C_4
REMARK    4  A    between atoms: C_9  and  C_10
REMARK    5  A    between atoms: N_12  and  C_13
REMARK    6  A    between atoms: C_13  and  C_14
REMARK    7  A    between atoms: C_17  and  C_18
REMARK    8  A    between atoms: C_18  and  N_19
REMARK    9  A    between atoms: C_20  and  C_22
REMARK                            x       y       z     vdW  Elec       q    Type
REMARK                         _______ _______ _______ _____ _____    ______ ____
ROOT
ATOM      1  C   UNL     1      49.400   7.078  17.527  0.00  0.00    +0.000 A 
ATOM      2  C   UNL     1      48.858   8.369  17.577  0.00  0.00    +0.000 A 
ATOM      3  C   UNL     1      48.302   8.956  16.434  0.00  0.00    +0.000 A 
ATOM      4  C   UNL     1      48.258   8.253  15.222  0.00  0.00    +0.000 A 
ATOM      5  C   UNL     1      48.803   6.963  15.173  0.00  0.00    +0.000 A 
ATOM      6  C   UNL     1      49.359   6.378  16.315  0.00  0.00    +0.000 A 
ENDROOT
BRANCH   1   7
ATOM      7  C   UNL     1      49.990   6.439  18.760  0.00  0.00    +0.000 C 
BRANCH   7  10
ATOM      8  C   UNL     1      51.802   4.838  18.292  0.00  0.00    +0.000 C 
ATOM      9  O   UNL     1      52.648   5.726  18.290  0.00  0.00    +0.000 OA
ATOM     10  N   UNL     1      50.467   5.106  18.485  0.00  0.00    +0.000 N 
ATOM     11  H   UNL     1      49.806   4.337  18.475  0.00  0.00    +0.000 HD
BRANCH   8  17
ATOM     12  C   UNL     1      51.472   2.438  17.380  0.00  0.00    +0.000 A 
ATOM     13  C   UNL     1      51.924   1.107  17.362  0.00  0.00    +0.000 A 
ATOM     14  C   UNL     1      53.093   0.732  18.026  0.00  0.00    +0.000 A 
ATOM     15  C   UNL     1      53.835   1.683  18.713  0.00  0.00    +0.000 A 
ATOM     16  C   UNL     1      53.393   3.004  18.757  0.00  0.00    +0.000 A 
ATOM     17  C   UNL     1      52.204   3.399  18.112  0.00  0.00    +0.000 A 
BRANCH  12  18
ATOM     18  O   UNL     1      50.342   2.850  16.717  0.00  0.00    +0.000 OA
BRANCH  18  20
ATOM     19  C   UNL     1      47.960   3.045  16.664  0.00  0.00    +0.000 C 
ATOM     20  C   UNL     1      49.133   2.129  16.959  0.00  0.00    +0.000 C 
ENDBRANCH  18  20
ENDBRANCH  12  18
ENDBRANCH   8  17
ENDBRANCH   7  10
ENDBRANCH   1   7
BRANCH   4  21
ATOM     21  C   UNL     1      47.675   8.877  13.979  0.00  0.00    +0.000 C 
BRANCH  21  22
ATOM     22  N   UNL     1      46.521   8.146  13.518  0.00  0.00    +0.000 N 
ATOM     23  C   UNL     1      46.596   7.288  12.452  0.00  0.00    +0.000 C 
ATOM     24  O   UNL     1      47.654   7.064  11.869  0.00  0.00    +0.000 OA
ATOM     25  H   UNL     1      45.614   8.489  13.816  0.00  0.00    +0.000 HD
BRANCH  23  26
ATOM     26  C   UNL     1      45.354   6.596  12.078  0.00  0.00    +0.000 A 
ATOM     27  C   UNL     1      44.306   7.313  11.515  0.00  0.00    +0.000 A 
ATOM     28  S   UNL     1      42.966   6.347  11.092  0.00  0.00    +0.000 S 
ATOM     29  C   UNL     1      43.717   4.945  11.696  0.00  0.00    +0.000 A 
ATOM     30  N   UNL     1      43.083   3.742  11.663  0.00  0.00    +0.000 NA
ATOM     31  C   UNL     1      43.757   2.768  12.182  0.00  0.00    +0.000 A 
ATOM     32  N   UNL     1      45.009   2.890  12.729  0.00  0.00    +0.000 N 
ATOM     33  C   UNL     1      45.697   4.080  12.757  0.00  0.00    +0.000 A 
ATOM     34  O   UNL     1      46.834   4.145  13.216  0.00  0.00    +0.000 OA
ATOM     35  C   UNL     1      44.981   5.207  12.195  0.00  0.00    +0.000 A 
ATOM     36  H   UNL     1      45.487   2.089  13.111  0.00  0.00    +0.000 HD
ENDBRANCH  23  26
ENDBRANCH  21  22
ENDBRANCH   4  21
TORSDOF 8
ENDMDL
MODEL 3
REMARK VINA RESULT:    -6.685      2.763      8.980
REMARK INTER + INTRA:         -11.379
REMARK INTER:                 -10.097
REMARK INTRA:                  -1.282
REMARK UNBOUND:                -1.568
REMARK  Name = 
REMARK  9 active torsions:
REMARK  status: ('A' for Active; 'I' for Inactive)
REMARK    1  A    between atoms: C_1  and  C_2
REMARK    2  A    between atoms: C_2  and  O_3
REMARK    3  A    between atoms: O_3  and  C_4
REMARK    4  A    between atoms: C_9  and  C_10
REMARK    5  A    between atoms: N_12  and  C_13
REMARK    6  A    between atoms: C_13  and  C_14
REMARK    7  A    between atoms: C_17  and  C_18
REMARK    8  A    between atoms: C_18  and  N_19
REMARK    9  A    between atoms: C_20  and  C_22
REMARK                            x       y       z     vdW  Elec       q    Type
REMARK                         _______ _______ _______ _____ _____    ______ ____
ROOT
ATOM      1  C   UNL     1      48.578   7.621  13.070  0.00  0.00    +0.000 A 
ATOM      2  C   UNL     1      48.279   6.816  14.177  0.00  0.00    +0.000 A 
ATOM      3  C   UNL     1      48.983   6.963  15.378  0.00  0.00    +0.000 A 
ATOM      4  C   UNL     1      49.985   7.935  15.503  0.00  0.00    +0.000 A 
ATOM      5  C   UNL     1      50.284   8.738  14.394  0.00  0.00    +0.000 A 
ATOM      6  C   UNL     1      49.581   8.590  13.194  0.00  0.00    +0.000 A 
ENDROOT
BRANCH   1   7
ATOM      7  C   UNL     1      47.814   7.471  11.778  0.00  0.00    +0.000 C 
BRANCH   7  10
ATOM      8  C   UNL     1      45.632   6.347  11.563  0.00  0.00    +0.000 C 
ATOM      9  O   UNL     1      45.047   7.413  11.396  0.00  0.00    +0.000 OA
ATOM     10  N   UNL     1      46.988   6.289  11.789  0.00  0.00    +0.000 N 
ATOM     11  H   UNL     1      47.423   5.383  11.925  0.00  0.00    +0.000 HD
BRANCH   8  17
ATOM     12  C   UNL     1      44.793   4.217  10.357  0.00  0.00    +0.000 A 
ATOM     13  C   UNL     1      43.987   3.067  10.411  0.00  0.00    +0.000 A 
ATOM     14  C   UNL     1      43.302   2.719  11.577  0.00  0.00    +0.000 A 
ATOM     15  C   UNL     1      43.418   3.511  12.711  0.00  0.00    +0.000 A 
ATOM     16  C   UNL     1      44.198   4.665  12.670  0.00  0.00    +0.000 A 
ATOM     17  C   UNL     1      44.880   5.045  11.497  0.00  0.00    +0.000 A 
BRANCH  12  18
ATOM     18  O   UNL     1      45.503   4.577   9.237  0.00  0.00    +0.000 OA
BRANCH  18  20
ATOM     19  C   UNL     1      46.637   3.800   7.282  0.00  0.00    +0.000 C 
ATOM     20  C   UNL     1      45.336   3.781   8.063  0.00  0.00    +0.000 C 
ENDBRANCH  18  20
ENDBRANCH  12  18
ENDBRANCH   8  17
ENDBRANCH   7  10
ENDBRANCH   1   7
BRANCH   4  21
ATOM     21  C   UNL     1      50.760   8.096  16.786  0.00  0.00    +0.000 C 
BRANCH  21  22
ATOM     22  N   UNL     1      51.529   6.914  17.085  0.00  0.00    +0.000 N 
ATOM     23  C   UNL     1      51.191   6.083  18.122  0.00  0.00    +0.000 C 
ATOM     24  O   UNL     1      50.195   6.277  18.815  0.00  0.00    +0.000 OA
ATOM     25  H   UNL     1      52.466   6.867  16.697  0.00  0.00    +0.000 HD
BRANCH  23  26
ATOM     26  C   UNL     1      52.049   4.907  18.326  0.00  0.00    +0.000 A 
ATOM     27  C   UNL     1      53.302   5.057  18.905  0.00  0.00    +0.000 A 
ATOM     28  S   UNL     1      54.139   3.586  19.117  0.00  0.00    +0.000 S 
ATOM     29  C   UNL     1      52.879   2.702  18.393  0.00  0.00    +0.000 A 
ATOM     30  N   UNL     1      52.969   1.354  18.235  0.00  0.00    +0.000 NA
ATOM     31  C   UNL     1      51.954   0.815  17.643  0.00  0.00    +0.000 A 
ATOM     32  N   UNL     1      50.854   1.504  17.198  0.00  0.00    +0.000 N 
ATOM     33  C   UNL     1      50.709   2.861  17.362  0.00  0.00    +0.000 A 
ATOM     34  O   UNL     1      49.692   3.440  16.990  0.00  0.00    +0.000 OA
ATOM     35  C   UNL     1      51.826   3.516  18.013  0.00  0.00    +0.000 A 
ATOM     36  H   UNL     1      50.090   1.023  16.751  0.00  0.00    +0.000 HD
ENDBRANCH  23  26
ENDBRANCH  21  22
ENDBRANCH   4  21
TORSDOF 8
ENDMDL
MODEL 4
REMARK VINA RESULT:    -6.575      1.027      2.188
REMARK INTER + INTRA:         -11.218
REMARK INTER:                  -9.782
REMARK INTRA:                  -1.436
REMARK UNBOUND:                -1.568
REMARK  Name = 
REMARK  9 active torsions:
REMARK  status: ('A' for Active; 'I' for Inactive)
REMARK    1  A    between atoms: C_1  and  C_2
REMARK    2  A    between atoms: C_2  and  O_3
REMARK    3  A    between atoms: O_3  and  C_4
REMARK    4  A    between atoms: C_9  and  C_10
REMARK    5  A    between atoms: N_12  and  C_13
REMARK    6  A    between atoms: C_13  and  C_14
REMARK    7  A    between atoms: C_17  and  C_18
REMARK    8  A    between atoms: C_18  and  N_19
REMARK    9  A    between atoms: C_20  and  C_22
REMARK                            x       y       z     vdW  Elec       q    Type
REMARK                         _______ _______ _______ _____ _____    ______ ____
ROOT
ATOM      1  C   UNL     1      50.181   7.517  15.241  0.00  0.00    +0.000 A 
ATOM      2  C   UNL     1      50.333   8.517  14.271  0.00  0.00    +0.000 A 
ATOM      3  C   UNL     1      49.416   8.638  13.220  0.00  0.00    +0.000 A 
ATOM      4  C   UNL     1      48.314   7.777  13.132  0.00  0.00    +0.000 A 
ATOM      5  C   UNL     1      48.164   6.777  14.102  0.00  0.00    +0.000 A 
ATOM      6  C   UNL     1      49.081   6.654  15.150  0.00  0.00    +0.000 A 
ENDROOT
BRANCH   1   7
ATOM      7  C   UNL     1      51.162   7.390  16.380  0.00  0.00    +0.000 C 
BRANCH   7  10
ATOM      8  C   UNL     1      51.228   5.291  17.667  0.00  0.00    +0.000 C 
ATOM      9  O   UNL     1      50.578   5.780  18.586  0.00  0.00    +0.000 OA
ATOM     10  N   UNL     1      51.585   6.023  16.559  0.00  0.00    +0.000 N 
ATOM     11  H   UNL     1      52.126   5.573  15.828  0.00  0.00    +0.000 HD
BRANCH   8  17
ATOM     12  C   UNL     1      52.938   3.377  18.002  0.00  0.00    +0.000 A 
ATOM     13  C   UNL     1      53.200   1.999  17.925  0.00  0.00    +0.000 A 
ATOM     14  C   UNL     1      52.193   1.089  17.596  0.00  0.00    +0.000 A 
ATOM     15  C   UNL     1      50.905   1.542  17.346  0.00  0.00    +0.000 A 
ATOM     16  C   UNL     1      50.631   2.907  17.400  0.00  0.00    +0.000 A 
ATOM     17  C   UNL     1      51.637   3.844  17.708  0.00  0.00    +0.000 A 
BRANCH  12  18
ATOM     18  O   UNL     1      53.895   4.300  18.347  0.00  0.00    +0.000 OA
BRANCH  18  20
ATOM     19  C   UNL     1      55.084   6.170  17.452  0.00  0.00    +0.000 C 
ATOM     20  C   UNL     1      54.844   4.676  17.348  0.00  0.00    +0.000 C 
ENDBRANCH  18  20
ENDBRANCH  12  18
ENDBRANCH   8  17
ENDBRANCH   7  10
ENDBRANCH   1   7
BRANCH   4  21
ATOM     21  C   UNL     1      47.326   7.888  11.999  0.00  0.00    +0.000 C 
BRANCH  21  22
ATOM     22  N   UNL     1      46.679   6.625  11.743  0.00  0.00    +0.000 N 
ATOM     23  C   UNL     1      45.323   6.538  11.563  0.00  0.00    +0.000 C 
ATOM     24  O   UNL     1      44.600   7.531  11.563  0.00  0.00    +0.000 OA
ATOM     25  H   UNL     1      47.204   5.787  11.976  0.00  0.00    +0.000 HD
BRANCH  23  26
ATOM     26  C   UNL     1      44.781   5.196  11.305  0.00  0.00    +0.000 A 
ATOM     27  C   UNL     1      44.019   4.559  12.276  0.00  0.00    +0.000 A 
ATOM     28  S   UNL     1      43.424   3.037  11.790  0.00  0.00    +0.000 S 
ATOM     29  C   UNL     1      44.209   3.150  10.285  0.00  0.00    +0.000 A 
ATOM     30  N   UNL     1      44.127   2.142   9.375  0.00  0.00    +0.000 NA
ATOM     31  C   UNL     1      44.795   2.348   8.287  0.00  0.00    +0.000 A 
ATOM     32  N   UNL     1      45.535   3.473   8.028  0.00  0.00    +0.000 N 
ATOM     33  C   UNL     1      45.623   4.527   8.906  0.00  0.00    +0.000 A 
ATOM     34  O   UNL     1      46.260   5.537   8.623  0.00  0.00    +0.000 OA
ATOM     35  C   UNL     1      44.898   4.342  10.147  0.00  0.00    +0.000 A 
ATOM     36  H   UNL     1      46.028   3.577   7.154  0.00  0.00    +0.000 HD
ENDBRANCH  23  26
ENDBRANCH  21  22
ENDBRANCH   4  21
TORSDOF 8
ENDMDL
MODEL 5
REMARK VINA RESULT:    -6.350      2.963      9.365
REMARK INTER + INTRA:         -10.888
REMARK INTER:                 -10.234
REMARK INTRA:                  -0.654
REMARK UNBOUND:                -1.568
REMARK  Name = 
REMARK  9 active torsions:
REMARK  status: ('A' for Active; 'I' for Inactive)
REMARK    1  A    between atoms: C_1  and  C_2
REMARK    2  A    between atoms: C_2  and  O_3
REMARK    3  A    between atoms: O_3  and  C_4
REMARK    4  A    between atoms: C_9  and  C_10
REMARK    5  A    between atoms: N_12  and  C_13
REMARK    6  A    between atoms: C_13  and  C_14
REMARK    7  A    between atoms: C_17  and  C_18
REMARK    8  A    between atoms: C_18  and  N_19
REMARK    9  A    between atoms: C_20  and  C_22
REMARK                            x       y       z     vdW  Elec       q    Type
REMARK                         _______ _______ _______ _____ _____    ______ ____
ROOT
ATOM      1  C   UNL     1      45.969   4.099  13.189  0.00  0.00    +0.000 A 
ATOM      2  C   UNL     1      46.412   3.698  14.456  0.00  0.00    +0.000 A 
ATOM      3  C   UNL     1      47.243   4.529  15.218  0.00  0.00    +0.000 A 
ATOM      4  C   UNL     1      47.630   5.786  14.736  0.00  0.00    +0.000 A 
ATOM      5  C   UNL     1      47.188   6.185  13.467  0.00  0.00    +0.000 A 
ATOM      6  C   UNL     1      46.359   5.355  12.706  0.00  0.00    +0.000 A 
ENDROOT
BRANCH   1   7
ATOM      7  C   UNL     1      45.065   3.211  12.370  0.00  0.00    +0.000 C 
BRANCH   7  10
ATOM      8  C   UNL     1      44.944   2.731   9.957  0.00  0.00    +0.000 C 
ATOM      9  O   UNL     1      43.725   2.868   9.944  0.00  0.00    +0.000 OA
ATOM     10  N   UNL     1      45.677   2.852  11.114  0.00  0.00    +0.000 N 
ATOM     11  H   UNL     1      46.683   2.727  11.073  0.00  0.00    +0.000 HD
BRANCH   8  17
ATOM     12  C   UNL     1      45.983   3.408   7.685  0.00  0.00    +0.000 A 
ATOM     13  C   UNL     1      46.621   2.990   6.505  0.00  0.00    +0.000 A 
ATOM     14  C   UNL     1      47.000   1.659   6.321  0.00  0.00    +0.000 A 
ATOM     15  C   UNL     1      46.753   0.724   7.318  0.00  0.00    +0.000 A 
ATOM     16  C   UNL     1      46.104   1.117   8.487  0.00  0.00    +0.000 A 
ATOM     17  C   UNL     1      45.695   2.451   8.683  0.00  0.00    +0.000 A 
BRANCH  12  18
ATOM     18  O   UNL     1      45.619   4.713   7.913  0.00  0.00    +0.000 OA
BRANCH  18  20
ATOM     19  C   UNL     1      45.515   6.106   9.853  0.00  0.00    +0.000 C 
ATOM     20  C   UNL     1      46.423   5.477   8.814  0.00  0.00    +0.000 C 
ENDBRANCH  18  20
ENDBRANCH  12  18
ENDBRANCH   8  17
ENDBRANCH   7  10
ENDBRANCH   1   7
BRANCH   4  21
ATOM     21  C   UNL     1      48.535   6.685  15.540  0.00  0.00    +0.000 C 
BRANCH  21  22
ATOM     22  N   UNL     1      49.655   5.953  16.079  0.00  0.00    +0.000 N 
ATOM     23  C   UNL     1      49.687   5.557  17.391  0.00  0.00    +0.000 C 
ATOM     24  O   UNL     1      48.748   5.762  18.157  0.00  0.00    +0.000 OA
ATOM     25  H   UNL     1      50.520   5.987  15.550  0.00  0.00    +0.000 HD
BRANCH  23  26
ATOM     26  C   UNL     1      50.879   4.814  17.823  0.00  0.00    +0.000 A 
ATOM     27  C   UNL     1      51.934   5.489  18.425  0.00  0.00    +0.000 A 
ATOM     28  S   UNL     1      53.210   4.468  18.912  0.00  0.00    +0.000 S 
ATOM     29  C   UNL     1      52.423   3.095  18.287  0.00  0.00    +0.000 A 
ATOM     30  N   UNL     1      53.000   1.865  18.356  0.00  0.00    +0.000 NA
ATOM     31  C   UNL     1      52.306   0.917  17.816  0.00  0.00    +0.000 A 
ATOM     32  N   UNL     1      51.084   1.090  17.216  0.00  0.00    +0.000 N 
ATOM     33  C   UNL     1      50.452   2.309  17.148  0.00  0.00    +0.000 A 
ATOM     34  O   UNL     1      49.340   2.420  16.641  0.00  0.00    +0.000 OA
ATOM     35  C   UNL     1      51.195   3.409  17.732  0.00  0.00    +0.000 A 
ATOM     36  H   UNL     1      50.588   0.307  16.819  0.00  0.00    +0.000 HD
ENDBRANCH  23  26
ENDBRANCH  21  22
ENDBRANCH   4  21
TORSDOF 8
ENDMDL
MODEL 6
REMARK VINA RESULT:    -6.332      5.284      8.226
REMARK INTER + INTRA:         -10.861
REMARK INTER:                  -9.484
REMARK INTRA:                  -1.377
REMARK UNBOUND:                -1.568
REMARK  Name = 
REMARK  9 active torsions:
REMARK  status: ('A' for Active; 'I' for Inactive)
REMARK    1  A    between atoms: C_1  and  C_2
REMARK    2  A    between atoms: C_2  and  O_3
REMARK    3  A    between atoms: O_3  and  C_4
REMARK    4  A    between atoms: C_9  and  C_10
REMARK    5  A    between atoms: N_12  and  C_13
REMARK    6  A    between atoms: C_13  and  C_14
REMARK    7  A    between atoms: C_17  and  C_18
REMARK    8  A    between atoms: C_18  and  N_19
REMARK    9  A    between atoms: C_20  and  C_22
REMARK                            x       y       z     vdW  Elec       q    Type
REMARK                         _______ _______ _______ _____ _____    ______ ____
ROOT
ATOM      1  C   UNL     1      49.344   7.236  13.669  0.00  0.00    +0.000 A 
ATOM      2  C   UNL     1      50.452   7.832  14.287  0.00  0.00    +0.000 A 
ATOM      3  C   UNL     1      51.409   8.518  13.529  0.00  0.00    +0.000 A 
ATOM      4  C   UNL     1      51.263   8.643  12.141  0.00  0.00    +0.000 A 
ATOM      5  C   UNL     1      50.155   8.045  11.525  0.00  0.00    +0.000 A 
ATOM      6  C   UNL     1      49.201   7.358  12.282  0.00  0.00    +0.000 A 
ENDROOT
BRANCH   1   7
ATOM      7  C   UNL     1      48.307   6.504  14.484  0.00  0.00    +0.000 C 
BRANCH   7  10
ATOM      8  C   UNL     1      46.676   4.931  13.519  0.00  0.00    +0.000 C 
ATOM      9  O   UNL     1      47.278   3.960  13.966  0.00  0.00    +0.000 OA
ATOM     10  N   UNL     1      47.130   6.216  13.702  0.00  0.00    +0.000 N 
ATOM     11  H   UNL     1      46.597   6.985  13.309  0.00  0.00    +0.000 HD
BRANCH   8  17
ATOM     12  C   UNL     1      44.469   5.782  12.468  0.00  0.00    +0.000 A 
ATOM     13  C   UNL     1      43.258   5.456  11.832  0.00  0.00    +0.000 A 
ATOM     14  C   UNL     1      42.965   4.140  11.470  0.00  0.00    +0.000 A 
ATOM     15  C   UNL     1      43.879   3.129  11.731  0.00  0.00    +0.000 A 
ATOM     16  C   UNL     1      45.077   3.431  12.378  0.00  0.00    +0.000 A 
ATOM     17  C   UNL     1      45.383   4.749  12.770  0.00  0.00    +0.000 A 
BRANCH  12  18
ATOM     18  O   UNL     1      44.805   7.068  12.815  0.00  0.00    +0.000 OA
BRANCH  18  20
ATOM     19  C   UNL     1      45.640   9.244  12.285  0.00  0.00    +0.000 C 
ATOM     20  C   UNL     1      44.875   8.039  11.769  0.00  0.00    +0.000 C 
ENDBRANCH  18  20
ENDBRANCH  12  18
ENDBRANCH   8  17
ENDBRANCH   7  10
ENDBRANCH   1   7
BRANCH   4  21
ATOM     21  C   UNL     1      52.292   9.369  11.311  0.00  0.00    +0.000 C 
BRANCH  21  22
ATOM     22  N   UNL     1      52.471   8.735  10.028  0.00  0.00    +0.000 N 
ATOM     23  C   UNL     1      53.617   8.909   9.297  0.00  0.00    +0.000 C 
ATOM     24  O   UNL     1      54.563   9.571   9.716  0.00  0.00    +0.000 OA
ATOM     25  H   UNL     1      51.633   8.396   9.565  0.00  0.00    +0.000 HD
BRANCH  23  26
ATOM     26  C   UNL     1      53.684   8.209   8.006  0.00  0.00    +0.000 A 
ATOM     27  C   UNL     1      53.735   8.939   6.825  0.00  0.00    +0.000 A 
ATOM     28  S   UNL     1      53.865   7.970   5.428  0.00  0.00    +0.000 S 
ATOM     29  C   UNL     1      53.803   6.540   6.347  0.00  0.00    +0.000 A 
ATOM     30  N   UNL     1      53.845   5.320   5.747  0.00  0.00    +0.000 NA
ATOM     31  C   UNL     1      53.760   4.320   6.562  0.00  0.00    +0.000 A 
ATOM     32  N   UNL     1      53.640   4.431   7.924  0.00  0.00    +0.000 N 
ATOM     33  C   UNL     1      53.622   5.643   8.573  0.00  0.00    +0.000 A 
ATOM     34  O   UNL     1      53.555   5.705   9.798  0.00  0.00    +0.000 OA
ATOM     35  C   UNL     1      53.705   6.798   7.702  0.00  0.00    +0.000 A 
ATOM     36  H   UNL     1      53.586   3.611   8.507  0.00  0.00    +0.000 HD
ENDBRANCH  23  26
ENDBRANCH  21  22
ENDBRANCH   4  21
TORSDOF 8
ENDMDL
MODEL 7
REMARK VINA RESULT:    -6.077      3.178      9.123
REMARK INTER + INTRA:         -10.487
REMARK INTER:                  -9.690
REMARK INTRA:                  -0.798
REMARK UNBOUND:                -1.568
REMARK  Name = 
REMARK  9 active torsions:
REMARK  status: ('A' for Active; 'I' for Inactive)
REMARK    1  A    between atoms: C_1  and  C_2
REMARK    2  A    between atoms: C_2  and  O_3
REMARK    3  A    between atoms: O_3  and  C_4
REMARK    4  A    between atoms: C_9  and  C_10
REMARK    5  A    between atoms: N_12  and  C_13
REMARK    6  A    between atoms: C_13  and  C_14
REMARK    7  A    between atoms: C_17  and  C_18
REMARK    8  A    between atoms: C_18  and  N_19
REMARK    9  A    between atoms: C_20  and  C_22
REMARK                            x       y       z     vdW  Elec       q    Type
REMARK                         _______ _______ _______ _____ _____    ______ ____
ROOT
ATOM      1  C   UNL     1      45.491   6.689  11.863  0.00  0.00    +0.000 A 
ATOM      2  C   UNL     1      46.211   5.657  12.479  0.00  0.00    +0.000 A 
ATOM      3  C   UNL     1      47.282   5.946  13.334  0.00  0.00    +0.000 A 
ATOM      4  C   UNL     1      47.638   7.273  13.608  0.00  0.00    +0.000 A 
ATOM      5  C   UNL     1      46.918   8.304  12.989  0.00  0.00    +0.000 A 
ATOM      6  C   UNL     1      45.849   8.015  12.134  0.00  0.00    +0.000 A 
ENDROOT
BRANCH   1   7
ATOM      7  C   UNL     1      44.330   6.381  10.949  0.00  0.00    +0.000 C 
BRANCH   7  10
ATOM      8  C   UNL     1      45.634   5.168   9.247  0.00  0.00    +0.000 C 
ATOM      9  O   UNL     1      46.361   6.136   9.048  0.00  0.00    +0.000 OA
ATOM     10  N   UNL     1      44.591   5.214  10.143  0.00  0.00    +0.000 N 
ATOM     11  H   UNL     1      44.018   4.387  10.269  0.00  0.00    +0.000 HD
BRANCH   8  17
ATOM     12  C   UNL     1      45.714   2.586   9.096  0.00  0.00    +0.000 A 
ATOM     13  C   UNL     1      46.059   1.456   8.335  0.00  0.00    +0.000 A 
ATOM     14  C   UNL     1      46.530   1.582   7.027  0.00  0.00    +0.000 A 
ATOM     15  C   UNL     1      46.656   2.840   6.454  0.00  0.00    +0.000 A 
ATOM     16  C   UNL     1      46.336   3.973   7.200  0.00  0.00    +0.000 A 
ATOM     17  C   UNL     1      45.880   3.869   8.529  0.00  0.00    +0.000 A 
BRANCH  12  18
ATOM     18  O   UNL     1      45.222   2.500  10.376  0.00  0.00    +0.000 OA
BRANCH  18  20
ATOM     19  C   UNL     1      43.420   2.591  11.943  0.00  0.00    +0.000 C 
ATOM     20  C   UNL     1      43.833   2.209  10.534  0.00  0.00    +0.000 C 
ENDBRANCH  18  20
ENDBRANCH  12  18
ENDBRANCH   8  17
ENDBRANCH   7  10
ENDBRANCH   1   7
BRANCH   4  21
ATOM     21  C   UNL     1      48.797   7.599  14.516  0.00  0.00    +0.000 C 
BRANCH  21  22
ATOM     22  N   UNL     1      48.478   7.313  15.893  0.00  0.00    +0.000 N 
ATOM     23  C   UNL     1      49.059   8.008  16.922  0.00  0.00    +0.000 C 
ATOM     24  O   UNL     1      49.839   8.936  16.723  0.00  0.00    +0.000 OA
ATOM     25  H   UNL     1      48.040   6.417  16.085  0.00  0.00    +0.000 HD
BRANCH  23  26
ATOM     26  C   UNL     1      48.652   7.628  18.282  0.00  0.00    +0.000 A 
ATOM     27  C   UNL     1      48.092   8.578  19.127  0.00  0.00    +0.000 A 
ATOM     28  S   UNL     1      47.627   7.954  20.645  0.00  0.00    +0.000 S 
ATOM     29  C   UNL     1      48.208   6.406  20.247  0.00  0.00    +0.000 A 
ATOM     30  N   UNL     1      48.137   5.381  21.139  0.00  0.00    +0.000 NA
ATOM     31  C   UNL     1      48.641   4.268  20.716  0.00  0.00    +0.000 A 
ATOM     32  N   UNL     1      49.207   4.088  19.480  0.00  0.00    +0.000 N 
ATOM     33  C   UNL     1      49.274   5.087  18.538  0.00  0.00    +0.000 A 
ATOM     34  O   UNL     1      49.750   4.880  17.425  0.00  0.00    +0.000 OA
ATOM     35  C   UNL     1      48.730   6.360  18.967  0.00  0.00    +0.000 A 
ATOM     36  H   UNL     1      49.576   3.191  19.206  0.00  0.00    +0.000 HD
ENDBRANCH  23  26
ENDBRANCH  21  22
ENDBRANCH   4  21
TORSDOF 8
ENDMDL
MODEL 8
REMARK VINA RESULT:    -6.071      3.487      9.086
REMARK INTER + INTRA:         -10.477
REMARK INTER:                  -9.196
REMARK INTRA:                  -1.281
REMARK UNBOUND:                -1.568
REMARK  Name = 
REMARK  9 active torsions:
REMARK  status: ('A' for Active; 'I' for Inactive)
REMARK    1  A    between atoms: C_1  and  C_2
REMARK    2  A    between atoms: C_2  and  O_3
REMARK    3  A    between atoms: O_3  and  C_4
REMARK    4  A    between atoms: C_9  and  C_10
REMARK    5  A    between atoms: N_12  and  C_13
REMARK    6  A    between atoms: C_13  and  C_14
REMARK    7  A    between atoms: C_17  and  C_18
REMARK    8  A    between atoms: C_18  and  N_19
REMARK    9  A    between atoms: C_20  and  C_22
REMARK                            x       y       z     vdW  Elec       q    Type
REMARK                         _______ _______ _______ _____ _____    ______ ____
ROOT
ATOM      1  C   UNL     1      44.782   4.580  12.195  0.00  0.00    +0.000 A 
ATOM      2  C   UNL     1      45.968   4.793  12.911  0.00  0.00    +0.000 A 
ATOM      3  C   UNL     1      46.387   6.090  13.230  0.00  0.00    +0.000 A 
ATOM      4  C   UNL     1      45.615   7.200  12.860  0.00  0.00    +0.000 A 
ATOM      5  C   UNL     1      44.430   6.986  12.143  0.00  0.00    +0.000 A 
ATOM      6  C   UNL     1      44.013   5.690  11.823  0.00  0.00    +0.000 A 
ENDROOT
BRANCH   1   7
ATOM      7  C   UNL     1      44.323   3.183  11.859  0.00  0.00    +0.000 C 
BRANCH   7  10
ATOM      8  C   UNL     1      44.740   2.795   9.462  0.00  0.00    +0.000 C 
ATOM      9  O   UNL     1      43.715   3.389   9.141  0.00  0.00    +0.000 OA
ATOM     10  N   UNL     1      45.097   2.622  10.779  0.00  0.00    +0.000 N 
ATOM     11  H   UNL     1      45.953   2.121  10.992  0.00  0.00    +0.000 HD
BRANCH   8  17
ATOM     12  C   UNL     1      46.287   3.025   7.401  0.00  0.00    +0.000 A 
ATOM     13  C   UNL     1      47.070   2.375   6.431  0.00  0.00    +0.000 A 
ATOM     14  C   UNL     1      47.270   0.994   6.471  0.00  0.00    +0.000 A 
ATOM     15  C   UNL     1      46.696   0.240   7.485  0.00  0.00    +0.000 A 
ATOM     16  C   UNL     1      45.902   0.864   8.445  0.00  0.00    +0.000 A 
ATOM     17  C   UNL     1      45.670   2.254   8.410  0.00  0.00    +0.000 A 
BRANCH  12  18
ATOM     18  O   UNL     1      46.089   4.384   7.409  0.00  0.00    +0.000 OA
BRANCH  18  20
ATOM     19  C   UNL     1      46.289   5.853   9.285  0.00  0.00    +0.000 C 
ATOM     20  C   UNL     1      47.023   5.184   8.137  0.00  0.00    +0.000 C 
ENDBRANCH  18  20
ENDBRANCH  12  18
ENDBRANCH   8  17
ENDBRANCH   7  10
ENDBRANCH   1   7
BRANCH   4  21
ATOM     21  C   UNL     1      46.060   8.603  13.186  0.00  0.00    +0.000 C 
BRANCH  21  22
ATOM     22  N   UNL     1      46.801   8.643  14.422  0.00  0.00    +0.000 N 
ATOM     23  C   UNL     1      48.131   8.973  14.450  0.00  0.00    +0.000 C 
ATOM     24  O   UNL     1      48.744   9.295  13.434  0.00  0.00    +0.000 OA
ATOM     25  H   UNL     1      46.394   8.158  15.215  0.00  0.00    +0.000 HD
BRANCH  23  26
ATOM     26  C   UNL     1      48.777   8.983  15.770  0.00  0.00    +0.000 A 
ATOM     27  C   UNL     1      49.093  10.193  16.376  0.00  0.00    +0.000 A 
ATOM     28  S   UNL     1      49.785  10.021  17.925  0.00  0.00    +0.000 S 
ATOM     29  C   UNL     1      49.737   8.324  17.819  0.00  0.00    +0.000 A 
ATOM     30  N   UNL     1      50.213   7.546  18.828  0.00  0.00    +0.000 NA
ATOM     31  C   UNL     1      50.142   6.275  18.602  0.00  0.00    +0.000 A 
ATOM     32  N   UNL     1      49.635   5.713  17.458  0.00  0.00    +0.000 N 
ATOM     33  C   UNL     1      49.118   6.461  16.426  0.00  0.00    +0.000 A 
ATOM     34  O   UNL     1      48.632   5.924  15.434  0.00  0.00    +0.000 OA
ATOM     35  C   UNL     1      49.183   7.894  16.626  0.00  0.00    +0.000 A 
ATOM     36  H   UNL     1      49.599   4.712  17.345  0.00  0.00    +0.000 HD
ENDBRANCH  23  26
ENDBRANCH  21  22
ENDBRANCH   4  21
TORSDOF 8
ENDMDL
MODEL 9
REMARK VINA RESULT:    -5.883      3.238      9.080
REMARK INTER + INTRA:         -10.203
REMARK INTER:                  -9.181
REMARK INTRA:                  -1.022
REMARK UNBOUND:                -1.568
REMARK  Name = 
REMARK  9 active torsions:
REMARK  status: ('A' for Active; 'I' for Inactive)
REMARK    1  A    between atoms: C_1  and  C_2
REMARK    2  A    between atoms: C_2  and  O_3
REMARK    3  A    between atoms: O_3  and  C_4
REMARK    4  A    between atoms: C_9  and  C_10
REMARK    5  A    between atoms: N_12  and  C_13
REMARK    6  A    between atoms: C_13  and  C_14
REMARK    7  A    between atoms: C_17  and  C_18
REMARK    8  A    between atoms: C_18  and  N_19
REMARK    9  A    between atoms: C_20  and  C_22
REMARK                            x       y       z     vdW  Elec       q    Type
REMARK                         _______ _______ _______ _____ _____    ______ ____
ROOT
ATOM      1  C   UNL     1      47.132   7.696  12.493  0.00  0.00    +0.000 A 
ATOM      2  C   UNL     1      47.743   6.646  13.192  0.00  0.00    +0.000 A 
ATOM      3  C   UNL     1      48.932   6.858  13.902  0.00  0.00    +0.000 A 
ATOM      4  C   UNL     1      49.520   8.129  13.945  0.00  0.00    +0.000 A 
ATOM      5  C   UNL     1      48.908   9.177  13.243  0.00  0.00    +0.000 A 
ATOM      6  C   UNL     1      47.721   8.965  12.534  0.00  0.00    +0.000 A 
ENDROOT
BRANCH   1   7
ATOM      7  C   UNL     1      45.846   7.473  11.736  0.00  0.00    +0.000 C 
BRANCH   7  10
ATOM      8  C   UNL     1      44.733   5.656  10.501  0.00  0.00    +0.000 C 
ATOM      9  O   UNL     1      43.622   6.136  10.702  0.00  0.00    +0.000 OA
ATOM     10  N   UNL     1      45.877   6.232  11.000  0.00  0.00    +0.000 N 
ATOM     11  H   UNL     1      46.771   5.794  10.808  0.00  0.00    +0.000 HD
BRANCH   8  17
ATOM     12  C   UNL     1      44.247   3.182   9.915  0.00  0.00    +0.000 A 
ATOM     13  C   UNL     1      44.546   2.080   9.095  0.00  0.00    +0.000 A 
ATOM     14  C   UNL     1      45.434   2.195   8.024  0.00  0.00    +0.000 A 
ATOM     15  C   UNL     1      46.034   3.417   7.750  0.00  0.00    +0.000 A 
ATOM     16  C   UNL     1      45.764   4.516   8.563  0.00  0.00    +0.000 A 
ATOM     17  C   UNL     1      44.887   4.415   9.662  0.00  0.00    +0.000 A 
BRANCH  12  18
ATOM     18  O   UNL     1      43.359   3.113  10.961  0.00  0.00    +0.000 OA
BRANCH  18  20
ATOM     19  C   UNL     1      43.375   3.904  13.216  0.00  0.00    +0.000 C 
ATOM     20  C   UNL     1      43.886   2.842  12.260  0.00  0.00    +0.000 C 
ENDBRANCH  18  20
ENDBRANCH  12  18
ENDBRANCH   8  17
ENDBRANCH   7  10
ENDBRANCH   1   7
BRANCH   4  21
ATOM     21  C   UNL     1      50.806   8.369  14.694  0.00  0.00    +0.000 C 
BRANCH  21  22
ATOM     22  N   UNL     1      50.722   7.879  16.048  0.00  0.00    +0.000 N 
ATOM     23  C   UNL     1      51.670   7.035  16.565  0.00  0.00    +0.000 C 
ATOM     24  O   UNL     1      52.659   6.693  15.920  0.00  0.00    +0.000 OA
ATOM     25  H   UNL     1      49.817   7.947  16.503  0.00  0.00    +0.000 HD
BRANCH  23  26
ATOM     26  C   UNL     1      51.478   6.607  17.958  0.00  0.00    +0.000 A 
ATOM     27  C   UNL     1      52.369   7.023  18.938  0.00  0.00    +0.000 A 
ATOM     28  S   UNL     1      51.966   6.481  20.504  0.00  0.00    +0.000 S 
ATOM     29  C   UNL     1      50.616   5.626  19.919  0.00  0.00    +0.000 A 
ATOM     30  N   UNL     1      49.827   4.904  20.759  0.00  0.00    +0.000 NA
ATOM     31  C   UNL     1      48.855   4.281  20.177  0.00  0.00    +0.000 A 
ATOM     32  N   UNL     1      48.600   4.320  18.830  0.00  0.00    +0.000 N 
ATOM     33  C   UNL     1      49.354   5.059  17.949  0.00  0.00    +0.000 A 
ATOM     34  O   UNL     1      49.071   5.105  16.755  0.00  0.00    +0.000 OA
ATOM     35  C   UNL     1      50.464   5.769  18.552  0.00  0.00    +0.000 A 
ATOM     36  H   UNL     1      47.819   3.818  18.437  0.00  0.00    +0.000 HD
ENDBRANCH  23  26
ENDBRANCH  21  22
ENDBRANCH   4  21
TORSDOF 8
ENDMDL
