MODEL 1
REMARK VINA RESULT:    -8.136      0.000      0.000
REMARK INTER + INTRA:         -10.043
REMARK INTER:                  -9.563
REMARK INTRA:                  -0.480
REMARK UNBOUND:                -0.480
REMARK  Name = 
REMARK  3 active torsions:
REMARK  status: ('A' for Active; 'I' for Inactive)
REMARK    1  A    between atoms: C_2  and  C_4
REMARK    2  A    between atoms: N_8  and  C_9
REMARK    3  A    between atoms: C_9  and  C_10
REMARK                            x       y       z     vdW  Elec       q    Type
REMARK                         _______ _______ _______ _____ _____    ______ ____
ROOT
ATOM      1  C   UNL     1      46.398   2.293   7.715  0.00  0.00    +0.000 A 
ATOM      2  C   UNL     1      45.588   1.796   8.732  0.00  0.00    +0.000 A 
ATOM      3  C   UNL     1      44.720   2.664   9.394  0.00  0.00    +0.000 A 
ATOM      4  C   UNL     1      44.693   4.012   9.050  0.00  0.00    +0.000 A 
ATOM      5  N   UNL     1      43.818   4.915   9.602  0.00  0.00    +0.000 N 
ATOM      6  N   UNL     1      45.482   4.505   8.077  0.00  0.00    +0.000 NA
ATOM      7  C   UNL     1      46.320   3.647   7.436  0.00  0.00    +0.000 A 
ATOM      8  H   UNL     1      44.023   5.847   9.255  0.00  0.00    +0.000 HD
ENDROOT
BRANCH   1  10
ATOM      9  N   UNL     1      48.475   2.030   6.486  0.00  0.00    +0.000 N 
ATOM     10  C   UNL     1      47.327   1.445   6.943  0.00  0.00    +0.000 C 
ATOM     11  O   UNL     1      47.096   0.260   6.746  0.00  0.00    +0.000 OA
ATOM     12  H   UNL     1      49.148   1.413   6.046  0.00  0.00    +0.000 HD
ATOM     13  H   UNL     1      48.815   2.914   6.836  0.00  0.00    +0.000 HD
ENDBRANCH   1  10
BRANCH   5  14
ATOM     14  C   UNL     1      43.380   4.836  10.981  0.00  0.00    +0.000 C 
BRANCH  14  15
ATOM     15  C   UNL     1      44.508   5.190  11.921  0.00  0.00    +0.000 A 
ATOM     16  C   UNL     1      45.065   4.254  12.802  0.00  0.00    +0.000 A 
ATOM     17  C   UNL     1      46.110   4.642  13.625  0.00  0.00    +0.000 A 
ATOM     18  N   UNL     1      46.650   5.879  13.618  0.00  0.00    +0.000 NA
ATOM     19  C   UNL     1      46.115   6.764  12.753  0.00  0.00    +0.000 A 
ATOM     20  C   UNL     1      45.067   6.472  11.892  0.00  0.00    +0.000 A 
ENDBRANCH  14  15
ENDBRANCH   5  14
TORSDOF 3
ENDMDL
MODEL 2
REMARK VINA RESULT:    -7.339      2.693      6.230
REMARK INTER + INTRA:          -9.105
REMARK INTER:                  -8.646
REMARK INTRA:                  -0.459
REMARK UNBOUND:                -0.480
REMARK  Name = 
REMARK  3 active torsions:
REMARK  status: ('A' for Active; 'I' for Inactive)
REMARK    1  A    between atoms: C_2  and  C_4
REMARK    2  A    between atoms: N_8  and  C_9
REMARK    3  A    between atoms: C_9  and  C_10
REMARK                            x       y       z     vdW  Elec       q    Type
REMARK                         _______ _______ _______ _____ _____    ______ ____
ROOT
ATOM      1  C   UNL     1      46.513   5.144  12.964  0.00  0.00    +0.000 A 
ATOM      2  C   UNL     1      46.338   5.902  11.809  0.00  0.00    +0.000 A 
ATOM      3  C   UNL     1      45.632   5.353  10.739  0.00  0.00    +0.000 A 
ATOM      4  C   UNL     1      45.137   4.055  10.828  0.00  0.00    +0.000 A 
ATOM      5  N   UNL     1      44.372   3.470   9.848  0.00  0.00    +0.000 N 
ATOM      6  N   UNL     1      45.314   3.310  11.935  0.00  0.00    +0.000 NA
ATOM      7  C   UNL     1      45.998   3.859  12.974  0.00  0.00    +0.000 A 
ATOM      8  H   UNL     1      44.183   2.503  10.094  0.00  0.00    +0.000 HD
ENDROOT
BRANCH   1  10
ATOM      9  N   UNL     1      47.413   7.002  14.243  0.00  0.00    +0.000 N 
ATOM     10  C   UNL     1      47.221   5.651  14.156  0.00  0.00    +0.000 C 
ATOM     11  O   UNL     1      47.592   4.898  15.046  0.00  0.00    +0.000 OA
ATOM     12  H   UNL     1      47.810   7.343  15.111  0.00  0.00    +0.000 HD
ATOM     13  H   UNL     1      46.910   7.664  13.670  0.00  0.00    +0.000 HD
ENDBRANCH   1  10
BRANCH   5  14
ATOM     14  C   UNL     1      44.570   3.737   8.438  0.00  0.00    +0.000 C 
BRANCH  14  15
ATOM     15  C   UNL     1      45.721   2.922   7.896  0.00  0.00    +0.000 A 
ATOM     16  C   UNL     1      46.742   3.495   7.127  0.00  0.00    +0.000 A 
ATOM     17  C   UNL     1      47.777   2.692   6.676  0.00  0.00    +0.000 A 
ATOM     18  N   UNL     1      47.879   1.375   6.952  0.00  0.00    +0.000 NA
ATOM     19  C   UNL     1      46.898   0.842   7.709  0.00  0.00    +0.000 A 
ATOM     20  C   UNL     1      45.821   1.562   8.204  0.00  0.00    +0.000 A 
ENDBRANCH  14  15
ENDBRANCH   5  14
TORSDOF 3
ENDMDL
MODEL 3
REMARK VINA RESULT:    -7.030      1.549      1.859
REMARK INTER + INTRA:          -8.742
REMARK INTER:                  -8.461
REMARK INTRA:                  -0.281
REMARK UNBOUND:                -0.480
REMARK  Name = 
REMARK  3 active torsions:
REMARK  status: ('A' for Active; 'I' for Inactive)
REMARK    1  A    between atoms: C_2  and  C_4
REMARK    2  A    between atoms: N_8  and  C_9
REMARK    3  A    between atoms: C_9  and  C_10
REMARK                            x       y       z     vdW  Elec       q    Type
REMARK                         _______ _______ _______ _____ _____    ______ ____
ROOT
ATOM      1  C   UNL     1      46.684   2.499   7.193  0.00  0.00    +0.000 A 
ATOM      2  C   UNL     1      46.267   3.735   7.680  0.00  0.00    +0.000 A 
ATOM      3  C   UNL     1      45.497   3.782   8.840  0.00  0.00    +0.000 A 
ATOM      4  C   UNL     1      45.133   2.600   9.480  0.00  0.00    +0.000 A 
ATOM      5  N   UNL     1      44.439   2.565  10.664  0.00  0.00    +0.000 N 
ATOM      6  N   UNL     1      45.520   1.399   9.009  0.00  0.00    +0.000 NA
ATOM      7  C   UNL     1      46.277   1.368   7.880  0.00  0.00    +0.000 A 
ATOM      8  H   UNL     1      44.226   1.602  10.907  0.00  0.00    +0.000 HD
ENDROOT
BRANCH   1  10
ATOM      9  N   UNL     1      47.369   3.285   5.000  0.00  0.00    +0.000 N 
ATOM     10  C   UNL     1      47.524   2.353   5.988  0.00  0.00    +0.000 C 
ATOM     11  O   UNL     1      48.350   1.456   5.890  0.00  0.00    +0.000 OA
ATOM     12  H   UNL     1      48.020   3.231   4.226  0.00  0.00    +0.000 HD
ATOM     13  H   UNL     1      46.894   4.165   5.147  0.00  0.00    +0.000 HD
ENDBRANCH   1  10
BRANCH   5  14
ATOM     14  C   UNL     1      43.425   3.542  11.005  0.00  0.00    +0.000 C 
BRANCH  14  15
ATOM     15  C   UNL     1      44.050   4.757  11.649  0.00  0.00    +0.000 A 
ATOM     16  C   UNL     1      45.003   4.652  12.671  0.00  0.00    +0.000 A 
ATOM     17  C   UNL     1      45.548   5.807  13.206  0.00  0.00    +0.000 A 
ATOM     18  N   UNL     1      45.232   7.050  12.784  0.00  0.00    +0.000 NA
ATOM     19  C   UNL     1      44.327   7.135  11.788  0.00  0.00    +0.000 A 
ATOM     20  C   UNL     1      43.724   6.038  11.191  0.00  0.00    +0.000 A 
ENDBRANCH  14  15
ENDBRANCH   5  14
TORSDOF 3
ENDMDL
MODEL 4
REMARK VINA RESULT:    -6.290      3.067      6.465
REMARK INTER + INTRA:          -7.873
REMARK INTER:                  -7.602
REMARK INTRA:                  -0.270
REMARK UNBOUND:                -0.480
REMARK  Name = 
REMARK  3 active torsions:
REMARK  status: ('A' for Active; 'I' for Inactive)
REMARK    1  A    between atoms: C_2  and  C_4
REMARK    2  A    between atoms: N_8  and  C_9
REMARK    3  A    between atoms: C_9  and  C_10
REMARK                            x       y       z     vdW  Elec       q    Type
REMARK                         _______ _______ _______ _____ _____    ______ ____
ROOT
ATOM      1  C   UNL     1      46.817   7.492  12.994  0.00  0.00    +0.000 A 
ATOM      2  C   UNL     1      47.101   6.191  12.586  0.00  0.00    +0.000 A 
ATOM      3  C   UNL     1      46.228   5.551  11.708  0.00  0.00    +0.000 A 
ATOM      4  C   UNL     1      45.078   6.204  11.274  0.00  0.00    +0.000 A 
ATOM      5  N   UNL     1      44.207   5.671  10.355  0.00  0.00    +0.000 N 
ATOM      6  N   UNL     1      44.789   7.457  11.674  0.00  0.00    +0.000 NA
ATOM      7  C   UNL     1      45.651   8.072  12.525  0.00  0.00    +0.000 A 
ATOM      8  H   UNL     1      43.410   6.288  10.241  0.00  0.00    +0.000 HD
ENDROOT
BRANCH   1  10
ATOM      9  N   UNL     1      47.093   9.065  14.823  0.00  0.00    +0.000 N 
ATOM     10  C   UNL     1      47.696   8.258  13.899  0.00  0.00    +0.000 C 
ATOM     11  O   UNL     1      48.914   8.151  13.849  0.00  0.00    +0.000 OA
ATOM     12  H   UNL     1      47.703   9.506  15.500  0.00  0.00    +0.000 HD
ATOM     13  H   UNL     1      46.114   8.988  15.060  0.00  0.00    +0.000 HD
ENDBRANCH   1  10
BRANCH   5  14
ATOM     14  C   UNL     1      43.925   4.252  10.278  0.00  0.00    +0.000 C 
BRANCH  14  15
ATOM     15  C   UNL     1      44.834   3.580   9.276  0.00  0.00    +0.000 A 
ATOM     16  C   UNL     1      45.531   4.303   8.300  0.00  0.00    +0.000 A 
ATOM     17  C   UNL     1      46.361   3.625   7.423  0.00  0.00    +0.000 A 
ATOM     18  N   UNL     1      46.563   2.291   7.461  0.00  0.00    +0.000 NA
ATOM     19  C   UNL     1      45.899   1.610   8.418  0.00  0.00    +0.000 A 
ATOM     20  C   UNL     1      45.045   2.199   9.338  0.00  0.00    +0.000 A 
ENDBRANCH  14  15
ENDBRANCH   5  14
TORSDOF 3
ENDMDL
MODEL 5
REMARK VINA RESULT:    -5.827      4.107      6.172
REMARK INTER + INTRA:          -7.329
REMARK INTER:                  -7.082
REMARK INTRA:                  -0.247
REMARK UNBOUND:                -0.480
REMARK  Name = 
REMARK  3 active torsions:
REMARK  status: ('A' for Active; 'I' for Inactive)
REMARK    1  A    between atoms: C_2  and  C_4
REMARK    2  A    between atoms: N_8  and  C_9
REMARK    3  A    between atoms: C_9  and  C_10
REMARK                            x       y       z     vdW  Elec       q    Type
REMARK                         _______ _______ _______ _____ _____    ______ ____
ROOT
ATOM      1  C   UNL     1      44.680   4.662  11.781  0.00  0.00    +0.000 A 
ATOM      2  C   UNL     1      45.153   5.598  12.697  0.00  0.00    +0.000 A 
ATOM      3  C   UNL     1      46.021   5.181  13.705  0.00  0.00    +0.000 A 
ATOM      4  C   UNL     1      46.380   3.840  13.800  0.00  0.00    +0.000 A 
ATOM      5  N   UNL     1      47.284   3.363  14.718  0.00  0.00    +0.000 N 
ATOM      6  N   UNL     1      45.917   2.925  12.927  0.00  0.00    +0.000 NA
ATOM      7  C   UNL     1      45.077   3.346  11.945  0.00  0.00    +0.000 A 
ATOM      8  H   UNL     1      47.339   2.352  14.649  0.00  0.00    +0.000 HD
ENDROOT
BRANCH   1  10
ATOM      9  N   UNL     1      44.165   4.640   9.409  0.00  0.00    +0.000 N 
ATOM     10  C   UNL     1      43.781   5.015  10.666  0.00  0.00    +0.000 C 
ATOM     11  O   UNL     1      42.718   5.590  10.859  0.00  0.00    +0.000 OA
ATOM     12  H   UNL     1      43.493   4.799   8.667  0.00  0.00    +0.000 HD
ATOM     13  H   UNL     1      44.890   3.957   9.239  0.00  0.00    +0.000 HD
ENDBRANCH   1  10
BRANCH   5  14
ATOM     14  C   UNL     1      47.408   3.915  16.051  0.00  0.00    +0.000 C 
BRANCH  14  15
ATOM     15  C   UNL     1      48.743   3.550  16.658  0.00  0.00    +0.000 A 
ATOM     16  C   UNL     1      49.240   2.240  16.632  0.00  0.00    +0.000 A 
ATOM     17  C   UNL     1      50.480   1.979  17.192  0.00  0.00    +0.000 A 
ATOM     18  N   UNL     1      51.264   2.924  17.753  0.00  0.00    +0.000 NA
ATOM     19  C   UNL     1      50.779   4.183  17.755  0.00  0.00    +0.000 A 
ATOM     20  C   UNL     1      49.551   4.543  17.222  0.00  0.00    +0.000 A 
ENDBRANCH  14  15
ENDBRANCH   5  14
TORSDOF 3
ENDMDL
MODEL 6
REMARK VINA RESULT:    -5.428      4.838      8.343
REMARK INTER + INTRA:          -6.859
REMARK INTER:                  -6.627
REMARK INTRA:                  -0.232
REMARK UNBOUND:                -0.480
REMARK  Name = 
REMARK  3 active torsions:
REMARK  status: ('A' for Active; 'I' for Inactive)
REMARK    1  A    between atoms: C_2  and  C_4
REMARK    2  A    between atoms: N_8  and  C_9
REMARK    3  A    between atoms: C_9  and  C_10
REMARK                            x       y       z     vdW  Elec       q    Type
REMARK                         _______ _______ _______ _____ _____    ______ ____
ROOT
ATOM      1  C   UNL     1      48.680   4.442  18.031  0.00  0.00    +0.000 A 
ATOM      2  C   UNL     1      48.854   5.428  17.064  0.00  0.00    +0.000 A 
ATOM      3  C   UNL     1      48.060   5.402  15.919  0.00  0.00    +0.000 A 
ATOM      4  C   UNL     1      47.127   4.384  15.745  0.00  0.00    +0.000 A 
ATOM      5  N   UNL     1      46.258   4.328  14.683  0.00  0.00    +0.000 N 
ATOM      6  N   UNL     1      46.961   3.418  16.669  0.00  0.00    +0.000 NA
ATOM      7  C   UNL     1      47.738   3.459  17.784  0.00  0.00    +0.000 A 
ATOM      8  H   UNL     1      45.721   3.468  14.726  0.00  0.00    +0.000 HD
ENDROOT
BRANCH   1  10
ATOM      9  N   UNL     1      48.791   4.035  20.423  0.00  0.00    +0.000 N 
ATOM     10  C   UNL     1      49.456   4.404  19.287  0.00  0.00    +0.000 C 
ATOM     11  O   UNL     1      50.652   4.660  19.306  0.00  0.00    +0.000 OA
ATOM     12  H   UNL     1      49.357   3.916  21.255  0.00  0.00    +0.000 HD
ATOM     13  H   UNL     1      47.889   3.581  20.405  0.00  0.00    +0.000 HD
ENDBRANCH   1  10
BRANCH   5  14
ATOM     14  C   UNL     1      46.617   4.784  13.356  0.00  0.00    +0.000 C 
BRANCH  14  15
ATOM     15  C   UNL     1      45.491   4.532  12.381  0.00  0.00    +0.000 A 
ATOM     16  C   UNL     1      45.047   5.513  11.485  0.00  0.00    +0.000 A 
ATOM     17  C   UNL     1      44.020   5.208  10.606  0.00  0.00    +0.000 A 
ATOM     18  N   UNL     1      43.423   3.999  10.541  0.00  0.00    +0.000 NA
ATOM     19  C   UNL     1      43.873   3.060  11.398  0.00  0.00    +0.000 A 
ATOM     20  C   UNL     1      44.892   3.270  12.315  0.00  0.00    +0.000 A 
ENDBRANCH  14  15
ENDBRANCH   5  14
TORSDOF 3
ENDMDL
MODEL 7
REMARK VINA RESULT:    -5.213      3.328      5.416
REMARK INTER + INTRA:          -6.607
REMARK INTER:                  -6.220
REMARK INTRA:                  -0.387
REMARK UNBOUND:                -0.480
REMARK  Name = 
REMARK  3 active torsions:
REMARK  status: ('A' for Active; 'I' for Inactive)
REMARK    1  A    between atoms: C_2  and  C_4
REMARK    2  A    between atoms: N_8  and  C_9
REMARK    3  A    between atoms: C_9  and  C_10
REMARK                            x       y       z     vdW  Elec       q    Type
REMARK                         _______ _______ _______ _____ _____    ______ ____
ROOT
ATOM      1  C   UNL     1      44.828   4.190  11.500  0.00  0.00    +0.000 A 
ATOM      2  C   UNL     1      45.324   5.267  10.770  0.00  0.00    +0.000 A 
ATOM      3  C   UNL     1      45.957   6.310  11.445  0.00  0.00    +0.000 A 
ATOM      4  C   UNL     1      46.060   6.276  12.833  0.00  0.00    +0.000 A 
ATOM      5  N   UNL     1      46.730   7.227  13.563  0.00  0.00    +0.000 N 
ATOM      6  N   UNL     1      45.572   5.246  13.548  0.00  0.00    +0.000 NA
ATOM      7  C   UNL     1      44.963   4.232  12.878  0.00  0.00    +0.000 A 
ATOM      8  H   UNL     1      46.618   7.038  14.554  0.00  0.00    +0.000 HD
ENDROOT
BRANCH   1  10
ATOM      9  N   UNL     1      44.870   2.356   9.910  0.00  0.00    +0.000 N 
ATOM     10  C   UNL     1      44.169   3.030  10.871  0.00  0.00    +0.000 C 
ATOM     11  O   UNL     1      43.054   2.663  11.217  0.00  0.00    +0.000 OA
ATOM     12  H   UNL     1      44.447   1.505   9.559  0.00  0.00    +0.000 HD
ATOM     13  H   UNL     1      45.866   2.468   9.780  0.00  0.00    +0.000 HD
ENDBRANCH   1  10
BRANCH   5  14
ATOM     14  C   UNL     1      46.761   8.625  13.185  0.00  0.00    +0.000 C 
BRANCH  14  15
ATOM     15  C   UNL     1      48.134   9.014  12.688  0.00  0.00    +0.000 A 
ATOM     16  C   UNL     1      48.318   9.961  11.672  0.00  0.00    +0.000 A 
ATOM     17  C   UNL     1      49.605  10.283  11.276  0.00  0.00    +0.000 A 
ATOM     18  N   UNL     1      50.715   9.751  11.830  0.00  0.00    +0.000 NA
ATOM     19  C   UNL     1      50.523   8.854  12.818  0.00  0.00    +0.000 A 
ATOM     20  C   UNL     1      49.275   8.465  13.282  0.00  0.00    +0.000 A 
ENDBRANCH  14  15
ENDBRANCH   5  14
TORSDOF 3
ENDMDL
