MODEL 1
REMARK VINA RESULT:    -8.380      0.000      0.000
REMARK INTER + INTRA:         -10.417
REMARK INTER:                  -9.850
REMARK INTRA:                  -0.567
REMARK UNBOUND:                -0.567
REMARK  Name = 
REMARK  3 active torsions:
REMARK  status: ('A' for Active; 'I' for Inactive)
REMARK    1  A    between atoms: C_2  and  C_4
REMARK    2  A    between atoms: N_8  and  C_9
REMARK    3  A    between atoms: C_9  and  C_10
REMARK                            x       y       z     vdW  Elec       q    Type
REMARK                         _______ _______ _______ _____ _____    ______ ____
ROOT
ATOM      1  C   UNL     1      46.630   2.683   7.519  0.00  0.00    +0.000 A 
ATOM      2  C   UNL     1      46.305   4.030   7.660  0.00  0.00    +0.000 A 
ATOM      3  C   UNL     1      45.371   4.409   8.629  0.00  0.00    +0.000 A 
ATOM      4  C   UNL     1      44.764   3.435   9.419  0.00  0.00    +0.000 A 
ATOM      5  N   UNL     1      43.763   3.726  10.348  0.00  0.00    +0.000 N 
ATOM      6  N   UNL     1      45.052   2.124   9.269  0.00  0.00    +0.000 NA
ATOM      7  C   UNL     1      45.972   1.776   8.334  0.00  0.00    +0.000 A 
ATOM      8  H   UNL     1      43.547   2.831  10.785  0.00  0.00    +0.000 HD
ENDROOT
BRANCH   1  10
ATOM      9  N   UNL     1      47.757   2.914   5.377  0.00  0.00    +0.000 N 
ATOM     10  C   UNL     1      47.604   2.186   6.522  0.00  0.00    +0.000 C 
ATOM     11  O   UNL     1      48.271   1.180   6.729  0.00  0.00    +0.000 OA
ATOM     12  H   UNL     1      48.495   2.618   4.753  0.00  0.00    +0.000 HD
ATOM     13  H   UNL     1      47.418   3.861   5.280  0.00  0.00    +0.000 HD
ENDBRANCH   1  10
BRANCH   5  14
ATOM     14  C   UNL     1      43.817   4.878  11.273  0.00  0.00    +0.000 C 
ATOM     15  C   UNL     1      42.470   5.257  11.878  0.00  0.00    +0.000 C 
ATOM     16  C   UNL     1      43.162   6.211  10.965  0.00  0.00    +0.000 C 
BRANCH  14  17
ATOM     17  C   UNL     1      45.042   4.888  12.179  0.00  0.00    +0.000 A 
ATOM     18  C   UNL     1      45.820   6.036  12.388  0.00  0.00    +0.000 A 
ATOM     19  C   UNL     1      46.928   6.006  13.234  0.00  0.00    +0.000 A 
ATOM     20  C   UNL     1      47.239   4.814  13.863  0.00  0.00    +0.000 A 
ATOM     21  N   UNL     1      46.532   3.679  13.702  0.00  0.00    +0.000 NA
ATOM     22  C   UNL     1      45.459   3.749  12.874  0.00  0.00    +0.000 A 
ENDBRANCH  14  17
ENDBRANCH   5  14
TORSDOF 3
ENDMDL
MODEL 2
REMARK VINA RESULT:    -6.196      3.300      6.061
REMARK INTER + INTRA:          -7.849
REMARK INTER:                  -7.514
REMARK INTRA:                  -0.335
REMARK UNBOUND:                -0.567
REMARK  Name = 
REMARK  3 active torsions:
REMARK  status: ('A' for Active; 'I' for Inactive)
REMARK    1  A    between atoms: C_2  and  C_4
REMARK    2  A    between atoms: N_8  and  C_9
REMARK    3  A    between atoms: C_9  and  C_10
REMARK                            x       y       z     vdW  Elec       q    Type
REMARK                         _______ _______ _______ _____ _____    ______ ____
ROOT
ATOM      1  C   UNL     1      48.419   6.956  13.294  0.00  0.00    +0.000 A 
ATOM      2  C   UNL     1      47.744   5.849  13.801  0.00  0.00    +0.000 A 
ATOM      3  C   UNL     1      46.556   5.435  13.191  0.00  0.00    +0.000 A 
ATOM      4  C   UNL     1      46.055   6.148  12.103  0.00  0.00    +0.000 A 
ATOM      5  N   UNL     1      44.835   5.847  11.495  0.00  0.00    +0.000 N 
ATOM      6  N   UNL     1      46.688   7.240  11.623  0.00  0.00    +0.000 NA
ATOM      7  C   UNL     1      47.848   7.618  12.219  0.00  0.00    +0.000 A 
ATOM      8  H   UNL     1      44.760   6.509  10.723  0.00  0.00    +0.000 HD
ENDROOT
BRANCH   1  10
ATOM      9  N   UNL     1      50.741   7.626  13.026  0.00  0.00    +0.000 N 
ATOM     10  C   UNL     1      49.680   7.469  13.872  0.00  0.00    +0.000 C 
ATOM     11  O   UNL     1      49.761   7.772  15.056  0.00  0.00    +0.000 OA
ATOM     12  H   UNL     1      51.562   8.070  13.415  0.00  0.00    +0.000 HD
ATOM     13  H   UNL     1      50.645   7.624  12.020  0.00  0.00    +0.000 HD
ENDBRANCH   1  10
BRANCH   5  14
ATOM     14  C   UNL     1      44.394   4.471  11.185  0.00  0.00    +0.000 C 
ATOM     15  C   UNL     1      42.916   4.212  11.457  0.00  0.00    +0.000 C 
ATOM     16  C   UNL     1      43.949   3.490  12.253  0.00  0.00    +0.000 C 
BRANCH  14  17
ATOM     17  C   UNL     1      45.003   3.898   9.912  0.00  0.00    +0.000 A 
ATOM     18  C   UNL     1      45.113   2.519   9.679  0.00  0.00    +0.000 A 
ATOM     19  C   UNL     1      45.668   2.035   8.494  0.00  0.00    +0.000 A 
ATOM     20  C   UNL     1      46.106   2.951   7.554  0.00  0.00    +0.000 A 
ATOM     21  N   UNL     1      46.028   4.285   7.721  0.00  0.00    +0.000 NA
ATOM     22  C   UNL     1      45.479   4.718   8.883  0.00  0.00    +0.000 A 
ENDBRANCH  14  17
ENDBRANCH   5  14
TORSDOF 3
ENDMDL
MODEL 3
REMARK VINA RESULT:    -5.704      1.536      2.582
REMARK INTER + INTRA:          -7.271
REMARK INTER:                  -7.648
REMARK INTRA:                   0.377
REMARK UNBOUND:                -0.567
REMARK  Name = 
REMARK  3 active torsions:
REMARK  status: ('A' for Active; 'I' for Inactive)
REMARK    1  A    between atoms: C_2  and  C_4
REMARK    2  A    between atoms: N_8  and  C_9
REMARK    3  A    between atoms: C_9  and  C_10
REMARK                            x       y       z     vdW  Elec       q    Type
REMARK                         _______ _______ _______ _____ _____    ______ ____
ROOT
ATOM      1  C   UNL     1      46.510   2.966   7.374  0.00  0.00    +0.000 A 
ATOM      2  C   UNL     1      46.346   4.223   7.951  0.00  0.00    +0.000 A 
ATOM      3  C   UNL     1      45.515   4.358   9.067  0.00  0.00    +0.000 A 
ATOM      4  C   UNL     1      44.847   3.242   9.569  0.00  0.00    +0.000 A 
ATOM      5  N   UNL     1      43.937   3.313  10.626  0.00  0.00    +0.000 N 
ATOM      6  N   UNL     1      44.978   2.026   8.997  0.00  0.00    +0.000 NA
ATOM      7  C   UNL     1      45.801   1.910   7.923  0.00  0.00    +0.000 A 
ATOM      8  H   UNL     1      43.647   2.348  10.782  0.00  0.00    +0.000 HD
ENDROOT
BRANCH   1  10
ATOM      9  N   UNL     1      48.586   2.150   6.407  0.00  0.00    +0.000 N 
ATOM     10  C   UNL     1      47.366   2.725   6.192  0.00  0.00    +0.000 C 
ATOM     11  O   UNL     1      46.984   2.999   5.062  0.00  0.00    +0.000 OA
ATOM     12  H   UNL     1      49.115   1.900   5.583  0.00  0.00    +0.000 HD
ATOM     13  H   UNL     1      48.831   1.690   7.274  0.00  0.00    +0.000 HD
ENDBRANCH   1  10
BRANCH   5  14
ATOM     14  C   UNL     1      44.170   4.104  11.852  0.00  0.00    +0.000 C 
ATOM     15  C   UNL     1      45.198   3.497  12.801  0.00  0.00    +0.000 C 
ATOM     16  C   UNL     1      43.776   3.615  13.233  0.00  0.00    +0.000 C 
BRANCH  14  17
ATOM     17  C   UNL     1      44.204   5.610  11.621  0.00  0.00    +0.000 A 
ATOM     18  C   UNL     1      45.369   6.374  11.779  0.00  0.00    +0.000 A 
ATOM     19  C   UNL     1      45.360   7.750  11.547  0.00  0.00    +0.000 A 
ATOM     20  C   UNL     1      44.171   8.339  11.156  0.00  0.00    +0.000 A 
ATOM     21  N   UNL     1      43.021   7.659  10.989  0.00  0.00    +0.000 NA
ATOM     22  C   UNL     1      43.070   6.324  11.220  0.00  0.00    +0.000 A 
ENDBRANCH  14  17
ENDBRANCH   5  14
TORSDOF 3
ENDMDL
MODEL 4
REMARK VINA RESULT:    -5.624      3.207      6.582
REMARK INTER + INTRA:          -7.177
REMARK INTER:                  -7.678
REMARK INTRA:                   0.501
REMARK UNBOUND:                -0.567
REMARK  Name = 
REMARK  3 active torsions:
REMARK  status: ('A' for Active; 'I' for Inactive)
REMARK    1  A    between atoms: C_2  and  C_4
REMARK    2  A    between atoms: N_8  and  C_9
REMARK    3  A    between atoms: C_9  and  C_10
REMARK                            x       y       z     vdW  Elec       q    Type
REMARK                         _______ _______ _______ _____ _____    ______ ____
ROOT
ATOM      1  C   UNL     1      48.325   5.800  15.496  0.00  0.00    +0.000 A 
ATOM      2  C   UNL     1      48.060   6.244  14.203  0.00  0.00    +0.000 A 
ATOM      3  C   UNL     1      47.101   5.579  13.435  0.00  0.00    +0.000 A 
ATOM      4  C   UNL     1      46.442   4.471  13.965  0.00  0.00    +0.000 A 
ATOM      5  N   UNL     1      45.533   3.705  13.231  0.00  0.00    +0.000 N 
ATOM      6  N   UNL     1      46.713   4.016  15.207  0.00  0.00    +0.000 NA
ATOM      7  C   UNL     1      47.638   4.683  15.943  0.00  0.00    +0.000 A 
ATOM      8  H   UNL     1      45.201   2.999  13.887  0.00  0.00    +0.000 HD
ENDROOT
BRANCH   1  10
ATOM      9  N   UNL     1      48.879   7.415  17.227  0.00  0.00    +0.000 N 
ATOM     10  C   UNL     1      49.323   6.438  16.382  0.00  0.00    +0.000 C 
ATOM     11  O   UNL     1      50.495   6.082  16.382  0.00  0.00    +0.000 OA
ATOM     12  H   UNL     1      49.551   7.769  17.894  0.00  0.00    +0.000 HD
ATOM     13  H   UNL     1      47.900   7.560  17.431  0.00  0.00    +0.000 HD
ENDBRANCH   1  10
BRANCH   5  14
ATOM     14  C   UNL     1      44.494   4.287  12.357  0.00  0.00    +0.000 C 
ATOM     15  C   UNL     1      43.973   5.642  12.823  0.00  0.00    +0.000 C 
ATOM     16  C   UNL     1      43.054   4.469  12.800  0.00  0.00    +0.000 C 
BRANCH  14  17
ATOM     17  C   UNL     1      44.752   4.087  10.869  0.00  0.00    +0.000 A 
ATOM     18  C   UNL     1      45.468   5.012  10.094  0.00  0.00    +0.000 A 
ATOM     19  C   UNL     1      45.693   4.785   8.736  0.00  0.00    +0.000 A 
ATOM     20  C   UNL     1      45.192   3.625   8.174  0.00  0.00    +0.000 A 
ATOM     21  N   UNL     1      44.497   2.701   8.865  0.00  0.00    +0.000 NA
ATOM     22  C   UNL     1      44.302   2.954  10.184  0.00  0.00    +0.000 A 
ENDBRANCH  14  17
ENDBRANCH   5  14
TORSDOF 3
ENDMDL
MODEL 5
REMARK VINA RESULT:    -5.451      3.279      5.126
REMARK INTER + INTRA:          -6.974
REMARK INTER:                  -6.923
REMARK INTRA:                  -0.052
REMARK UNBOUND:                -0.567
REMARK  Name = 
REMARK  3 active torsions:
REMARK  status: ('A' for Active; 'I' for Inactive)
REMARK    1  A    between atoms: C_2  and  C_4
REMARK    2  A    between atoms: N_8  and  C_9
REMARK    3  A    between atoms: C_9  and  C_10
REMARK                            x       y       z     vdW  Elec       q    Type
REMARK                         _______ _______ _______ _____ _____    ______ ____
ROOT
ATOM      1  C   UNL     1      44.519   4.260  11.485  0.00  0.00    +0.000 A 
ATOM      2  C   UNL     1      45.405   5.039  10.745  0.00  0.00    +0.000 A 
ATOM      3  C   UNL     1      45.880   6.236  11.287  0.00  0.00    +0.000 A 
ATOM      4  C   UNL     1      45.442   6.643  12.547  0.00  0.00    +0.000 A 
ATOM      5  N   UNL     1      45.806   7.864  13.119  0.00  0.00    +0.000 N 
ATOM      6  N   UNL     1      44.561   5.908  13.259  0.00  0.00    +0.000 NA
ATOM      7  C   UNL     1      44.122   4.741  12.722  0.00  0.00    +0.000 A 
ATOM      8  H   UNL     1      45.365   7.860  14.039  0.00  0.00    +0.000 HD
ENDROOT
BRANCH   1  10
ATOM      9  N   UNL     1      44.584   2.392   9.930  0.00  0.00    +0.000 N 
ATOM     10  C   UNL     1      43.962   2.981  10.994  0.00  0.00    +0.000 C 
ATOM     11  O   UNL     1      43.001   2.453  11.540  0.00  0.00    +0.000 OA
ATOM     12  H   UNL     1      44.254   1.472   9.672  0.00  0.00    +0.000 HD
ATOM     13  H   UNL     1      45.507   2.660   9.618  0.00  0.00    +0.000 HD
ENDBRANCH   1  10
BRANCH   5  14
ATOM     14  C   UNL     1      47.181   8.404  13.086  0.00  0.00    +0.000 C 
ATOM     15  C   UNL     1      47.277   9.836  12.571  0.00  0.00    +0.000 C 
ATOM     16  C   UNL     1      47.905   8.731  11.793  0.00  0.00    +0.000 C 
BRANCH  14  17
ATOM     17  C   UNL     1      48.029   8.013  14.289  0.00  0.00    +0.000 A 
ATOM     18  C   UNL     1      48.226   8.864  15.386  0.00  0.00    +0.000 A 
ATOM     19  C   UNL     1      49.002   8.463  16.474  0.00  0.00    +0.000 A 
ATOM     20  C   UNL     1      49.571   7.202  16.442  0.00  0.00    +0.000 A 
ATOM     21  N   UNL     1      49.419   6.341  15.418  0.00  0.00    +0.000 NA
ATOM     22  C   UNL     1      48.655   6.765  14.380  0.00  0.00    +0.000 A 
ENDBRANCH  14  17
ENDBRANCH   5  14
TORSDOF 3
ENDMDL
MODEL 6
REMARK VINA RESULT:    -5.393      3.435      6.319
REMARK INTER + INTRA:          -6.906
REMARK INTER:                  -7.365
REMARK INTRA:                   0.459
REMARK UNBOUND:                -0.567
REMARK  Name = 
REMARK  3 active torsions:
REMARK  status: ('A' for Active; 'I' for Inactive)
REMARK    1  A    between atoms: C_2  and  C_4
REMARK    2  A    between atoms: N_8  and  C_9
REMARK    3  A    between atoms: C_9  and  C_10
REMARK                            x       y       z     vdW  Elec       q    Type
REMARK                         _______ _______ _______ _____ _____    ______ ____
ROOT
ATOM      1  C   UNL     1      48.784   7.270  13.801  0.00  0.00    +0.000 A 
ATOM      2  C   UNL     1      48.199   7.227  12.538  0.00  0.00    +0.000 A 
ATOM      3  C   UNL     1      47.243   6.246  12.260  0.00  0.00    +0.000 A 
ATOM      4  C   UNL     1      46.909   5.313  13.241  0.00  0.00    +0.000 A 
ATOM      5  N   UNL     1      46.027   4.255  13.013  0.00  0.00    +0.000 N 
ATOM      6  N   UNL     1      47.492   5.330  14.459  0.00  0.00    +0.000 NA
ATOM      7  C   UNL     1      48.408   6.299  14.715  0.00  0.00    +0.000 A 
ATOM      8  H   UNL     1      45.960   3.776  13.911  0.00  0.00    +0.000 HD
ENDROOT
BRANCH   1  10
ATOM      9  N   UNL     1      51.116   7.925  14.014  0.00  0.00    +0.000 N 
ATOM     10  C   UNL     1      49.805   8.269  14.186  0.00  0.00    +0.000 C 
ATOM     11  O   UNL     1      49.488   9.372  14.612  0.00  0.00    +0.000 OA
ATOM     12  H   UNL     1      51.796   8.653  14.187  0.00  0.00    +0.000 HD
ATOM     13  H   UNL     1      51.407   7.141  13.447  0.00  0.00    +0.000 HD
ENDBRANCH   1  10
BRANCH   5  14
ATOM     14  C   UNL     1      44.750   4.399  12.283  0.00  0.00    +0.000 C 
ATOM     15  C   UNL     1      43.929   5.616  12.693  0.00  0.00    +0.000 C 
ATOM     16  C   UNL     1      43.398   4.248  12.953  0.00  0.00    +0.000 C 
BRANCH  14  17
ATOM     17  C   UNL     1      44.843   4.058  10.801  0.00  0.00    +0.000 A 
ATOM     18  C   UNL     1      44.419   2.827  10.279  0.00  0.00    +0.000 A 
ATOM     19  C   UNL     1      44.511   2.559   8.913  0.00  0.00    +0.000 A 
ATOM     20  C   UNL     1      45.030   3.540   8.087  0.00  0.00    +0.000 A 
ATOM     21  N   UNL     1      45.454   4.739   8.528  0.00  0.00    +0.000 NA
ATOM     22  C   UNL     1      45.345   4.964   9.861  0.00  0.00    +0.000 A 
ENDBRANCH  14  17
ENDBRANCH   5  14
TORSDOF 3
ENDMDL
