MODEL 1
REMARK VINA RESULT:    -8.054      0.000      0.000
REMARK INTER + INTRA:         -12.374
REMARK INTER:                 -11.585
REMARK INTRA:                  -0.789
REMARK UNBOUND:                -0.789
REMARK  Name = 
REMARK  8 active torsions:
REMARK  status: ('A' for Active; 'I' for Inactive)
REMARK    1  A    between atoms: N_1  and  C_2
REMARK    2  A    between atoms: C_2  and  C_3
REMARK    3  A    between atoms: C_2  and  C_18
REMARK    4  A    between atoms: C_3  and  C_4
REMARK    5  A    between atoms: C_7  and  C_8
REMARK    6  A    between atoms: C_8  and  N_9
REMARK    7  A    between atoms: N_9  and  C_10
REMARK    8  A    between atoms: C_10  and  C_11
REMARK                            x       y       z     vdW  Elec       q    Type
REMARK                         _______ _______ _______ _____ _____    ______ ____
ROOT
ATOM      1  C   UNL     1      47.908   5.554  15.446  0.00  0.00    +0.000 C 
ENDROOT
BRANCH   1   2
ATOM      2  C   UNL     1      47.112   5.136  14.235  0.00  0.00    +0.000 A 
ATOM      3  C   UNL     1      46.821   3.784  14.012  0.00  0.00    +0.000 A 
ATOM      4  C   UNL     1      46.077   3.395  12.899  0.00  0.00    +0.000 A 
ATOM      5  C   UNL     1      45.597   4.353  11.994  0.00  0.00    +0.000 A 
ATOM      6  C   UNL     1      45.895   5.704  12.218  0.00  0.00    +0.000 A 
ATOM      7  C   UNL     1      46.651   6.092  13.324  0.00  0.00    +0.000 A 
BRANCH   5   8
ATOM      8  C   UNL     1      44.788   3.934  10.792  0.00  0.00    +0.000 C 
BRANCH   8   9
ATOM      9  N   UNL     1      45.007   2.522  10.469  0.00  0.00    +0.000 NA
ATOM     10  H   UNL     1      44.423   1.965  11.096  0.00  0.00    +0.000 HD
BRANCH   9  11
ATOM     11  C   UNL     1      44.609   2.255   9.092  0.00  0.00    +0.000 C 
BRANCH  11  12
ATOM     12  C   UNL     1      45.799   2.210   8.208  0.00  0.00    +0.000 A 
ATOM     13  C   UNL     1      46.480   3.196   7.528  0.00  0.00    +0.000 A 
ATOM     14  C   UNL     1      47.536   2.525   6.884  0.00  0.00    +0.000 A 
ATOM     15  N   UNL     1      47.536   1.216   7.137  0.00  0.00    +0.000 NA
ATOM     16  N   UNL     1      46.476   1.048   7.948  0.00  0.00    +0.000 N 
ATOM     17  H   UNL     1      46.244   0.118   8.279  0.00  0.00    +0.000 HD
ENDBRANCH  11  12
ENDBRANCH   9  11
ENDBRANCH   8   9
ENDBRANCH   5   8
ENDBRANCH   1   2
BRANCH   1  18
ATOM     18  C   UNL     1      47.905   4.524  16.602  0.00  0.00    +0.000 C 
BRANCH  18  19
ATOM     19  C   UNL     1      49.233   4.495  17.322  0.00  0.00    +0.000 A 
ATOM     20  C   UNL     1      49.731   5.562  18.055  0.00  0.00    +0.000 A 
ATOM     21  S   UNL     1      51.243   5.236  18.779  0.00  0.00    +0.000 S 
ATOM     22  C   UNL     1      51.286   3.662  18.126  0.00  0.00    +0.000 A 
ATOM     23  N   UNL     1      52.335   2.828  18.362  0.00  0.00    +0.000 NA
ATOM     24  C   UNL     1      52.223   1.668  17.805  0.00  0.00    +0.000 A 
ATOM     25  N   UNL     1      51.160   1.262  17.037  0.00  0.00    +0.000 N 
ATOM     26  C   UNL     1      50.093   2.078  16.747  0.00  0.00    +0.000 A 
ATOM     27  O   UNL     1      49.181   1.696  16.018  0.00  0.00    +0.000 OA
ATOM     28  C   UNL     1      50.164   3.389  17.369  0.00  0.00    +0.000 A 
ATOM     29  H   UNL     1      51.141   0.342  16.623  0.00  0.00    +0.000 HD
ENDBRANCH  18  19
BRANCH  18  30
ATOM     30  N   UNL     1      46.869   4.730  17.618  0.00  0.00    +0.000 NA
ATOM     31  H   UNL     1      46.932   3.973  18.299  0.00  0.00    +0.000 HD
ATOM     32  H   UNL     1      45.958   4.600  17.168  0.00  0.00    +0.000 HD
ENDBRANCH  18  30
ENDBRANCH   1  18
TORSDOF 8
ENDMDL
MODEL 2
REMARK VINA RESULT:    -7.530      1.814      2.524
REMARK INTER + INTRA:         -11.621
REMARK INTER:                 -10.770
REMARK INTRA:                  -0.851
REMARK UNBOUND:                -0.789
REMARK  Name = 
REMARK  8 active torsions:
REMARK  status: ('A' for Active; 'I' for Inactive)
REMARK    1  A    between atoms: N_1  and  C_2
REMARK    2  A    between atoms: C_2  and  C_3
REMARK    3  A    between atoms: C_2  and  C_18
REMARK    4  A    between atoms: C_3  and  C_4
REMARK    5  A    between atoms: C_7  and  C_8
REMARK    6  A    between atoms: C_8  and  N_9
REMARK    7  A    between atoms: N_9  and  C_10
REMARK    8  A    between atoms: C_10  and  C_11
REMARK                            x       y       z     vdW  Elec       q    Type
REMARK                         _______ _______ _______ _____ _____    ______ ____
ROOT
ATOM      1  C   UNL     1      48.147   6.202  13.321  0.00  0.00    +0.000 C 
ENDROOT
BRANCH   1   2
ATOM      2  C   UNL     1      47.004   5.657  12.500  0.00  0.00    +0.000 A 
ATOM      3  C   UNL     1      46.598   6.313  11.331  0.00  0.00    +0.000 A 
ATOM      4  C   UNL     1      45.549   5.807  10.566  0.00  0.00    +0.000 A 
ATOM      5  C   UNL     1      44.896   4.625  10.945  0.00  0.00    +0.000 A 
ATOM      6  C   UNL     1      45.302   3.975  12.118  0.00  0.00    +0.000 A 
ATOM      7  C   UNL     1      46.343   4.489  12.892  0.00  0.00    +0.000 A 
BRANCH   5   8
ATOM      8  C   UNL     1      43.764   4.074  10.115  0.00  0.00    +0.000 C 
BRANCH   8   9
ATOM      9  N   UNL     1      44.233   3.639   8.797  0.00  0.00    +0.000 NA
ATOM     10  H   UNL     1      44.918   4.323   8.469  0.00  0.00    +0.000 HD
BRANCH   9  11
ATOM     11  C   UNL     1      44.881   2.336   8.901  0.00  0.00    +0.000 C 
BRANCH  11  12
ATOM     12  C   UNL     1      46.072   2.278   8.020  0.00  0.00    +0.000 A 
ATOM     13  C   UNL     1      46.757   3.255   7.331  0.00  0.00    +0.000 A 
ATOM     14  C   UNL     1      47.814   2.575   6.697  0.00  0.00    +0.000 A 
ATOM     15  N   UNL     1      47.810   1.269   6.965  0.00  0.00    +0.000 NA
ATOM     16  N   UNL     1      46.748   1.113   7.775  0.00  0.00    +0.000 N 
ATOM     17  H   UNL     1      46.513   0.187   8.116  0.00  0.00    +0.000 HD
ENDBRANCH  11  12
ENDBRANCH   9  11
ENDBRANCH   8   9
ENDBRANCH   5   8
ENDBRANCH   1   2
BRANCH   1  18
ATOM     18  C   UNL     1      47.736   6.739  14.714  0.00  0.00    +0.000 C 
BRANCH  18  19
ATOM     19  C   UNL     1      48.679   6.261  15.793  0.00  0.00    +0.000 A 
ATOM     20  C   UNL     1      49.895   6.867  16.072  0.00  0.00    +0.000 A 
ATOM     21  S   UNL     1      50.739   6.127  17.359  0.00  0.00    +0.000 S 
ATOM     22  C   UNL     1      49.511   4.965  17.577  0.00  0.00    +0.000 A 
ATOM     23  N   UNL     1      49.609   4.006  18.537  0.00  0.00    +0.000 NA
ATOM     24  C   UNL     1      48.601   3.200  18.584  0.00  0.00    +0.000 A 
ATOM     25  N   UNL     1      47.502   3.266  17.765  0.00  0.00    +0.000 N 
ATOM     26  C   UNL     1      47.371   4.198  16.763  0.00  0.00    +0.000 A 
ATOM     27  O   UNL     1      46.393   4.197  16.019  0.00  0.00    +0.000 OA
ATOM     28  C   UNL     1      48.473   5.140  16.683  0.00  0.00    +0.000 A 
ATOM     29  H   UNL     1      46.751   2.598  17.850  0.00  0.00    +0.000 HD
ENDBRANCH  18  19
BRANCH  18  30
ATOM     30  N   UNL     1      47.662   8.199  14.823  0.00  0.00    +0.000 NA
ATOM     31  H   UNL     1      48.520   8.532  15.263  0.00  0.00    +0.000 HD
ATOM     32  H   UNL     1      46.920   8.426  15.493  0.00  0.00    +0.000 HD
ENDBRANCH  18  30
ENDBRANCH   1  18
TORSDOF 8
ENDMDL
MODEL 3
REMARK VINA RESULT:    -7.200      3.188      8.425
REMARK INTER + INTRA:         -11.146
REMARK INTER:                 -10.469
REMARK INTRA:                  -0.676
REMARK UNBOUND:                -0.789
REMARK  Name = 
REMARK  8 active torsions:
REMARK  status: ('A' for Active; 'I' for Inactive)
REMARK    1  A    between atoms: N_1  and  C_2
REMARK    2  A    between atoms: C_2  and  C_3
REMARK    3  A    between atoms: C_2  and  C_18
REMARK    4  A    between atoms: C_3  and  C_4
REMARK    5  A    between atoms: C_7  and  C_8
REMARK    6  A    between atoms: C_8  and  N_9
REMARK    7  A    between atoms: N_9  and  C_10
REMARK    8  A    between atoms: C_10  and  C_11
REMARK                            x       y       z     vdW  Elec       q    Type
REMARK                         _______ _______ _______ _____ _____    ______ ____
ROOT
ATOM      1  C   UNL     1      46.796   6.622  11.343  0.00  0.00    +0.000 C 
ENDROOT
BRANCH   1   2
ATOM      2  C   UNL     1      47.298   6.520  12.762  0.00  0.00    +0.000 A 
ATOM      3  C   UNL     1      47.117   5.340  13.493  0.00  0.00    +0.000 A 
ATOM      4  C   UNL     1      47.589   5.239  14.801  0.00  0.00    +0.000 A 
ATOM      5  C   UNL     1      48.266   6.312  15.397  0.00  0.00    +0.000 A 
ATOM      6  C   UNL     1      48.440   7.494  14.664  0.00  0.00    +0.000 A 
ATOM      7  C   UNL     1      47.956   7.599  13.361  0.00  0.00    +0.000 A 
BRANCH   5   8
ATOM      8  C   UNL     1      48.780   6.203  16.811  0.00  0.00    +0.000 C 
BRANCH   8   9
ATOM      9  N   UNL     1      47.865   5.427  17.652  0.00  0.00    +0.000 NA
ATOM     10  H   UNL     1      47.289   4.851  17.036  0.00  0.00    +0.000 HD
BRANCH   9  11
ATOM     11  C   UNL     1      48.622   4.553  18.542  0.00  0.00    +0.000 C 
BRANCH  11  12
ATOM     12  C   UNL     1      49.283   3.474  17.771  0.00  0.00    +0.000 A 
ATOM     13  C   UNL     1      50.577   3.002  17.770  0.00  0.00    +0.000 A 
ATOM     14  C   UNL     1      50.576   1.948  16.836  0.00  0.00    +0.000 A 
ATOM     15  N   UNL     1      49.375   1.756  16.290  0.00  0.00    +0.000 NA
ATOM     16  N   UNL     1      48.605   2.689  16.877  0.00  0.00    +0.000 N 
ATOM     17  H   UNL     1      47.627   2.764  16.617  0.00  0.00    +0.000 HD
ENDBRANCH  11  12
ENDBRANCH   9  11
ENDBRANCH   8   9
ENDBRANCH   5   8
ENDBRANCH   1   2
BRANCH   1  18
ATOM     18  C   UNL     1      45.253   6.629  11.208  0.00  0.00    +0.000 C 
BRANCH  18  19
ATOM     19  C   UNL     1      44.693   5.226  11.176  0.00  0.00    +0.000 A 
ATOM     20  C   UNL     1      43.956   4.672  12.211  0.00  0.00    +0.000 A 
ATOM     21  S   UNL     1      43.431   3.079  11.889  0.00  0.00    +0.000 S 
ATOM     22  C   UNL     1      44.183   3.075  10.359  0.00  0.00    +0.000 A 
ATOM     23  N   UNL     1      44.122   1.987   9.545  0.00  0.00    +0.000 NA
ATOM     24  C   UNL     1      44.734   2.135   8.417  0.00  0.00    +0.000 A 
ATOM     25  N   UNL     1      45.399   3.270   8.026  0.00  0.00    +0.000 N 
ATOM     26  C   UNL     1      45.514   4.383   8.826  0.00  0.00    +0.000 A 
ATOM     27  O   UNL     1      46.157   5.364   8.460  0.00  0.00    +0.000 OA
ATOM     28  C   UNL     1      44.823   4.271  10.098  0.00  0.00    +0.000 A 
ATOM     29  H   UNL     1      45.866   3.316   7.133  0.00  0.00    +0.000 HD
ENDBRANCH  18  19
BRANCH  18  30
ATOM     30  N   UNL     1      44.538   7.354  12.262  0.00  0.00    +0.000 NA
ATOM     31  H   UNL     1      44.920   7.069  13.165  0.00  0.00    +0.000 HD
ATOM     32  H   UNL     1      43.570   7.018  12.272  0.00  0.00    +0.000 HD
ENDBRANCH  18  30
ENDBRANCH   1  18
TORSDOF 8
ENDMDL
MODEL 4
REMARK VINA RESULT:    -7.113      4.627      5.762
REMARK INTER + INTRA:         -11.021
REMARK INTER:                  -9.980
REMARK INTRA:                  -1.041
REMARK UNBOUND:                -0.789
REMARK  Name = 
REMARK  8 active torsions:
REMARK  status: ('A' for Active; 'I' for Inactive)
REMARK    1  A    between atoms: N_1  and  C_2
REMARK    2  A    between atoms: C_2  and  C_3
REMARK    3  A    between atoms: C_2  and  C_18
REMARK    4  A    between atoms: C_3  and  C_4
REMARK    5  A    between atoms: C_7  and  C_8
REMARK    6  A    between atoms: C_8  and  N_9
REMARK    7  A    between atoms: N_9  and  C_10
REMARK    8  A    between atoms: C_10  and  C_11
REMARK                            x       y       z     vdW  Elec       q    Type
REMARK                         _______ _______ _______ _____ _____    ______ ____
ROOT
ATOM      1  C   UNL     1      47.079   7.438  12.935  0.00  0.00    +0.000 C 
ENDROOT
BRANCH   1   2
ATOM      2  C   UNL     1      46.317   6.280  12.339  0.00  0.00    +0.000 A 
ATOM      3  C   UNL     1      45.971   5.178  13.131  0.00  0.00    +0.000 A 
ATOM      4  C   UNL     1      45.259   4.111  12.586  0.00  0.00    +0.000 A 
ATOM      5  C   UNL     1      44.865   4.133  11.241  0.00  0.00    +0.000 A 
ATOM      6  C   UNL     1      45.218   5.234  10.449  0.00  0.00    +0.000 A 
ATOM      7  C   UNL     1      45.943   6.295  10.992  0.00  0.00    +0.000 A 
BRANCH   5   8
ATOM      8  C   UNL     1      44.091   2.981  10.650  0.00  0.00    +0.000 C 
BRANCH   8   9
ATOM      9  N   UNL     1      44.286   2.896   9.200  0.00  0.00    +0.000 NA
ATOM     10  H   UNL     1      44.875   3.682   8.919  0.00  0.00    +0.000 HD
BRANCH   9  11
ATOM     11  C   UNL     1      44.965   1.652   8.858  0.00  0.00    +0.000 C 
BRANCH  11  12
ATOM     12  C   UNL     1      46.134   1.921   7.987  0.00  0.00    +0.000 A 
ATOM     13  C   UNL     1      46.605   3.081   7.410  0.00  0.00    +0.000 A 
ATOM     14  C   UNL     1      47.766   2.691   6.717  0.00  0.00    +0.000 A 
ATOM     15  N   UNL     1      48.022   1.389   6.845  0.00  0.00    +0.000 NA
ATOM     16  N   UNL     1      47.022   0.944   7.626  0.00  0.00    +0.000 N 
ATOM     17  H   UNL     1      46.977  -0.041   7.866  0.00  0.00    +0.000 HD
ENDBRANCH  11  12
ENDBRANCH   9  11
ENDBRANCH   8   9
ENDBRANCH   5   8
ENDBRANCH   1   2
BRANCH   1  18
ATOM     18  C   UNL     1      48.589   7.455  12.593  0.00  0.00    +0.000 C 
BRANCH  18  19
ATOM     19  C   UNL     1      49.138   8.863  12.580  0.00  0.00    +0.000 A 
ATOM     20  C   UNL     1      48.545   9.923  13.249  0.00  0.00    +0.000 A 
ATOM     21  S   UNL     1      49.398  11.392  13.077  0.00  0.00    +0.000 S 
ATOM     22  C   UNL     1      50.582  10.661  12.093  0.00  0.00    +0.000 A 
ATOM     23  N   UNL     1      51.624  11.377  11.590  0.00  0.00    +0.000 NA
ATOM     24  C   UNL     1      52.441  10.686  10.867  0.00  0.00    +0.000 A 
ATOM     25  N   UNL     1      52.317   9.344  10.604  0.00  0.00    +0.000 N 
ATOM     26  C   UNL     1      51.268   8.586  11.065  0.00  0.00    +0.000 A 
ATOM     27  O   UNL     1      51.166   7.397  10.770  0.00  0.00    +0.000 OA
ATOM     28  C   UNL     1      50.331   9.316  11.900  0.00  0.00    +0.000 A 
ATOM     29  H   UNL     1      52.989   8.866  10.022  0.00  0.00    +0.000 HD
ENDBRANCH  18  19
BRANCH  18  30
ATOM     30  N   UNL     1      49.441   6.669  13.490  0.00  0.00    +0.000 NA
ATOM     31  H   UNL     1      48.930   6.505  14.358  0.00  0.00    +0.000 HD
ATOM     32  H   UNL     1      50.235   7.257  13.764  0.00  0.00    +0.000 HD
ENDBRANCH  18  30
ENDBRANCH   1  18
TORSDOF 8
ENDMDL
MODEL 5
REMARK VINA RESULT:    -6.794      5.086      8.071
REMARK INTER + INTRA:         -10.562
REMARK INTER:                  -9.669
REMARK INTRA:                  -0.893
REMARK UNBOUND:                -0.789
REMARK  Name = 
REMARK  8 active torsions:
REMARK  status: ('A' for Active; 'I' for Inactive)
REMARK    1  A    between atoms: N_1  and  C_2
REMARK    2  A    between atoms: C_2  and  C_3
REMARK    3  A    between atoms: C_2  and  C_18
REMARK    4  A    between atoms: C_3  and  C_4
REMARK    5  A    between atoms: C_7  and  C_8
REMARK    6  A    between atoms: C_8  and  N_9
REMARK    7  A    between atoms: N_9  and  C_10
REMARK    8  A    between atoms: C_10  and  C_11
REMARK                            x       y       z     vdW  Elec       q    Type
REMARK                         _______ _______ _______ _____ _____    ______ ____
ROOT
ATOM      1  C   UNL     1      45.267   6.761  12.800  0.00  0.00    +0.000 C 
ENDROOT
BRANCH   1   2
ATOM      2  C   UNL     1      46.691   7.256  12.761  0.00  0.00    +0.000 A 
ATOM      3  C   UNL     1      47.719   6.503  13.343  0.00  0.00    +0.000 A 
ATOM      4  C   UNL     1      49.037   6.954  13.300  0.00  0.00    +0.000 A 
ATOM      5  C   UNL     1      49.356   8.160  12.659  0.00  0.00    +0.000 A 
ATOM      6  C   UNL     1      48.324   8.914  12.083  0.00  0.00    +0.000 A 
ATOM      7  C   UNL     1      47.003   8.469  12.138  0.00  0.00    +0.000 A 
BRANCH   5   8
ATOM      8  C   UNL     1      50.783   8.647  12.608  0.00  0.00    +0.000 C 
BRANCH   8   9
ATOM      9  N   UNL     1      51.655   7.670  11.953  0.00  0.00    +0.000 NA
ATOM     10  H   UNL     1      51.308   6.738  12.185  0.00  0.00    +0.000 HD
BRANCH   9  11
ATOM     11  C   UNL     1      51.605   7.845  10.506  0.00  0.00    +0.000 C 
BRANCH  11  12
ATOM     12  C   UNL     1      52.557   6.923   9.839  0.00  0.00    +0.000 A 
ATOM     13  C   UNL     1      52.871   6.725   8.513  0.00  0.00    +0.000 A 
ATOM     14  C   UNL     1      53.867   5.730   8.524  0.00  0.00    +0.000 A 
ATOM     15  N   UNL     1      54.170   5.328   9.758  0.00  0.00    +0.000 NA
ATOM     16  N   UNL     1      53.367   6.071  10.541  0.00  0.00    +0.000 N 
ATOM     17  H   UNL     1      53.395   5.944  11.547  0.00  0.00    +0.000 HD
ENDBRANCH  11  12
ENDBRANCH   9  11
ENDBRANCH   8   9
ENDBRANCH   5   8
ENDBRANCH   1   2
BRANCH   1  18
ATOM     18  C   UNL     1      44.641   6.500  11.409  0.00  0.00    +0.000 C 
BRANCH  18  19
ATOM     19  C   UNL     1      44.341   5.034  11.201  0.00  0.00    +0.000 A 
ATOM     20  C   UNL     1      43.564   4.280  12.067  0.00  0.00    +0.000 A 
ATOM     21  S   UNL     1      43.375   2.659  11.568  0.00  0.00    +0.000 S 
ATOM     22  C   UNL     1      44.337   2.908  10.183  0.00  0.00    +0.000 A 
ATOM     23  N   UNL     1      44.585   1.900   9.304  0.00  0.00    +0.000 NA
ATOM     24  C   UNL     1      45.325   2.242   8.302  0.00  0.00    +0.000 A 
ATOM     25  N   UNL     1      45.836   3.499   8.094  0.00  0.00    +0.000 N 
ATOM     26  C   UNL     1      45.637   4.541   8.967  0.00  0.00    +0.000 A 
ATOM     27  O   UNL     1      46.149   5.641   8.771  0.00  0.00    +0.000 OA
ATOM     28  C   UNL     1      44.793   4.209  10.102  0.00  0.00    +0.000 A 
ATOM     29  H   UNL     1      46.416   3.697   7.292  0.00  0.00    +0.000 HD
ENDBRANCH  18  19
BRANCH  18  30
ATOM     30  N   UNL     1      43.402   7.236  11.135  0.00  0.00    +0.000 NA
ATOM     31  H   UNL     1      43.558   8.220  11.354  0.00  0.00    +0.000 HD
ATOM     32  H   UNL     1      42.698   6.926  11.812  0.00  0.00    +0.000 HD
ENDBRANCH  18  30
ENDBRANCH   1  18
TORSDOF 8
ENDMDL
MODEL 6
REMARK VINA RESULT:    -6.668      3.739      4.660
REMARK INTER + INTRA:         -10.380
REMARK INTER:                  -9.622
REMARK INTRA:                  -0.758
REMARK UNBOUND:                -0.789
REMARK  Name = 
REMARK  8 active torsions:
REMARK  status: ('A' for Active; 'I' for Inactive)
REMARK    1  A    between atoms: N_1  and  C_2
REMARK    2  A    between atoms: C_2  and  C_3
REMARK    3  A    between atoms: C_2  and  C_18
REMARK    4  A    between atoms: C_3  and  C_4
REMARK    5  A    between atoms: C_7  and  C_8
REMARK    6  A    between atoms: C_8  and  N_9
REMARK    7  A    between atoms: N_9  and  C_10
REMARK    8  A    between atoms: C_10  and  C_11
REMARK                            x       y       z     vdW  Elec       q    Type
REMARK                         _______ _______ _______ _____ _____    ______ ____
ROOT
ATOM      1  C   UNL     1      46.932   7.642  13.161  0.00  0.00    +0.000 C 
ENDROOT
BRANCH   1   2
ATOM      2  C   UNL     1      46.254   6.447  12.539  0.00  0.00    +0.000 A 
ATOM      3  C   UNL     1      45.841   5.373  13.337  0.00  0.00    +0.000 A 
ATOM      4  C   UNL     1      45.206   4.271  12.767  0.00  0.00    +0.000 A 
ATOM      5  C   UNL     1      44.955   4.230  11.388  0.00  0.00    +0.000 A 
ATOM      6  C   UNL     1      45.375   5.304  10.591  0.00  0.00    +0.000 A 
ATOM      7  C   UNL     1      46.024   6.400  11.160  0.00  0.00    +0.000 A 
BRANCH   5   8
ATOM      8  C   UNL     1      44.264   3.040  10.770  0.00  0.00    +0.000 C 
BRANCH   8   9
ATOM      9  N   UNL     1      44.415   3.035   9.312  0.00  0.00    +0.000 NA
ATOM     10  H   UNL     1      45.078   3.772   9.065  0.00  0.00    +0.000 HD
BRANCH   9  11
ATOM     11  C   UNL     1      44.950   1.753   8.869  0.00  0.00    +0.000 C 
BRANCH  11  12
ATOM     12  C   UNL     1      46.136   1.957   8.003  0.00  0.00    +0.000 A 
ATOM     13  C   UNL     1      46.654   3.082   7.401  0.00  0.00    +0.000 A 
ATOM     14  C   UNL     1      47.808   2.633   6.731  0.00  0.00    +0.000 A 
ATOM     15  N   UNL     1      48.016   1.327   6.897  0.00  0.00    +0.000 NA
ATOM     16  N   UNL     1      46.992   0.939   7.678  0.00  0.00    +0.000 N 
ATOM     17  H   UNL     1      46.910  -0.037   7.945  0.00  0.00    +0.000 HD
ENDBRANCH  11  12
ENDBRANCH   9  11
ENDBRANCH   8   9
ENDBRANCH   5   8
ENDBRANCH   1   2
BRANCH   1  18
ATOM     18  C   UNL     1      48.476   7.542  13.224  0.00  0.00    +0.000 C 
BRANCH  18  19
ATOM     19  C   UNL     1      48.992   7.805  14.620  0.00  0.00    +0.000 A 
ATOM     20  C   UNL     1      48.803   6.936  15.683  0.00  0.00    +0.000 A 
ATOM     21  S   UNL     1      49.516   7.481  17.136  0.00  0.00    +0.000 S 
ATOM     22  C   UNL     1      50.092   8.902  16.392  0.00  0.00    +0.000 A 
ATOM     23  N   UNL     1      50.799   9.829  17.093  0.00  0.00    +0.000 NA
ATOM     24  C   UNL     1      51.171  10.850  16.394  0.00  0.00    +0.000 A 
ATOM     25  N   UNL     1      50.906  11.029  15.059  0.00  0.00    +0.000 N 
ATOM     26  C   UNL     1      50.171  10.135  14.317  0.00  0.00    +0.000 A 
ATOM     27  O   UNL     1      49.914  10.352  13.135  0.00  0.00    +0.000 OA
ATOM     28  C   UNL     1      49.746   8.959  15.056  0.00  0.00    +0.000 A 
ATOM     29  H   UNL     1      51.219  11.856  14.574  0.00  0.00    +0.000 HD
ENDBRANCH  18  19
BRANCH  18  30
ATOM     30  N   UNL     1      49.036   6.258  12.793  0.00  0.00    +0.000 NA
ATOM     31  H   UNL     1      49.729   6.437  12.066  0.00  0.00    +0.000 HD
ATOM     32  H   UNL     1      48.293   5.734  12.320  0.00  0.00    +0.000 HD
ENDBRANCH  18  30
ENDBRANCH   1  18
TORSDOF 8
ENDMDL
MODEL 7
REMARK VINA RESULT:    -6.626      2.940      3.741
REMARK INTER + INTRA:         -10.320
REMARK INTER:                  -9.418
REMARK INTRA:                  -0.902
REMARK UNBOUND:                -0.789
REMARK  Name = 
REMARK  8 active torsions:
REMARK  status: ('A' for Active; 'I' for Inactive)
REMARK    1  A    between atoms: N_1  and  C_2
REMARK    2  A    between atoms: C_2  and  C_3
REMARK    3  A    between atoms: C_2  and  C_18
REMARK    4  A    between atoms: C_3  and  C_4
REMARK    5  A    between atoms: C_7  and  C_8
REMARK    6  A    between atoms: C_8  and  N_9
REMARK    7  A    between atoms: N_9  and  C_10
REMARK    8  A    between atoms: C_10  and  C_11
REMARK                            x       y       z     vdW  Elec       q    Type
REMARK                         _______ _______ _______ _____ _____    ______ ____
ROOT
ATOM      1  C   UNL     1      48.501   6.852  12.842  0.00  0.00    +0.000 C 
ENDROOT
BRANCH   1   2
ATOM      2  C   UNL     1      47.087   6.326  12.848  0.00  0.00    +0.000 A 
ATOM      3  C   UNL     1      46.083   6.987  12.128  0.00  0.00    +0.000 A 
ATOM      4  C   UNL     1      44.778   6.498  12.124  0.00  0.00    +0.000 A 
ATOM      5  C   UNL     1      44.454   5.328  12.826  0.00  0.00    +0.000 A 
ATOM      6  C   UNL     1      45.460   4.672  13.550  0.00  0.00    +0.000 A 
ATOM      7  C   UNL     1      46.763   5.170  13.566  0.00  0.00    +0.000 A 
BRANCH   5   8
ATOM      8  C   UNL     1      43.043   4.795  12.819  0.00  0.00    +0.000 C 
BRANCH   8   9
ATOM      9  N   UNL     1      42.687   4.251  11.506  0.00  0.00    +0.000 NA
ATOM     10  H   UNL     1      42.920   4.955  10.804  0.00  0.00    +0.000 HD
BRANCH   9  11
ATOM     11  C   UNL     1      43.459   3.043  11.238  0.00  0.00    +0.000 C 
BRANCH  11  12
ATOM     12  C   UNL     1      44.218   3.184   9.972  0.00  0.00    +0.000 A 
ATOM     13  C   UNL     1      44.955   2.283   9.235  0.00  0.00    +0.000 A 
ATOM     14  C   UNL     1      45.408   3.014   8.121  0.00  0.00    +0.000 A 
ATOM     15  N   UNL     1      44.989   4.279   8.140  0.00  0.00    +0.000 NA
ATOM     16  N   UNL     1      44.263   4.358   9.269  0.00  0.00    +0.000 N 
ATOM     17  H   UNL     1      43.836   5.241   9.527  0.00  0.00    +0.000 HD
ENDBRANCH  11  12
ENDBRANCH   9  11
ENDBRANCH   8   9
ENDBRANCH   5   8
ENDBRANCH   1   2
BRANCH   1  18
ATOM     18  C   UNL     1      48.793   7.915  13.928  0.00  0.00    +0.000 C 
BRANCH  18  19
ATOM     19  C   UNL     1      50.199   7.784  14.468  0.00  0.00    +0.000 A 
ATOM     20  C   UNL     1      51.294   8.430  13.916  0.00  0.00    +0.000 A 
ATOM     21  S   UNL     1      52.752   8.117  14.748  0.00  0.00    +0.000 S 
ATOM     22  C   UNL     1      51.967   7.099  15.867  0.00  0.00    +0.000 A 
ATOM     23  N   UNL     1      52.655   6.486  16.868  0.00  0.00    +0.000 NA
ATOM     24  C   UNL     1      51.925   5.749  17.638  0.00  0.00    +0.000 A 
ATOM     25  N   UNL     1      50.570   5.572  17.504  0.00  0.00    +0.000 N 
ATOM     26  C   UNL     1      49.838   6.146  16.492  0.00  0.00    +0.000 A 
ATOM     27  O   UNL     1      48.634   5.927  16.377  0.00  0.00    +0.000 OA
ATOM     28  C   UNL     1      50.614   7.000  15.610  0.00  0.00    +0.000 A 
ATOM     29  H   UNL     1      50.060   4.974  18.136  0.00  0.00    +0.000 HD
ENDBRANCH  18  19
BRANCH  18  30
ATOM     30  N   UNL     1      48.624   9.307  13.501  0.00  0.00    +0.000 NA
ATOM     31  H   UNL     1      49.548   9.730  13.410  0.00  0.00    +0.000 HD
ATOM     32  H   UNL     1      48.178   9.819  14.269  0.00  0.00    +0.000 HD
ENDBRANCH  18  30
ENDBRANCH   1  18
TORSDOF 8
ENDMDL
MODEL 8
REMARK VINA RESULT:    -6.382      3.953      8.071
REMARK INTER + INTRA:          -9.970
REMARK INTER:                  -8.797
REMARK INTRA:                  -1.173
REMARK UNBOUND:                -0.789
REMARK  Name = 
REMARK  8 active torsions:
REMARK  status: ('A' for Active; 'I' for Inactive)
REMARK    1  A    between atoms: N_1  and  C_2
REMARK    2  A    between atoms: C_2  and  C_3
REMARK    3  A    between atoms: C_2  and  C_18
REMARK    4  A    between atoms: C_3  and  C_4
REMARK    5  A    between atoms: C_7  and  C_8
REMARK    6  A    between atoms: C_8  and  N_9
REMARK    7  A    between atoms: N_9  and  C_10
REMARK    8  A    between atoms: C_10  and  C_11
REMARK                            x       y       z     vdW  Elec       q    Type
REMARK                         _______ _______ _______ _____ _____    ______ ____
ROOT
ATOM      1  C   UNL     1      49.341   8.075  14.537  0.00  0.00    +0.000 C 
ENDROOT
BRANCH   1   2
ATOM      2  C   UNL     1      49.557   7.521  15.923  0.00  0.00    +0.000 A 
ATOM      3  C   UNL     1      50.649   6.686  16.189  0.00  0.00    +0.000 A 
ATOM      4  C   UNL     1      50.856   6.180  17.471  0.00  0.00    +0.000 A 
ATOM      5  C   UNL     1      49.984   6.514  18.517  0.00  0.00    +0.000 A 
ATOM      6  C   UNL     1      48.889   7.346  18.246  0.00  0.00    +0.000 A 
ATOM      7  C   UNL     1      48.674   7.840  16.960  0.00  0.00    +0.000 A 
BRANCH   5   8
ATOM      8  C   UNL     1      50.210   5.971  19.906  0.00  0.00    +0.000 C 
BRANCH   8   9
ATOM      9  N   UNL     1      50.152   4.507  19.921  0.00  0.00    +0.000 NA
ATOM     10  H   UNL     1      50.334   4.197  20.877  0.00  0.00    +0.000 HD
BRANCH   9  11
ATOM     11  C   UNL     1      48.824   4.054  19.522  0.00  0.00    +0.000 C 
BRANCH  11  12
ATOM     12  C   UNL     1      48.905   3.236  18.288  0.00  0.00    +0.000 A 
ATOM     13  C   UNL     1      47.968   2.925  17.326  0.00  0.00    +0.000 A 
ATOM     14  C   UNL     1      48.661   2.132  16.393  0.00  0.00    +0.000 A 
ATOM     15  N   UNL     1      49.940   1.955  16.726  0.00  0.00    +0.000 NA
ATOM     16  N   UNL     1      50.067   2.640  17.877  0.00  0.00    +0.000 N 
ATOM     17  H   UNL     1      50.962   2.652  18.354  0.00  0.00    +0.000 HD
ENDBRANCH  11  12
ENDBRANCH   9  11
ENDBRANCH   8   9
ENDBRANCH   5   8
ENDBRANCH   1   2
BRANCH   1  18
ATOM     18  C   UNL     1      48.936   7.019  13.480  0.00  0.00    +0.000 C 
BRANCH  18  19
ATOM     19  C   UNL     1      47.490   7.173  13.068  0.00  0.00    +0.000 A 
ATOM     20  C   UNL     1      46.959   8.349  12.561  0.00  0.00    +0.000 A 
ATOM     21  S   UNL     1      45.305   8.224  12.158  0.00  0.00    +0.000 S 
ATOM     22  C   UNL     1      45.242   6.596  12.659  0.00  0.00    +0.000 A 
ATOM     23  N   UNL     1      44.089   5.878  12.583  0.00  0.00    +0.000 NA
ATOM     24  C   UNL     1      44.198   4.658  12.994  0.00  0.00    +0.000 A 
ATOM     25  N   UNL     1      45.352   4.088  13.471  0.00  0.00    +0.000 N 
ATOM     26  C   UNL     1      46.532   4.782  13.595  0.00  0.00    +0.000 A 
ATOM     27  O   UNL     1      47.534   4.251  14.069  0.00  0.00    +0.000 OA
ATOM     28  C   UNL     1      46.465   6.155  13.125  0.00  0.00    +0.000 A 
ATOM     29  H   UNL     1      45.366   3.130  13.786  0.00  0.00    +0.000 HD
ENDBRANCH  18  19
BRANCH  18  30
ATOM     30  N   UNL     1      49.736   7.025  12.253  0.00  0.00    +0.000 NA
ATOM     31  H   UNL     1      50.025   7.985  12.062  0.00  0.00    +0.000 HD
ATOM     32  H   UNL     1      49.117   6.780  11.474  0.00  0.00    +0.000 HD
ENDBRANCH  18  30
ENDBRANCH   1  18
TORSDOF 8
ENDMDL
MODEL 9
REMARK VINA RESULT:    -6.231      3.365      4.315
REMARK INTER + INTRA:          -9.752
REMARK INTER:                  -8.620
REMARK INTRA:                  -1.132
REMARK UNBOUND:                -0.789
REMARK  Name = 
REMARK  8 active torsions:
REMARK  status: ('A' for Active; 'I' for Inactive)
REMARK    1  A    between atoms: N_1  and  C_2
REMARK    2  A    between atoms: C_2  and  C_3
REMARK    3  A    between atoms: C_2  and  C_18
REMARK    4  A    between atoms: C_3  and  C_4
REMARK    5  A    between atoms: C_7  and  C_8
REMARK    6  A    between atoms: C_8  and  N_9
REMARK    7  A    between atoms: N_9  and  C_10
REMARK    8  A    between atoms: C_10  and  C_11
REMARK                            x       y       z     vdW  Elec       q    Type
REMARK                         _______ _______ _______ _____ _____    ______ ____
ROOT
ATOM      1  C   UNL     1      48.795   7.486  13.615  0.00  0.00    +0.000 C 
ENDROOT
BRANCH   1   2
ATOM      2  C   UNL     1      47.523   6.685  13.486  0.00  0.00    +0.000 A 
ATOM      3  C   UNL     1      46.372   7.268  12.941  0.00  0.00    +0.000 A 
ATOM      4  C   UNL     1      45.198   6.527  12.811  0.00  0.00    +0.000 A 
ATOM      5  C   UNL     1      45.158   5.183  13.210  0.00  0.00    +0.000 A 
ATOM      6  C   UNL     1      46.310   4.605  13.760  0.00  0.00    +0.000 A 
ATOM      7  C   UNL     1      47.480   5.351  13.903  0.00  0.00    +0.000 A 
BRANCH   5   8
ATOM      8  C   UNL     1      43.890   4.379  13.067  0.00  0.00    +0.000 C 
BRANCH   8   9
ATOM      9  N   UNL     1      44.174   3.011  12.626  0.00  0.00    +0.000 NA
ATOM     10  H   UNL     1      43.916   2.379  13.385  0.00  0.00    +0.000 HD
BRANCH   9  11
ATOM     11  C   UNL     1      43.374   2.688  11.450  0.00  0.00    +0.000 C 
BRANCH  11  12
ATOM     12  C   UNL     1      44.138   2.968  10.210  0.00  0.00    +0.000 A 
ATOM     13  C   UNL     1      44.327   4.125   9.486  0.00  0.00    +0.000 A 
ATOM     14  C   UNL     1      45.171   3.751   8.424  0.00  0.00    +0.000 A 
ATOM     15  N   UNL     1      45.502   2.461   8.468  0.00  0.00    +0.000 NA
ATOM     16  N   UNL     1      44.868   2.007   9.564  0.00  0.00    +0.000 N 
ATOM     17  H   UNL     1      44.949   1.028   9.817  0.00  0.00    +0.000 HD
ENDBRANCH  11  12
ENDBRANCH   9  11
ENDBRANCH   8   9
ENDBRANCH   5   8
ENDBRANCH   1   2
BRANCH   1  18
ATOM     18  C   UNL     1      48.843   8.418  14.851  0.00  0.00    +0.000 C 
BRANCH  18  19
ATOM     19  C   UNL     1      49.426   7.713  16.054  0.00  0.00    +0.000 A 
ATOM     20  C   UNL     1      50.301   6.641  15.964  0.00  0.00    +0.000 A 
ATOM     21  S   UNL     1      50.816   6.061  17.485  0.00  0.00    +0.000 S 
ATOM     22  C   UNL     1      49.877   7.217  18.313  0.00  0.00    +0.000 A 
ATOM     23  N   UNL     1      49.859   7.271  19.672  0.00  0.00    +0.000 NA
ATOM     24  C   UNL     1      49.106   8.203  20.156  0.00  0.00    +0.000 A 
ATOM     25  N   UNL     1      48.371   9.088  19.407  0.00  0.00    +0.000 N 
ATOM     26  C   UNL     1      48.334   9.054  18.033  0.00  0.00    +0.000 A 
ATOM     27  O   UNL     1      47.627   9.834  17.398  0.00  0.00    +0.000 OA
ATOM     28  C   UNL     1      49.182   8.034  17.443  0.00  0.00    +0.000 A 
ATOM     29  H   UNL     1      47.794   9.787  19.849  0.00  0.00    +0.000 HD
ENDBRANCH  18  19
BRANCH  18  30
ATOM     30  N   UNL     1      49.602   9.658  14.669  0.00  0.00    +0.000 NA
ATOM     31  H   UNL     1      49.182  10.182  13.901  0.00  0.00    +0.000 HD
ATOM     32  H   UNL     1      50.537   9.406  14.330  0.00  0.00    +0.000 HD
ENDBRANCH  18  30
ENDBRANCH   1  18
TORSDOF 8
ENDMDL
