MODEL 1
REMARK VINA RESULT:    -7.143      0.000      0.000
REMARK INTER + INTRA:         -10.340
REMARK INTER:                  -9.231
REMARK INTRA:                  -1.109
REMARK UNBOUND:                -1.109
REMARK  Name = 
REMARK  6 active torsions:
REMARK  status: ('A' for Active; 'I' for Inactive)
REMARK    1  A    between atoms: C_1  and  N_2
REMARK    2  A    between atoms: N_2  and  C_3
REMARK    3  A    between atoms: C_3  and  C_4
REMARK    4  A    between atoms: C_7  and  C_8
REMARK    5  A    between atoms: C_8  and  N_9
REMARK    6  A    between atoms: C_16  and  C_18
REMARK                            x       y       z     vdW  Elec       q    Type
REMARK                         _______ _______ _______ _____ _____    ______ ____
ROOT
ATOM      1  C   UNL     1      45.934   8.610  12.148  0.00  0.00    +0.000 C 
ATOM      2  N   UNL     1      45.798   7.160  12.086  0.00  0.00    +0.000 N 
ATOM      3  C   UNL     1      44.606   6.672  11.518  0.00  0.00    +0.000 C 
ATOM      4  O   UNL     1      43.727   7.435  11.121  0.00  0.00    +0.000 OA
ENDROOT
BRANCH   3   5
ATOM      5  C   UNL     1      44.384   5.220  11.441  0.00  0.00    +0.000 A 
ATOM      6  C   UNL     1      43.645   4.490  12.358  0.00  0.00    +0.000 A 
ATOM      7  S   UNL     1      43.492   2.838  11.953  0.00  0.00    +0.000 S 
ATOM      8  C   UNL     1      44.273   3.080  10.462  0.00  0.00    +0.000 A 
ATOM      9  N   UNL     1      44.366   2.077   9.553  0.00  0.00    +0.000 NA
ATOM     10  C   UNL     1      44.917   2.425   8.437  0.00  0.00    +0.000 A 
ATOM     11  N   UNL     1      45.423   3.674   8.166  0.00  0.00    +0.000 N 
ATOM     12  C   UNL     1      45.478   4.676   9.115  0.00  0.00    +0.000 A 
ATOM     13  O   UNL     1      46.161   5.678   8.934  0.00  0.00    +0.000 OA
ATOM     14  C   UNL     1      44.746   4.371  10.329  0.00  0.00    +0.000 A 
ATOM     15  H   UNL     1      45.905   3.859   7.304  0.00  0.00    +0.000 HD
ENDBRANCH   3   5
BRANCH   2  16
ATOM     16  C   UNL     1      46.973   6.310  12.291  0.00  0.00    +0.000 C 
BRANCH  16  17
ATOM     17  C   UNL     1      47.359   5.944  13.701  0.00  0.00    +0.000 A 
ATOM     18  C   UNL     1      46.841   4.783  14.296  0.00  0.00    +0.000 A 
ATOM     19  C   UNL     1      47.269   4.383  15.560  0.00  0.00    +0.000 A 
ATOM     20  C   UNL     1      48.229   5.130  16.256  0.00  0.00    +0.000 A 
ATOM     21  C   UNL     1      48.715   6.313  15.678  0.00  0.00    +0.000 A 
ATOM     22  C   UNL     1      48.282   6.719  14.412  0.00  0.00    +0.000 A 
BRANCH  20  23
ATOM     23  C   UNL     1      48.715   4.673  17.618  0.00  0.00    +0.000 C 
BRANCH  23  24
ATOM     24  N   UNL     1      50.058   5.167  17.939  0.00  0.00    +0.000 NA
ATOM     25  C   UNL     1      50.194   5.594  19.335  0.00  0.00    +0.000 C 
ATOM     26  C   UNL     1      51.401   4.851  19.881  0.00  0.00    +0.000 C 
ATOM     27  N   UNL     1      51.619   3.731  18.966  0.00  0.00    +0.000 NA
ATOM     28  C   UNL     1      51.092   4.177  17.686  0.00  0.00    +0.000 C 
ATOM     29  H   UNL     1      51.063   2.942  19.275  0.00  0.00    +0.000 HD
ENDBRANCH  23  24
ENDBRANCH  20  23
ENDBRANCH  16  17
ENDBRANCH   2  16
TORSDOF 5
ENDMDL
MODEL 2
REMARK VINA RESULT:    -6.144      3.566      8.037
REMARK INTER + INTRA:          -9.048
REMARK INTER:                  -7.832
REMARK INTRA:                  -1.217
REMARK UNBOUND:                -1.109
REMARK  Name = 
REMARK  6 active torsions:
REMARK  status: ('A' for Active; 'I' for Inactive)
REMARK    1  A    between atoms: C_1  and  N_2
REMARK    2  A    between atoms: N_2  and  C_3
REMARK    3  A    between atoms: C_3  and  C_4
REMARK    4  A    between atoms: C_7  and  C_8
REMARK    5  A    between atoms: C_8  and  N_9
REMARK    6  A    between atoms: C_16  and  C_18
REMARK                            x       y       z     vdW  Elec       q    Type
REMARK                         _______ _______ _______ _____ _____    ______ ____
ROOT
ATOM      1  C   UNL     1      47.812   9.346  17.706  0.00  0.00    +0.000 C 
ATOM      2  N   UNL     1      48.779   8.332  17.304  0.00  0.00    +0.000 N 
ATOM      3  C   UNL     1      48.895   7.214  18.150  0.00  0.00    +0.000 C 
ATOM      4  O   UNL     1      48.228   7.119  19.180  0.00  0.00    +0.000 OA
ENDROOT
BRANCH   3   5
ATOM      5  C   UNL     1      49.866   6.159  17.825  0.00  0.00    +0.000 A 
ATOM      6  C   UNL     1      51.234   6.267  18.013  0.00  0.00    +0.000 A 
ATOM      7  S   UNL     1      52.093   4.843  17.625  0.00  0.00    +0.000 S 
ATOM      8  C   UNL     1      50.650   3.990  17.344  0.00  0.00    +0.000 A 
ATOM      9  N   UNL     1      50.667   2.657  17.087  0.00  0.00    +0.000 NA
ATOM     10  C   UNL     1      49.493   2.127  16.969  0.00  0.00    +0.000 A 
ATOM     11  N   UNL     1      48.308   2.819  17.041  0.00  0.00    +0.000 N 
ATOM     12  C   UNL     1      48.255   4.195  17.154  0.00  0.00    +0.000 A 
ATOM     13  O   UNL     1      47.209   4.803  16.954  0.00  0.00    +0.000 OA
ATOM     14  C   UNL     1      49.540   4.808  17.430  0.00  0.00    +0.000 A 
ATOM     15  H   UNL     1      47.431   2.359  16.867  0.00  0.00    +0.000 HD
ENDBRANCH   3   5
BRANCH   2  16
ATOM     16  C   UNL     1      49.321   8.343  15.943  0.00  0.00    +0.000 C 
BRANCH  16  17
ATOM     17  C   UNL     1      48.442   7.869  14.815  0.00  0.00    +0.000 A 
ATOM     18  C   UNL     1      47.568   8.764  14.178  0.00  0.00    +0.000 A 
ATOM     19  C   UNL     1      46.827   8.360  13.070  0.00  0.00    +0.000 A 
ATOM     20  C   UNL     1      46.944   7.057  12.569  0.00  0.00    +0.000 A 
ATOM     21  C   UNL     1      47.787   6.152  13.232  0.00  0.00    +0.000 A 
ATOM     22  C   UNL     1      48.527   6.552  14.347  0.00  0.00    +0.000 A 
BRANCH  20  23
ATOM     23  C   UNL     1      46.158   6.634  11.343  0.00  0.00    +0.000 C 
BRANCH  23  24
ATOM     24  N   UNL     1      45.299   5.471  11.590  0.00  0.00    +0.000 NA
ATOM     25  C   UNL     1      44.141   5.783  12.434  0.00  0.00    +0.000 C 
ATOM     26  C   UNL     1      42.925   5.288  11.670  0.00  0.00    +0.000 C 
ATOM     27  N   UNL     1      43.365   5.145  10.283  0.00  0.00    +0.000 NA
ATOM     28  C   UNL     1      44.793   4.879  10.362  0.00  0.00    +0.000 C 
ATOM     29  H   UNL     1      43.238   6.030   9.805  0.00  0.00    +0.000 HD
ENDBRANCH  23  24
ENDBRANCH  20  23
ENDBRANCH  16  17
ENDBRANCH   2  16
TORSDOF 5
ENDMDL
MODEL 3
REMARK VINA RESULT:    -6.064      3.977      8.883
REMARK INTER + INTRA:          -8.945
REMARK INTER:                  -8.201
REMARK INTRA:                  -0.744
REMARK UNBOUND:                -1.109
REMARK  Name = 
REMARK  6 active torsions:
REMARK  status: ('A' for Active; 'I' for Inactive)
REMARK    1  A    between atoms: C_1  and  N_2
REMARK    2  A    between atoms: N_2  and  C_3
REMARK    3  A    between atoms: C_3  and  C_4
REMARK    4  A    between atoms: C_7  and  C_8
REMARK    5  A    between atoms: C_8  and  N_9
REMARK    6  A    between atoms: C_16  and  C_18
REMARK                            x       y       z     vdW  Elec       q    Type
REMARK                         _______ _______ _______ _____ _____    ______ ____
ROOT
ATOM      1  C   UNL     1      47.182   5.728  18.394  0.00  0.00    +0.000 C 
ATOM      2  N   UNL     1      48.593   5.465  18.139  0.00  0.00    +0.000 N 
ATOM      3  C   UNL     1      49.219   4.547  19.003  0.00  0.00    +0.000 C 
ATOM      4  O   UNL     1      48.606   4.020  19.931  0.00  0.00    +0.000 OA
ENDROOT
BRANCH   3   5
ATOM      5  C   UNL     1      50.647   4.246  18.825  0.00  0.00    +0.000 A 
ATOM      6  C   UNL     1      51.677   4.938  19.440  0.00  0.00    +0.000 A 
ATOM      7  S   UNL     1      53.225   4.299  19.107  0.00  0.00    +0.000 S 
ATOM      8  C   UNL     1      52.556   2.985  18.262  0.00  0.00    +0.000 A 
ATOM      9  N   UNL     1      53.341   1.974  17.810  0.00  0.00    +0.000 NA
ATOM     10  C   UNL     1      52.688   1.007  17.252  0.00  0.00    +0.000 A 
ATOM     11  N   UNL     1      51.326   0.983  17.068  0.00  0.00    +0.000 N 
ATOM     12  C   UNL     1      50.513   2.054  17.381  0.00  0.00    +0.000 A 
ATOM     13  O   UNL     1      49.359   2.110  16.971  0.00  0.00    +0.000 OA
ATOM     14  C   UNL     1      51.185   3.096  18.134  0.00  0.00    +0.000 A 
ATOM     15  H   UNL     1      50.888   0.233  16.561  0.00  0.00    +0.000 HD
ENDBRANCH   3   5
BRANCH   2  16
ATOM     16  C   UNL     1      49.191   5.876  16.868  0.00  0.00    +0.000 C 
BRANCH  16  17
ATOM     17  C   UNL     1      48.330   5.867  15.631  0.00  0.00    +0.000 A 
ATOM     18  C   UNL     1      48.348   6.961  14.751  0.00  0.00    +0.000 A 
ATOM     19  C   UNL     1      47.633   6.919  13.556  0.00  0.00    +0.000 A 
ATOM     20  C   UNL     1      46.890   5.784  13.209  0.00  0.00    +0.000 A 
ATOM     21  C   UNL     1      46.840   4.707  14.109  0.00  0.00    +0.000 A 
ATOM     22  C   UNL     1      47.551   4.749  15.311  0.00  0.00    +0.000 A 
BRANCH  20  23
ATOM     23  C   UNL     1      46.140   5.732  11.892  0.00  0.00    +0.000 C 
BRANCH  23  24
ATOM     24  N   UNL     1      44.919   4.922  11.962  0.00  0.00    +0.000 NA
ATOM     25  C   UNL     1      43.783   5.645  12.540  0.00  0.00    +0.000 C 
ATOM     26  C   UNL     1      42.648   5.503  11.541  0.00  0.00    +0.000 C 
ATOM     27  N   UNL     1      43.282   5.123  10.279  0.00  0.00    +0.000 NA
ATOM     28  C   UNL     1      44.501   4.428  10.660  0.00  0.00    +0.000 C 
ATOM     29  H   UNL     1      43.545   5.964   9.777  0.00  0.00    +0.000 HD
ENDBRANCH  23  24
ENDBRANCH  20  23
ENDBRANCH  16  17
ENDBRANCH   2  16
TORSDOF 5
ENDMDL
MODEL 4
REMARK VINA RESULT:    -5.930      3.630      8.400
REMARK INTER + INTRA:          -8.772
REMARK INTER:                  -7.770
REMARK INTRA:                  -1.002
REMARK UNBOUND:                -1.109
REMARK  Name = 
REMARK  6 active torsions:
REMARK  status: ('A' for Active; 'I' for Inactive)
REMARK    1  A    between atoms: C_1  and  N_2
REMARK    2  A    between atoms: N_2  and  C_3
REMARK    3  A    between atoms: C_3  and  C_4
REMARK    4  A    between atoms: C_7  and  C_8
REMARK    5  A    between atoms: C_8  and  N_9
REMARK    6  A    between atoms: C_16  and  C_18
REMARK                            x       y       z     vdW  Elec       q    Type
REMARK                         _______ _______ _______ _____ _____    ______ ____
ROOT
ATOM      1  C   UNL     1      50.154   8.090  13.040  0.00  0.00    +0.000 C 
ATOM      2  N   UNL     1      49.389   8.183  14.277  0.00  0.00    +0.000 N 
ATOM      3  C   UNL     1      50.138   8.203  15.469  0.00  0.00    +0.000 C 
ATOM      4  O   UNL     1      51.366   8.124  15.455  0.00  0.00    +0.000 OA
ENDROOT
BRANCH   3   5
ATOM      5  C   UNL     1      49.438   8.272  16.761  0.00  0.00    +0.000 A 
ATOM      6  C   UNL     1      49.169   9.446  17.445  0.00  0.00    +0.000 A 
ATOM      7  S   UNL     1      48.264   9.212  18.874  0.00  0.00    +0.000 S 
ATOM      8  C   UNL     1      48.069   7.557  18.539  0.00  0.00    +0.000 A 
ATOM      9  N   UNL     1      47.277   6.777  19.317  0.00  0.00    +0.000 NA
ATOM     10  C   UNL     1      47.162   5.558  18.901  0.00  0.00    +0.000 A 
ATOM     11  N   UNL     1      47.805   5.040  17.801  0.00  0.00    +0.000 N 
ATOM     12  C   UNL     1      48.731   5.761  17.073  0.00  0.00    +0.000 A 
ATOM     13  O   UNL     1      49.474   5.204  16.272  0.00  0.00    +0.000 OA
ATOM     14  C   UNL     1      48.781   7.168  17.421  0.00  0.00    +0.000 A 
ATOM     15  H   UNL     1      47.731   4.064  17.573  0.00  0.00    +0.000 HD
ENDBRANCH   3   5
BRANCH   2  16
ATOM     16  C   UNL     1      47.978   8.570  14.233  0.00  0.00    +0.000 C 
BRANCH  16  17
ATOM     17  C   UNL     1      47.020   7.710  13.449  0.00  0.00    +0.000 A 
ATOM     18  C   UNL     1      46.044   8.304  12.635  0.00  0.00    +0.000 A 
ATOM     19  C   UNL     1      45.221   7.519  11.829  0.00  0.00    +0.000 A 
ATOM     20  C   UNL     1      45.359   6.125  11.814  0.00  0.00    +0.000 A 
ATOM     21  C   UNL     1      46.308   5.530  12.660  0.00  0.00    +0.000 A 
ATOM     22  C   UNL     1      47.130   6.315  13.473  0.00  0.00    +0.000 A 
BRANCH  20  23
ATOM     23  C   UNL     1      44.482   5.278  10.912  0.00  0.00    +0.000 C 
BRANCH  23  24
ATOM     24  N   UNL     1      45.230   4.229  10.210  0.00  0.00    +0.000 NA
ATOM     25  C   UNL     1      44.695   2.886  10.449  0.00  0.00    +0.000 C 
ATOM     26  C   UNL     1      44.469   2.279   9.075  0.00  0.00    +0.000 C 
ATOM     27  N   UNL     1      44.442   3.408   8.147  0.00  0.00    +0.000 NA
ATOM     28  C   UNL     1      45.263   4.434   8.772  0.00  0.00    +0.000 C 
ATOM     29  H   UNL     1      43.493   3.762   8.087  0.00  0.00    +0.000 HD
ENDBRANCH  23  24
ENDBRANCH  20  23
ENDBRANCH  16  17
ENDBRANCH   2  16
TORSDOF 5
ENDMDL
MODEL 5
REMARK VINA RESULT:    -5.594      3.409      7.985
REMARK INTER + INTRA:          -8.338
REMARK INTER:                  -8.117
REMARK INTRA:                  -0.221
REMARK UNBOUND:                -1.109
REMARK  Name = 
REMARK  6 active torsions:
REMARK  status: ('A' for Active; 'I' for Inactive)
REMARK    1  A    between atoms: C_1  and  N_2
REMARK    2  A    between atoms: N_2  and  C_3
REMARK    3  A    between atoms: C_3  and  C_4
REMARK    4  A    between atoms: C_7  and  C_8
REMARK    5  A    between atoms: C_8  and  N_9
REMARK    6  A    between atoms: C_16  and  C_18
REMARK                            x       y       z     vdW  Elec       q    Type
REMARK                         _______ _______ _______ _____ _____    ______ ____
ROOT
ATOM      1  C   UNL     1      49.005   9.200  12.037  0.00  0.00    +0.000 C 
ATOM      2  N   UNL     1      49.226   8.183  13.057  0.00  0.00    +0.000 N 
ATOM      3  C   UNL     1      49.369   8.650  14.378  0.00  0.00    +0.000 C 
ATOM      4  O   UNL     1      49.329   9.851  14.640  0.00  0.00    +0.000 OA
ENDROOT
BRANCH   3   5
ATOM      5  C   UNL     1      49.619   7.687  15.461  0.00  0.00    +0.000 A 
ATOM      6  C   UNL     1      48.627   7.027  16.168  0.00  0.00    +0.000 A 
ATOM      7  S   UNL     1      49.229   5.905  17.305  0.00  0.00    +0.000 S 
ATOM      8  C   UNL     1      50.826   6.152  16.778  0.00  0.00    +0.000 A 
ATOM      9  N   UNL     1      51.845   5.398  17.263  0.00  0.00    +0.000 NA
ATOM     10  C   UNL     1      52.991   5.645  16.718  0.00  0.00    +0.000 A 
ATOM     11  N   UNL     1      53.216   6.609  15.764  0.00  0.00    +0.000 N 
ATOM     12  C   UNL     1      52.237   7.492  15.353  0.00  0.00    +0.000 A 
ATOM     13  O   UNL     1      52.523   8.494  14.708  0.00  0.00    +0.000 OA
ATOM     14  C   UNL     1      50.910   7.158  15.835  0.00  0.00    +0.000 A 
ATOM     15  H   UNL     1      54.146   6.800  15.434  0.00  0.00    +0.000 HD
ENDBRANCH   3   5
BRANCH   2  16
ATOM     16  C   UNL     1      48.972   6.775  12.749  0.00  0.00    +0.000 C 
BRANCH  16  17
ATOM     17  C   UNL     1      47.543   6.303  12.668  0.00  0.00    +0.000 A 
ATOM     18  C   UNL     1      47.108   5.232  13.465  0.00  0.00    +0.000 A 
ATOM     19  C   UNL     1      45.767   4.854  13.472  0.00  0.00    +0.000 A 
ATOM     20  C   UNL     1      44.829   5.541  12.690  0.00  0.00    +0.000 A 
ATOM     21  C   UNL     1      45.272   6.585  11.863  0.00  0.00    +0.000 A 
ATOM     22  C   UNL     1      46.618   6.961  11.850  0.00  0.00    +0.000 A 
BRANCH  20  23
ATOM     23  C   UNL     1      43.365   5.146  12.727  0.00  0.00    +0.000 C 
BRANCH  23  24
ATOM     24  N   UNL     1      42.992   4.236  11.639  0.00  0.00    +0.000 NA
ATOM     25  C   UNL     1      43.587   4.607  10.351  0.00  0.00    +0.000 C 
ATOM     26  C   UNL     1      44.285   3.359   9.841  0.00  0.00    +0.000 C 
ATOM     27  N   UNL     1      44.455   2.499  11.011  0.00  0.00    +0.000 NA
ATOM     28  C   UNL     1      43.369   2.858  11.909  0.00  0.00    +0.000 C 
ATOM     29  H   UNL     1      45.330   2.735  11.468  0.00  0.00    +0.000 HD
ENDBRANCH  23  24
ENDBRANCH  20  23
ENDBRANCH  16  17
ENDBRANCH   2  16
TORSDOF 5
ENDMDL
MODEL 6
REMARK VINA RESULT:    -5.575      3.391      8.530
REMARK INTER + INTRA:          -8.314
REMARK INTER:                  -7.383
REMARK INTRA:                  -0.931
REMARK UNBOUND:                -1.109
REMARK  Name = 
REMARK  6 active torsions:
REMARK  status: ('A' for Active; 'I' for Inactive)
REMARK    1  A    between atoms: C_1  and  N_2
REMARK    2  A    between atoms: N_2  and  C_3
REMARK    3  A    between atoms: C_3  and  C_4
REMARK    4  A    between atoms: C_7  and  C_8
REMARK    5  A    between atoms: C_8  and  N_9
REMARK    6  A    between atoms: C_16  and  C_18
REMARK                            x       y       z     vdW  Elec       q    Type
REMARK                         _______ _______ _______ _____ _____    ______ ____
ROOT
ATOM      1  C   UNL     1      48.419   9.054  16.235  0.00  0.00    +0.000 C 
ATOM      2  N   UNL     1      48.951   7.699  16.309  0.00  0.00    +0.000 N 
ATOM      3  C   UNL     1      48.656   6.979  17.482  0.00  0.00    +0.000 C 
ATOM      4  O   UNL     1      48.004   7.484  18.396  0.00  0.00    +0.000 OA
ENDROOT
BRANCH   3   5
ATOM      5  C   UNL     1      49.177   5.614  17.642  0.00  0.00    +0.000 A 
ATOM      6  C   UNL     1      48.425   4.462  17.475  0.00  0.00    +0.000 A 
ATOM      7  S   UNL     1      49.330   3.024  17.640  0.00  0.00    +0.000 S 
ATOM      8  C   UNL     1      50.782   3.895  17.785  0.00  0.00    +0.000 A 
ATOM      9  N   UNL     1      51.977   3.254  17.833  0.00  0.00    +0.000 NA
ATOM     10  C   UNL     1      53.000   4.045  17.867  0.00  0.00    +0.000 A 
ATOM     11  N   UNL     1      52.931   5.417  17.902  0.00  0.00    +0.000 N 
ATOM     12  C   UNL     1      51.734   6.100  18.001  0.00  0.00    +0.000 A 
ATOM     13  O   UNL     1      51.711   7.291  18.292  0.00  0.00    +0.000 OA
ATOM     14  C   UNL     1      50.566   5.259  17.825  0.00  0.00    +0.000 A 
ATOM     15  H   UNL     1      53.762   5.973  18.001  0.00  0.00    +0.000 HD
ENDBRANCH   3   5
BRANCH   2  16
ATOM     16  C   UNL     1      49.455   7.048  15.098  0.00  0.00    +0.000 C 
BRANCH  16  17
ATOM     17  C   UNL     1      48.470   6.665  14.024  0.00  0.00    +0.000 A 
ATOM     18  C   UNL     1      47.523   5.656  14.261  0.00  0.00    +0.000 A 
ATOM     19  C   UNL     1      46.545   5.366  13.313  0.00  0.00    +0.000 A 
ATOM     20  C   UNL     1      46.485   6.080  12.109  0.00  0.00    +0.000 A 
ATOM     21  C   UNL     1      47.457   7.061  11.855  0.00  0.00    +0.000 A 
ATOM     22  C   UNL     1      48.443   7.349  12.803  0.00  0.00    +0.000 A 
BRANCH  20  23
ATOM     23  C   UNL     1      45.398   5.781  11.094  0.00  0.00    +0.000 C 
BRANCH  23  24
ATOM     24  N   UNL     1      45.683   4.590  10.288  0.00  0.00    +0.000 NA
ATOM     25  C   UNL     1      44.868   3.432  10.667  0.00  0.00    +0.000 C 
ATOM     26  C   UNL     1      44.218   2.944   9.383  0.00  0.00    +0.000 C 
ATOM     27  N   UNL     1      44.308   4.064   8.448  0.00  0.00    +0.000 NA
ATOM     28  C   UNL     1      45.480   4.816   8.866  0.00  0.00    +0.000 C 
ATOM     29  H   UNL     1      43.495   4.660   8.569  0.00  0.00    +0.000 HD
ENDBRANCH  23  24
ENDBRANCH  20  23
ENDBRANCH  16  17
ENDBRANCH   2  16
TORSDOF 5
ENDMDL
MODEL 7
REMARK VINA RESULT:    -5.482      3.185      4.524
REMARK INTER + INTRA:          -8.193
REMARK INTER:                  -7.301
REMARK INTRA:                  -0.892
REMARK UNBOUND:                -1.109
REMARK  Name = 
REMARK  6 active torsions:
REMARK  status: ('A' for Active; 'I' for Inactive)
REMARK    1  A    between atoms: C_1  and  N_2
REMARK    2  A    between atoms: N_2  and  C_3
REMARK    3  A    between atoms: C_3  and  C_4
REMARK    4  A    between atoms: C_7  and  C_8
REMARK    5  A    between atoms: C_8  and  N_9
REMARK    6  A    between atoms: C_16  and  C_18
REMARK                            x       y       z     vdW  Elec       q    Type
REMARK                         _______ _______ _______ _____ _____    ______ ____
ROOT
ATOM      1  C   UNL     1      51.339   8.967  13.355  0.00  0.00    +0.000 C 
ATOM      2  N   UNL     1      49.890   8.990  13.510  0.00  0.00    +0.000 N 
ATOM      3  C   UNL     1      49.146   8.376  12.485  0.00  0.00    +0.000 C 
ATOM      4  O   UNL     1      49.699   7.871  11.509  0.00  0.00    +0.000 OA
ENDROOT
BRANCH   3   5
ATOM      5  C   UNL     1      47.678   8.379  12.557  0.00  0.00    +0.000 A 
ATOM      6  C   UNL     1      46.876   9.447  12.189  0.00  0.00    +0.000 A 
ATOM      7  S   UNL     1      45.204   9.118  12.301  0.00  0.00    +0.000 S 
ATOM      8  C   UNL     1      45.500   7.491  12.693  0.00  0.00    +0.000 A 
ATOM      9  N   UNL     1      44.478   6.604  12.803  0.00  0.00    +0.000 NA
ATOM     10  C   UNL     1      44.856   5.388  13.030  0.00  0.00    +0.000 A 
ATOM     11  N   UNL     1      46.161   4.990  13.200  0.00  0.00    +0.000 N 
ATOM     12  C   UNL     1      47.213   5.884  13.240  0.00  0.00    +0.000 A 
ATOM     13  O   UNL     1      48.316   5.540  13.649  0.00  0.00    +0.000 OA
ATOM     14  C   UNL     1      46.848   7.233  12.851  0.00  0.00    +0.000 A 
ATOM     15  H   UNL     1      46.382   4.041  13.447  0.00  0.00    +0.000 HD
ENDBRANCH   3   5
BRANCH   2  16
ATOM     16  C   UNL     1      49.302   9.329  14.808  0.00  0.00    +0.000 C 
BRANCH  16  17
ATOM     17  C   UNL     1      49.342   8.298  15.907  0.00  0.00    +0.000 A 
ATOM     18  C   UNL     1      48.486   8.413  17.013  0.00  0.00    +0.000 A 
ATOM     19  C   UNL     1      48.443   7.414  17.982  0.00  0.00    +0.000 A 
ATOM     20  C   UNL     1      49.249   6.274  17.866  0.00  0.00    +0.000 A 
ATOM     21  C   UNL     1      50.135   6.179  16.781  0.00  0.00    +0.000 A 
ATOM     22  C   UNL     1      50.183   7.184  15.811  0.00  0.00    +0.000 A 
BRANCH  20  23
ATOM     23  C   UNL     1      49.176   5.174  18.908  0.00  0.00    +0.000 C 
BRANCH  23  24
ATOM     24  N   UNL     1      48.347   4.041  18.483  0.00  0.00    +0.000 NA
ATOM     25  C   UNL     1      47.341   4.408  17.482  0.00  0.00    +0.000 C 
ATOM     26  C   UNL     1      47.531   3.439  16.327  0.00  0.00    +0.000 C 
ATOM     27  N   UNL     1      48.873   2.884  16.498  0.00  0.00    +0.000 NA
ATOM     28  C   UNL     1      49.134   2.951  17.928  0.00  0.00    +0.000 C 
ATOM     29  H   UNL     1      49.541   3.487  16.030  0.00  0.00    +0.000 HD
ENDBRANCH  23  24
ENDBRANCH  20  23
ENDBRANCH  16  17
ENDBRANCH   2  16
TORSDOF 5
ENDMDL
MODEL 8
REMARK VINA RESULT:    -5.433      3.893      8.156
REMARK INTER + INTRA:          -8.131
REMARK INTER:                  -6.913
REMARK INTRA:                  -1.218
REMARK UNBOUND:                -1.109
REMARK  Name = 
REMARK  6 active torsions:
REMARK  status: ('A' for Active; 'I' for Inactive)
REMARK    1  A    between atoms: C_1  and  N_2
REMARK    2  A    between atoms: N_2  and  C_3
REMARK    3  A    between atoms: C_3  and  C_4
REMARK    4  A    between atoms: C_7  and  C_8
REMARK    5  A    between atoms: C_8  and  N_9
REMARK    6  A    between atoms: C_16  and  C_18
REMARK                            x       y       z     vdW  Elec       q    Type
REMARK                         _______ _______ _______ _____ _____    ______ ____
ROOT
ATOM      1  C   UNL     1      51.780   8.503  14.454  0.00  0.00    +0.000 C 
ATOM      2  N   UNL     1      50.623   8.367  15.331  0.00  0.00    +0.000 N 
ATOM      3  C   UNL     1      50.896   8.035  16.672  0.00  0.00    +0.000 C 
ATOM      4  O   UNL     1      52.048   7.850  17.063  0.00  0.00    +0.000 OA
ENDROOT
BRANCH   3   5
ATOM      5  C   UNL     1      49.781   7.857  17.613  0.00  0.00    +0.000 A 
ATOM      6  C   UNL     1      49.186   8.884  18.327  0.00  0.00    +0.000 A 
ATOM      7  S   UNL     1      47.856   8.379  19.273  0.00  0.00    +0.000 S 
ATOM      8  C   UNL     1      47.937   6.805  18.636  0.00  0.00    +0.000 A 
ATOM      9  N   UNL     1      46.991   5.881  18.939  0.00  0.00    +0.000 NA
ATOM     10  C   UNL     1      47.138   4.753  18.324  0.00  0.00    +0.000 A 
ATOM     11  N   UNL     1      48.171   4.453  17.468  0.00  0.00    +0.000 N 
ATOM     12  C   UNL     1      49.229   5.314  17.249  0.00  0.00    +0.000 A 
ATOM     13  O   UNL     1      50.253   4.925  16.698  0.00  0.00    +0.000 OA
ATOM     14  C   UNL     1      49.030   6.638  17.808  0.00  0.00    +0.000 A 
ATOM     15  H   UNL     1      48.267   3.531  17.080  0.00  0.00    +0.000 HD
ENDBRANCH   3   5
BRANCH   2  16
ATOM     16  C   UNL     1      49.320   8.880  14.902  0.00  0.00    +0.000 C 
BRANCH  16  17
ATOM     17  C   UNL     1      48.535   8.088  13.888  0.00  0.00    +0.000 A 
ATOM     18  C   UNL     1      48.457   6.690  13.991  0.00  0.00    +0.000 A 
ATOM     19  C   UNL     1      47.652   5.961  13.119  0.00  0.00    +0.000 A 
ATOM     20  C   UNL     1      46.902   6.609  12.129  0.00  0.00    +0.000 A 
ATOM     21  C   UNL     1      47.014   8.003  12.001  0.00  0.00    +0.000 A 
ATOM     22  C   UNL     1      47.825   8.736  12.870  0.00  0.00    +0.000 A 
BRANCH  20  23
ATOM     23  C   UNL     1      46.004   5.812  11.203  0.00  0.00    +0.000 C 
BRANCH  23  24
ATOM     24  N   UNL     1      45.123   4.885  11.922  0.00  0.00    +0.000 NA
ATOM     25  C   UNL     1      43.964   5.546  12.528  0.00  0.00    +0.000 C 
ATOM     26  C   UNL     1      42.747   4.780  12.039  0.00  0.00    +0.000 C 
ATOM     27  N   UNL     1      43.196   4.039  10.862  0.00  0.00    +0.000 NA
ATOM     28  C   UNL     1      44.619   3.820  11.070  0.00  0.00    +0.000 C 
ATOM     29  H   UNL     1      43.087   4.626  10.042  0.00  0.00    +0.000 HD
ENDBRANCH  23  24
ENDBRANCH  20  23
ENDBRANCH  16  17
ENDBRANCH   2  16
TORSDOF 5
ENDMDL
MODEL 9
REMARK VINA RESULT:    -5.424      3.833      8.167
REMARK INTER + INTRA:          -8.118
REMARK INTER:                  -6.896
REMARK INTRA:                  -1.222
REMARK UNBOUND:                -1.109
REMARK  Name = 
REMARK  6 active torsions:
REMARK  status: ('A' for Active; 'I' for Inactive)
REMARK    1  A    between atoms: C_1  and  N_2
REMARK    2  A    between atoms: N_2  and  C_3
REMARK    3  A    between atoms: C_3  and  C_4
REMARK    4  A    between atoms: C_7  and  C_8
REMARK    5  A    between atoms: C_8  and  N_9
REMARK    6  A    between atoms: C_16  and  C_18
REMARK                            x       y       z     vdW  Elec       q    Type
REMARK                         _______ _______ _______ _____ _____    ______ ____
ROOT
ATOM      1  C   UNL     1      50.578  10.676  12.537  0.00  0.00    +0.000 C 
ATOM      2  N   UNL     1      50.715   9.423  13.270  0.00  0.00    +0.000 N 
ATOM      3  C   UNL     1      50.861   9.533  14.666  0.00  0.00    +0.000 C 
ATOM      4  O   UNL     1      50.892  10.631  15.221  0.00  0.00    +0.000 OA
ENDROOT
BRANCH   3   5
ATOM      5  C   UNL     1      51.029   8.316  15.473  0.00  0.00    +0.000 A 
ATOM      6  C   UNL     1      52.218   7.617  15.601  0.00  0.00    +0.000 A 
ATOM      7  S   UNL     1      52.122   6.294  16.677  0.00  0.00    +0.000 S 
ATOM      8  C   UNL     1      50.535   6.709  17.123  0.00  0.00    +0.000 A 
ATOM      9  N   UNL     1      49.894   6.042  18.117  0.00  0.00    +0.000 NA
ATOM     10  C   UNL     1      48.723   6.514  18.399  0.00  0.00    +0.000 A 
ATOM     11  N   UNL     1      48.120   7.563  17.747  0.00  0.00    +0.000 N 
ATOM     12  C   UNL     1      48.678   8.169  16.638  0.00  0.00    +0.000 A 
ATOM     13  O   UNL     1      48.013   8.913  15.926  0.00  0.00    +0.000 OA
ATOM     14  C   UNL     1      50.047   7.765  16.379  0.00  0.00    +0.000 A 
ATOM     15  H   UNL     1      47.178   7.833  17.967  0.00  0.00    +0.000 HD
ENDBRANCH   3   5
BRANCH   2  16
ATOM     16  C   UNL     1      50.378   8.157  12.616  0.00  0.00    +0.000 C 
BRANCH  16  17
ATOM     17  C   UNL     1      48.966   7.641  12.732  0.00  0.00    +0.000 A 
ATOM     18  C   UNL     1      47.908   8.341  12.131  0.00  0.00    +0.000 A 
ATOM     19  C   UNL     1      46.616   7.820  12.146  0.00  0.00    +0.000 A 
ATOM     20  C   UNL     1      46.351   6.587  12.757  0.00  0.00    +0.000 A 
ATOM     21  C   UNL     1      47.403   5.909  13.393  0.00  0.00    +0.000 A 
ATOM     22  C   UNL     1      48.698   6.432  13.384  0.00  0.00    +0.000 A 
BRANCH  20  23
ATOM     23  C   UNL     1      44.949   6.011  12.742  0.00  0.00    +0.000 C 
BRANCH  23  24
ATOM     24  N   UNL     1      44.742   5.041  11.662  0.00  0.00    +0.000 NA
ATOM     25  C   UNL     1      44.852   3.649  12.110  0.00  0.00    +0.000 C 
ATOM     26  C   UNL     1      43.579   2.962  11.647  0.00  0.00    +0.000 C 
ATOM     27  N   UNL     1      42.628   4.039  11.375  0.00  0.00    +0.000 NA
ATOM     28  C   UNL     1      43.446   5.188  11.020  0.00  0.00    +0.000 C 
ATOM     29  H   UNL     1      42.131   4.262  12.231  0.00  0.00    +0.000 HD
ENDBRANCH  23  24
ENDBRANCH  20  23
ENDBRANCH  16  17
ENDBRANCH   2  16
TORSDOF 5
ENDMDL
