MODEL 1
REMARK VINA RESULT:    -7.979      0.000      0.000
REMARK INTER + INTRA:         -12.217
REMARK INTER:                 -11.244
REMARK INTRA:                  -0.973
REMARK UNBOUND:                -0.973
REMARK  Name = 
REMARK  7 active torsions:
REMARK  status: ('A' for Active; 'I' for Inactive)
REMARK    1  A    between atoms: C_2  and  C_3
REMARK    2  A    between atoms: C_5  and  C_6
REMARK    3  A    between atoms: C_6  and  N_7
REMARK    4  A    between atoms: C_8  and  C_10
REMARK    5  A    between atoms: C_17  and  C_18
REMARK    6  A    between atoms: C_18  and  N_19
REMARK    7  A    between atoms: C_20  and  C_22
REMARK                            x       y       z     vdW  Elec       q    Type
REMARK                         _______ _______ _______ _____ _____    ______ ____
ROOT
ATOM      1  C   UNL     1      45.227   7.536  11.918  0.00  0.00    +0.000 A 
ATOM      2  C   UNL     1      44.457   6.617  11.178  0.00  0.00    +0.000 A 
ATOM      3  C   UNL     1      44.711   5.239  11.235  0.00  0.00    +0.000 A 
ATOM      4  C   UNL     1      45.754   4.789  12.052  0.00  0.00    +0.000 A 
ATOM      5  C   UNL     1      46.512   5.691  12.804  0.00  0.00    +0.000 A 
ATOM      6  C   UNL     1      46.273   7.076  12.740  0.00  0.00    +0.000 A 
ENDROOT
BRANCH   1   8
ATOM      7  N   UNL     1      44.641  10.056  11.670  0.00  0.00    +0.000 NA
ATOM      8  C   UNL     1      44.918   8.938  11.766  0.00  0.00    +0.000 C 
ENDBRANCH   1   8
BRANCH   3   9
ATOM      9  C   UNL     1      43.876   4.270  10.436  0.00  0.00    +0.000 C 
BRANCH   9  10
ATOM     10  N   UNL     1      44.666   3.286   9.745  0.00  0.00    +0.000 N 
ATOM     11  C   UNL     1      45.385   3.615   8.616  0.00  0.00    +0.000 C 
ATOM     12  O   UNL     1      45.400   4.743   8.132  0.00  0.00    +0.000 OA
ATOM     13  H   UNL     1      44.714   2.318  10.052  0.00  0.00    +0.000 HD
BRANCH  11  14
ATOM     14  C   UNL     1      46.135   2.491   8.050  0.00  0.00    +0.000 A 
ATOM     15  C   UNL     1      47.142   2.563   7.103  0.00  0.00    +0.000 A 
ATOM     16  N   UNL     1      47.535   1.275   6.885  0.00  0.00    +0.000 N 
ATOM     17  C   UNL     1      46.778   0.471   7.687  0.00  0.00    +0.000 A 
ATOM     18  N   UNL     1      45.921   1.165   8.406  0.00  0.00    +0.000 NA
ATOM     19  H   UNL     1      48.257   0.966   6.249  0.00  0.00    +0.000 HD
ENDBRANCH  11  14
ENDBRANCH   9  10
ENDBRANCH   3   9
BRANCH   6  20
ATOM     20  C   UNL     1      47.150   7.991  13.563  0.00  0.00    +0.000 C 
BRANCH  20  21
ATOM     21  N   UNL     1      47.666   7.340  14.742  0.00  0.00    +0.000 N 
ATOM     22  C   UNL     1      48.971   6.948  14.900  0.00  0.00    +0.000 C 
ATOM     23  O   UNL     1      49.807   7.063  14.009  0.00  0.00    +0.000 OA
ATOM     24  H   UNL     1      46.980   7.062  15.434  0.00  0.00    +0.000 HD
BRANCH  22  25
ATOM     25  C   UNL     1      49.330   6.442  16.238  0.00  0.00    +0.000 A 
ATOM     26  C   UNL     1      50.180   7.171  17.058  0.00  0.00    +0.000 A 
ATOM     27  S   UNL     1      50.406   6.474  18.601  0.00  0.00    +0.000 S 
ATOM     28  C   UNL     1      49.398   5.157  18.215  0.00  0.00    +0.000 A 
ATOM     29  N   UNL     1      49.147   4.173  19.120  0.00  0.00    +0.000 NA
ATOM     30  C   UNL     1      48.362   3.241  18.693  0.00  0.00    +0.000 A 
ATOM     31  N   UNL     1      47.810   3.198  17.441  0.00  0.00    +0.000 N 
ATOM     32  C   UNL     1      48.048   4.161  16.489  0.00  0.00    +0.000 A 
ATOM     33  O   UNL     1      47.538   4.092  15.375  0.00  0.00    +0.000 OA
ATOM     34  C   UNL     1      48.901   5.248  16.928  0.00  0.00    +0.000 A 
ATOM     35  H   UNL     1      47.200   2.443  17.163  0.00  0.00    +0.000 HD
ENDBRANCH  22  25
ENDBRANCH  20  21
ENDBRANCH   6  20
TORSDOF 7
ENDMDL
MODEL 2
REMARK VINA RESULT:    -7.499      4.457      9.275
REMARK INTER + INTRA:         -11.542
REMARK INTER:                 -10.653
REMARK INTRA:                  -0.889
REMARK UNBOUND:                -0.973
REMARK  Name = 
REMARK  7 active torsions:
REMARK  status: ('A' for Active; 'I' for Inactive)
REMARK    1  A    between atoms: C_2  and  C_3
REMARK    2  A    between atoms: C_5  and  C_6
REMARK    3  A    between atoms: C_6  and  N_7
REMARK    4  A    between atoms: C_8  and  C_10
REMARK    5  A    between atoms: C_17  and  C_18
REMARK    6  A    between atoms: C_18  and  N_19
REMARK    7  A    between atoms: C_20  and  C_22
REMARK                            x       y       z     vdW  Elec       q    Type
REMARK                         _______ _______ _______ _____ _____    ______ ____
ROOT
ATOM      1  C   UNL     1      49.240   4.229  17.954  0.00  0.00    +0.000 A 
ATOM      2  C   UNL     1      50.609   4.030  18.223  0.00  0.00    +0.000 A 
ATOM      3  C   UNL     1      51.286   2.891  17.764  0.00  0.00    +0.000 A 
ATOM      4  C   UNL     1      50.567   1.945  17.023  0.00  0.00    +0.000 A 
ATOM      5  C   UNL     1      49.214   2.142  16.735  0.00  0.00    +0.000 A 
ATOM      6  C   UNL     1      48.525   3.274  17.206  0.00  0.00    +0.000 A 
ENDROOT
BRANCH   1   8
ATOM      7  N   UNL     1      48.142   6.354  18.971  0.00  0.00    +0.000 NA
ATOM      8  C   UNL     1      48.619   5.411  18.500  0.00  0.00    +0.000 C 
ENDBRANCH   1   8
BRANCH   3   9
ATOM      9  C   UNL     1      52.750   2.695  18.062  0.00  0.00    +0.000 C 
BRANCH   9  10
ATOM     10  N   UNL     1      53.076   1.337  18.410  0.00  0.00    +0.000 N 
ATOM     11  C   UNL     1      54.031   0.633  17.710  0.00  0.00    +0.000 C 
ATOM     12  O   UNL     1      54.655   1.102  16.762  0.00  0.00    +0.000 OA
ATOM     13  H   UNL     1      52.610   0.847  19.168  0.00  0.00    +0.000 HD
BRANCH  11  14
ATOM     14  C   UNL     1      54.236  -0.730  18.206  0.00  0.00    +0.000 A 
ATOM     15  C   UNL     1      55.151  -1.654  17.731  0.00  0.00    +0.000 A 
ATOM     16  N   UNL     1      54.975  -2.772  18.493  0.00  0.00    +0.000 N 
ATOM     17  C   UNL     1      53.984  -2.506  19.393  0.00  0.00    +0.000 A 
ATOM     18  N   UNL     1      53.512  -1.285  19.254  0.00  0.00    +0.000 NA
ATOM     19  H   UNL     1      55.484  -3.641  18.412  0.00  0.00    +0.000 HD
ENDBRANCH  11  14
ENDBRANCH   9  10
ENDBRANCH   3   9
BRANCH   6  20
ATOM     20  C   UNL     1      47.056   3.406  16.874  0.00  0.00    +0.000 C 
BRANCH  20  21
ATOM     21  N   UNL     1      46.813   4.389  15.847  0.00  0.00    +0.000 N 
ATOM     22  C   UNL     1      46.862   4.128  14.501  0.00  0.00    +0.000 C 
ATOM     23  O   UNL     1      47.187   3.033  14.051  0.00  0.00    +0.000 OA
ATOM     24  H   UNL     1      46.717   5.347  16.160  0.00  0.00    +0.000 HD
BRANCH  22  25
ATOM     25  C   UNL     1      46.430   5.229  13.619  0.00  0.00    +0.000 A 
ATOM     26  C   UNL     1      47.294   6.277  13.331  0.00  0.00    +0.000 A 
ATOM     27  S   UNL     1      46.653   7.407  12.222  0.00  0.00    +0.000 S 
ATOM     28  C   UNL     1      45.185   6.550  12.112  0.00  0.00    +0.000 A 
ATOM     29  N   UNL     1      44.179   6.978  11.303  0.00  0.00    +0.000 NA
ATOM     30  C   UNL     1      43.127   6.229  11.316  0.00  0.00    +0.000 A 
ATOM     31  N   UNL     1      42.987   5.094  12.069  0.00  0.00    +0.000 N 
ATOM     32  C   UNL     1      43.970   4.633  12.911  0.00  0.00    +0.000 A 
ATOM     33  O   UNL     1      43.811   3.611  13.573  0.00  0.00    +0.000 OA
ATOM     34  C   UNL     1      45.186   5.423  12.913  0.00  0.00    +0.000 A 
ATOM     35  H   UNL     1      42.139   4.545  12.036  0.00  0.00    +0.000 HD
ENDBRANCH  22  25
ENDBRANCH  20  21
ENDBRANCH   6  20
TORSDOF 7
ENDMDL
MODEL 3
REMARK VINA RESULT:    -7.424      2.174      3.232
REMARK INTER + INTRA:         -11.435
REMARK INTER:                 -10.898
REMARK INTRA:                  -0.537
REMARK UNBOUND:                -0.973
REMARK  Name = 
REMARK  7 active torsions:
REMARK  status: ('A' for Active; 'I' for Inactive)
REMARK    1  A    between atoms: C_2  and  C_3
REMARK    2  A    between atoms: C_5  and  C_6
REMARK    3  A    between atoms: C_6  and  N_7
REMARK    4  A    between atoms: C_8  and  C_10
REMARK    5  A    between atoms: C_17  and  C_18
REMARK    6  A    between atoms: C_18  and  N_19
REMARK    7  A    between atoms: C_20  and  C_22
REMARK                            x       y       z     vdW  Elec       q    Type
REMARK                         _______ _______ _______ _____ _____    ______ ____
ROOT
ATOM      1  C   UNL     1      46.783   4.975  13.371  0.00  0.00    +0.000 A 
ATOM      2  C   UNL     1      45.858   4.377  12.491  0.00  0.00    +0.000 A 
ATOM      3  C   UNL     1      45.332   5.078  11.396  0.00  0.00    +0.000 A 
ATOM      4  C   UNL     1      45.750   6.399  11.191  0.00  0.00    +0.000 A 
ATOM      5  C   UNL     1      46.681   6.994  12.047  0.00  0.00    +0.000 A 
ATOM      6  C   UNL     1      47.200   6.303  13.156  0.00  0.00    +0.000 A 
ENDROOT
BRANCH   1   8
ATOM      7  N   UNL     1      47.575   3.574  15.411  0.00  0.00    +0.000 NA
ATOM      8  C   UNL     1      47.239   4.189  14.492  0.00  0.00    +0.000 C 
ENDBRANCH   1   8
BRANCH   3   9
ATOM      9  C   UNL     1      44.345   4.422  10.466  0.00  0.00    +0.000 C 
BRANCH   9  10
ATOM     10  N   UNL     1      44.928   3.363   9.685  0.00  0.00    +0.000 N 
ATOM     11  C   UNL     1      45.656   3.637   8.547  0.00  0.00    +0.000 C 
ATOM     12  O   UNL     1      45.851   4.774   8.129  0.00  0.00    +0.000 OA
ATOM     13  H   UNL     1      44.815   2.384   9.933  0.00  0.00    +0.000 HD
BRANCH  11  14
ATOM     14  C   UNL     1      46.179   2.439   7.884  0.00  0.00    +0.000 A 
ATOM     15  C   UNL     1      46.837   2.390   6.667  0.00  0.00    +0.000 A 
ATOM     16  N   UNL     1      47.130   1.073   6.460  0.00  0.00    +0.000 N 
ATOM     17  C   UNL     1      46.657   0.372   7.532  0.00  0.00    +0.000 A 
ATOM     18  N   UNL     1      46.076   1.159   8.413  0.00  0.00    +0.000 NA
ATOM     19  H   UNL     1      47.611   0.682   5.663  0.00  0.00    +0.000 HD
ENDBRANCH  11  14
ENDBRANCH   9  10
ENDBRANCH   3   9
BRANCH   6  20
ATOM     20  C   UNL     1      48.183   7.021  14.051  0.00  0.00    +0.000 C 
BRANCH  20  21
ATOM     21  N   UNL     1      47.990   6.703  15.444  0.00  0.00    +0.000 N 
ATOM     22  C   UNL     1      49.008   6.447  16.327  0.00  0.00    +0.000 C 
ATOM     23  O   UNL     1      50.185   6.402  15.983  0.00  0.00    +0.000 OA
ATOM     24  H   UNL     1      47.033   6.552  15.738  0.00  0.00    +0.000 HD
BRANCH  22  25
ATOM     25  C   UNL     1      48.608   6.296  17.739  0.00  0.00    +0.000 A 
ATOM     26  C   UNL     1      48.751   5.075  18.382  0.00  0.00    +0.000 A 
ATOM     27  S   UNL     1      48.324   5.118  20.035  0.00  0.00    +0.000 S 
ATOM     28  C   UNL     1      47.904   6.765  19.941  0.00  0.00    +0.000 A 
ATOM     29  N   UNL     1      47.460   7.442  21.034  0.00  0.00    +0.000 NA
ATOM     30  C   UNL     1      47.183   8.685  20.818  0.00  0.00    +0.000 A 
ATOM     31  N   UNL     1      47.302   9.311  19.606  0.00  0.00    +0.000 N 
ATOM     32  C   UNL     1      47.731   8.664  18.472  0.00  0.00    +0.000 A 
ATOM     33  O   UNL     1      47.826   9.255  17.401  0.00  0.00    +0.000 OA
ATOM     34  C   UNL     1      48.084   7.271  18.667  0.00  0.00    +0.000 A 
ATOM     35  H   UNL     1      47.072  10.289  19.497  0.00  0.00    +0.000 HD
ENDBRANCH  22  25
ENDBRANCH  20  21
ENDBRANCH   6  20
TORSDOF 7
ENDMDL
MODEL 4
REMARK VINA RESULT:    -7.172      1.552      1.919
REMARK INTER + INTRA:         -11.081
REMARK INTER:                  -9.785
REMARK INTRA:                  -1.295
REMARK UNBOUND:                -0.973
REMARK  Name = 
REMARK  7 active torsions:
REMARK  status: ('A' for Active; 'I' for Inactive)
REMARK    1  A    between atoms: C_2  and  C_3
REMARK    2  A    between atoms: C_5  and  C_6
REMARK    3  A    between atoms: C_6  and  N_7
REMARK    4  A    between atoms: C_8  and  C_10
REMARK    5  A    between atoms: C_17  and  C_18
REMARK    6  A    between atoms: C_18  and  N_19
REMARK    7  A    between atoms: C_20  and  C_22
REMARK                            x       y       z     vdW  Elec       q    Type
REMARK                         _______ _______ _______ _____ _____    ______ ____
ROOT
ATOM      1  C   UNL     1      47.217   7.162  11.786  0.00  0.00    +0.000 A 
ATOM      2  C   UNL     1      46.554   6.225  10.967  0.00  0.00    +0.000 A 
ATOM      3  C   UNL     1      45.189   5.947  11.132  0.00  0.00    +0.000 A 
ATOM      4  C   UNL     1      44.489   6.629  12.134  0.00  0.00    +0.000 A 
ATOM      5  C   UNL     1      45.133   7.574  12.938  0.00  0.00    +0.000 A 
ATOM      6  C   UNL     1      46.505   7.845  12.790  0.00  0.00    +0.000 A 
ENDROOT
BRANCH   1   8
ATOM      7  N   UNL     1      49.756   7.541  11.382  0.00  0.00    +0.000 NA
ATOM      8  C   UNL     1      48.631   7.352  11.569  0.00  0.00    +0.000 C 
ENDBRANCH   1   8
BRANCH   3   9
ATOM      9  C   UNL     1      44.498   4.942  10.247  0.00  0.00    +0.000 C 
BRANCH   9  10
ATOM     10  N   UNL     1      45.352   4.424   9.211  0.00  0.00    +0.000 N 
ATOM     11  C   UNL     1      45.243   3.119   8.785  0.00  0.00    +0.000 C 
ATOM     12  O   UNL     1      44.432   2.324   9.249  0.00  0.00    +0.000 OA
ATOM     13  H   UNL     1      46.069   4.993   8.768  0.00  0.00    +0.000 HD
BRANCH  11  14
ATOM     14  C   UNL     1      46.187   2.769   7.720  0.00  0.00    +0.000 A 
ATOM     15  C   UNL     1      46.576   3.573   6.664  0.00  0.00    +0.000 A 
ATOM     16  N   UNL     1      47.458   2.827   5.937  0.00  0.00    +0.000 N 
ATOM     17  C   UNL     1      47.583   1.617   6.557  0.00  0.00    +0.000 A 
ATOM     18  N   UNL     1      46.833   1.541   7.637  0.00  0.00    +0.000 NA
ATOM     19  H   UNL     1      47.937   3.112   5.095  0.00  0.00    +0.000 HD
ENDBRANCH  11  14
ENDBRANCH   9  10
ENDBRANCH   3   9
BRANCH   6  20
ATOM     20  C   UNL     1      47.136   8.863  13.712  0.00  0.00    +0.000 C 
BRANCH  20  21
ATOM     21  N   UNL     1      47.605   8.271  14.941  0.00  0.00    +0.000 N 
ATOM     22  C   UNL     1      48.913   8.275  15.351  0.00  0.00    +0.000 C 
ATOM     23  O   UNL     1      49.820   8.734  14.663  0.00  0.00    +0.000 OA
ATOM     24  H   UNL     1      46.927   7.725  15.459  0.00  0.00    +0.000 HD
BRANCH  22  25
ATOM     25  C   UNL     1      49.160   7.756  16.709  0.00  0.00    +0.000 A 
ATOM     26  C   UNL     1      49.684   8.584  17.692  0.00  0.00    +0.000 A 
ATOM     27  S   UNL     1      49.813   7.835  19.222  0.00  0.00    +0.000 S 
ATOM     28  C   UNL     1      49.201   6.366  18.615  0.00  0.00    +0.000 A 
ATOM     29  N   UNL     1      49.038   5.284  19.423  0.00  0.00    +0.000 NA
ATOM     30  C   UNL     1      48.561   4.240  18.831  0.00  0.00    +0.000 A 
ATOM     31  N   UNL     1      48.239   4.178  17.501  0.00  0.00    +0.000 N 
ATOM     32  C   UNL     1      48.402   5.240  16.644  0.00  0.00    +0.000 A 
ATOM     33  O   UNL     1      48.103   5.149  15.457  0.00  0.00    +0.000 OA
ATOM     34  C   UNL     1      48.908   6.447  17.267  0.00  0.00    +0.000 A 
ATOM     35  H   UNL     1      47.866   3.332  17.092  0.00  0.00    +0.000 HD
ENDBRANCH  22  25
ENDBRANCH  20  21
ENDBRANCH   6  20
TORSDOF 7
ENDMDL
MODEL 5
REMARK VINA RESULT:    -7.134      1.657      2.218
REMARK INTER + INTRA:         -11.026
REMARK INTER:                 -10.179
REMARK INTRA:                  -0.847
REMARK UNBOUND:                -0.973
REMARK  Name = 
REMARK  7 active torsions:
REMARK  status: ('A' for Active; 'I' for Inactive)
REMARK    1  A    between atoms: C_2  and  C_3
REMARK    2  A    between atoms: C_5  and  C_6
REMARK    3  A    between atoms: C_6  and  N_7
REMARK    4  A    between atoms: C_8  and  C_10
REMARK    5  A    between atoms: C_17  and  C_18
REMARK    6  A    between atoms: C_18  and  N_19
REMARK    7  A    between atoms: C_20  and  C_22
REMARK                            x       y       z     vdW  Elec       q    Type
REMARK                         _______ _______ _______ _____ _____    ______ ____
ROOT
ATOM      1  C   UNL     1      45.449   7.073  12.091  0.00  0.00    +0.000 A 
ATOM      2  C   UNL     1      44.662   6.235  11.276  0.00  0.00    +0.000 A 
ATOM      3  C   UNL     1      44.778   4.839  11.337  0.00  0.00    +0.000 A 
ATOM      4  C   UNL     1      45.698   4.287  12.236  0.00  0.00    +0.000 A 
ATOM      5  C   UNL     1      46.470   5.109  13.062  0.00  0.00    +0.000 A 
ATOM      6  C   UNL     1      46.371   6.511  12.994  0.00  0.00    +0.000 A 
ENDROOT
BRANCH   1   8
ATOM      7  N   UNL     1      45.200   9.643  11.791  0.00  0.00    +0.000 NA
ATOM      8  C   UNL     1      45.290   8.498  11.931  0.00  0.00    +0.000 C 
ENDBRANCH   1   8
BRANCH   3   9
ATOM      9  C   UNL     1      43.928   3.958  10.456  0.00  0.00    +0.000 C 
BRANCH   9  10
ATOM     10  N   UNL     1      44.702   3.022   9.684  0.00  0.00    +0.000 N 
ATOM     11  C   UNL     1      45.407   3.428   8.572  0.00  0.00    +0.000 C 
ATOM     12  O   UNL     1      45.422   4.588   8.170  0.00  0.00    +0.000 OA
ATOM     13  H   UNL     1      44.747   2.035   9.920  0.00  0.00    +0.000 HD
BRANCH  11  14
ATOM     14  C   UNL     1      46.141   2.344   7.915  0.00  0.00    +0.000 A 
ATOM     15  C   UNL     1      46.955   2.454   6.801  0.00  0.00    +0.000 A 
ATOM     16  N   UNL     1      47.416   1.193   6.555  0.00  0.00    +0.000 N 
ATOM     17  C   UNL     1      46.886   0.368   7.506  0.00  0.00    +0.000 A 
ATOM     18  N   UNL     1      46.112   1.023   8.345  0.00  0.00    +0.000 NA
ATOM     19  H   UNL     1      48.038   0.915   5.810  0.00  0.00    +0.000 HD
ENDBRANCH  11  14
ENDBRANCH   9  10
ENDBRANCH   3   9
BRANCH   6  20
ATOM     20  C   UNL     1      47.255   7.334  13.903  0.00  0.00    +0.000 C 
BRANCH  20  21
ATOM     21  N   UNL     1      48.040   6.515  14.792  0.00  0.00    +0.000 N 
ATOM     22  C   UNL     1      48.722   6.991  15.883  0.00  0.00    +0.000 C 
ATOM     23  O   UNL     1      48.775   8.186  16.158  0.00  0.00    +0.000 OA
ATOM     24  H   UNL     1      48.175   5.552  14.509  0.00  0.00    +0.000 HD
BRANCH  22  25
ATOM     25  C   UNL     1      49.334   5.969  16.752  0.00  0.00    +0.000 A 
ATOM     26  C   UNL     1      48.536   5.105  17.489  0.00  0.00    +0.000 A 
ATOM     27  S   UNL     1      49.420   3.933  18.362  0.00  0.00    +0.000 S 
ATOM     28  C   UNL     1      50.904   4.560  17.809  0.00  0.00    +0.000 A 
ATOM     29  N   UNL     1      52.086   3.998  18.178  0.00  0.00    +0.000 NA
ATOM     30  C   UNL     1      53.130   4.573  17.680  0.00  0.00    +0.000 A 
ATOM     31  N   UNL     1      53.099   5.664  16.853  0.00  0.00    +0.000 N 
ATOM     32  C   UNL     1      51.930   6.274  16.467  0.00  0.00    +0.000 A 
ATOM     33  O   UNL     1      51.938   7.250  15.724  0.00  0.00    +0.000 OA
ATOM     34  C   UNL     1      50.725   5.648  16.975  0.00  0.00    +0.000 A 
ATOM     35  H   UNL     1      53.951   6.071  16.492  0.00  0.00    +0.000 HD
ENDBRANCH  22  25
ENDBRANCH  20  21
ENDBRANCH   6  20
TORSDOF 7
ENDMDL
MODEL 6
REMARK VINA RESULT:    -6.973      2.895      4.314
REMARK INTER + INTRA:         -10.799
REMARK INTER:                  -9.588
REMARK INTRA:                  -1.211
REMARK UNBOUND:                -0.973
REMARK  Name = 
REMARK  7 active torsions:
REMARK  status: ('A' for Active; 'I' for Inactive)
REMARK    1  A    between atoms: C_2  and  C_3
REMARK    2  A    between atoms: C_5  and  C_6
REMARK    3  A    between atoms: C_6  and  N_7
REMARK    4  A    between atoms: C_8  and  C_10
REMARK    5  A    between atoms: C_17  and  C_18
REMARK    6  A    between atoms: C_18  and  N_19
REMARK    7  A    between atoms: C_20  and  C_22
REMARK                            x       y       z     vdW  Elec       q    Type
REMARK                         _______ _______ _______ _____ _____    ______ ____
ROOT
ATOM      1  C   UNL     1      46.366   4.882  13.120  0.00  0.00    +0.000 A 
ATOM      2  C   UNL     1      45.544   4.300  12.134  0.00  0.00    +0.000 A 
ATOM      3  C   UNL     1      44.862   5.086  11.194  0.00  0.00    +0.000 A 
ATOM      4  C   UNL     1      45.017   6.476  11.253  0.00  0.00    +0.000 A 
ATOM      5  C   UNL     1      45.845   7.062  12.215  0.00  0.00    +0.000 A 
ATOM      6  C   UNL     1      46.519   6.281  13.171  0.00  0.00    +0.000 A 
ENDROOT
BRANCH   1   8
ATOM      7  N   UNL     1      47.528   3.316  14.838  0.00  0.00    +0.000 NA
ATOM      8  C   UNL     1      46.997   3.997  14.069  0.00  0.00    +0.000 C 
ENDBRANCH   1   8
BRANCH   3   9
ATOM      9  C   UNL     1      43.987   4.445  10.147  0.00  0.00    +0.000 C 
BRANCH   9  10
ATOM     10  N   UNL     1      44.661   3.409   9.410  0.00  0.00    +0.000 N 
ATOM     11  C   UNL     1      45.580   3.716   8.430  0.00  0.00    +0.000 C 
ATOM     12  O   UNL     1      45.879   4.866   8.123  0.00  0.00    +0.000 OA
ATOM     13  H   UNL     1      44.477   2.423   9.574  0.00  0.00    +0.000 HD
BRANCH  11  14
ATOM     14  C   UNL     1      46.171   2.537   7.791  0.00  0.00    +0.000 A 
ATOM     15  C   UNL     1      46.861   2.507   6.592  0.00  0.00    +0.000 A 
ATOM     16  N   UNL     1      47.215   1.202   6.403  0.00  0.00    +0.000 N 
ATOM     17  C   UNL     1      46.745   0.490   7.468  0.00  0.00    +0.000 A 
ATOM     18  N   UNL     1      46.109   1.257   8.328  0.00  0.00    +0.000 NA
ATOM     19  H   UNL     1      47.733   0.827   5.621  0.00  0.00    +0.000 HD
ENDBRANCH  11  14
ENDBRANCH   9  10
ENDBRANCH   3   9
BRANCH   6  20
ATOM     20  C   UNL     1      47.377   6.988  14.195  0.00  0.00    +0.000 C 
BRANCH  20  21
ATOM     21  N   UNL     1      48.723   7.205  13.724  0.00  0.00    +0.000 N 
ATOM     22  C   UNL     1      49.176   8.386  13.195  0.00  0.00    +0.000 C 
ATOM     23  O   UNL     1      48.442   9.353  13.014  0.00  0.00    +0.000 OA
ATOM     24  H   UNL     1      49.320   6.387  13.686  0.00  0.00    +0.000 HD
BRANCH  22  25
ATOM     25  C   UNL     1      50.623   8.451  12.919  0.00  0.00    +0.000 A 
ATOM     26  C   UNL     1      51.081   8.766  11.647  0.00  0.00    +0.000 A 
ATOM     27  S   UNL     1      52.782   8.886  11.541  0.00  0.00    +0.000 S 
ATOM     28  C   UNL     1      52.967   8.490  13.187  0.00  0.00    +0.000 A 
ATOM     29  N   UNL     1      54.198   8.429  13.763  0.00  0.00    +0.000 NA
ATOM     30  C   UNL     1      54.188   8.122  15.017  0.00  0.00    +0.000 A 
ATOM     31  N   UNL     1      53.059   7.864  15.748  0.00  0.00    +0.000 N 
ATOM     32  C   UNL     1      51.796   7.898  15.205  0.00  0.00    +0.000 A 
ATOM     33  O   UNL     1      50.805   7.661  15.889  0.00  0.00    +0.000 OA
ATOM     34  C   UNL     1      51.750   8.267  13.804  0.00  0.00    +0.000 A 
ATOM     35  H   UNL     1      53.112   7.631  16.729  0.00  0.00    +0.000 HD
ENDBRANCH  22  25
ENDBRANCH  20  21
ENDBRANCH   6  20
TORSDOF 7
ENDMDL
MODEL 7
REMARK VINA RESULT:    -6.943      3.082      5.010
REMARK INTER + INTRA:         -10.757
REMARK INTER:                  -9.613
REMARK INTRA:                  -1.144
REMARK UNBOUND:                -0.973
REMARK  Name = 
REMARK  7 active torsions:
REMARK  status: ('A' for Active; 'I' for Inactive)
REMARK    1  A    between atoms: C_2  and  C_3
REMARK    2  A    between atoms: C_5  and  C_6
REMARK    3  A    between atoms: C_6  and  N_7
REMARK    4  A    between atoms: C_8  and  C_10
REMARK    5  A    between atoms: C_17  and  C_18
REMARK    6  A    between atoms: C_18  and  N_19
REMARK    7  A    between atoms: C_20  and  C_22
REMARK                            x       y       z     vdW  Elec       q    Type
REMARK                         _______ _______ _______ _____ _____    ______ ____
ROOT
ATOM      1  C   UNL     1      47.763   5.046  16.135  0.00  0.00    +0.000 A 
ATOM      2  C   UNL     1      47.359   5.247  14.800  0.00  0.00    +0.000 A 
ATOM      3  C   UNL     1      47.798   6.357  14.063  0.00  0.00    +0.000 A 
ATOM      4  C   UNL     1      48.656   7.271  14.687  0.00  0.00    +0.000 A 
ATOM      5  C   UNL     1      49.076   7.070  16.005  0.00  0.00    +0.000 A 
ATOM      6  C   UNL     1      48.627   5.968  16.755  0.00  0.00    +0.000 A 
ENDROOT
BRANCH   1   8
ATOM      7  N   UNL     1      46.770   2.978  17.356  0.00  0.00    +0.000 NA
ATOM      8  C   UNL     1      47.229   3.897  16.826  0.00  0.00    +0.000 C 
ENDBRANCH   1   8
BRANCH   3   9
ATOM      9  C   UNL     1      47.356   6.555  12.636  0.00  0.00    +0.000 C 
BRANCH   9  10
ATOM     10  N   UNL     1      46.662   5.414  12.100  0.00  0.00    +0.000 N 
ATOM     11  C   UNL     1      45.403   5.539  11.553  0.00  0.00    +0.000 C 
ATOM     12  O   UNL     1      44.799   6.605  11.489  0.00  0.00    +0.000 OA
ATOM     13  H   UNL     1      47.065   4.481  12.116  0.00  0.00    +0.000 HD
BRANCH  11  14
ATOM     14  C   UNL     1      44.854   4.276  11.052  0.00  0.00    +0.000 A 
ATOM     15  C   UNL     1      44.202   3.307  11.793  0.00  0.00    +0.000 A 
ATOM     16  N   UNL     1      43.877   2.321  10.906  0.00  0.00    +0.000 N 
ATOM     17  C   UNL     1      44.327   2.708   9.677  0.00  0.00    +0.000 A 
ATOM     18  N   UNL     1      44.922   3.882   9.721  0.00  0.00    +0.000 NA
ATOM     19  H   UNL     1      43.391   1.461  11.115  0.00  0.00    +0.000 HD
ENDBRANCH  11  14
ENDBRANCH   9  10
ENDBRANCH   3   9
BRANCH   6  20
ATOM     20  C   UNL     1      49.107   5.832  18.182  0.00  0.00    +0.000 C 
BRANCH  20  21
ATOM     21  N   UNL     1      50.220   4.923  18.300  0.00  0.00    +0.000 N 
ATOM     22  C   UNL     1      51.535   5.290  18.175  0.00  0.00    +0.000 C 
ATOM     23  O   UNL     1      51.877   6.432  17.882  0.00  0.00    +0.000 OA
ATOM     24  H   UNL     1      49.987   3.939  18.365  0.00  0.00    +0.000 HD
BRANCH  22  25
ATOM     25  C   UNL     1      52.525   4.243  18.486  0.00  0.00    +0.000 A 
ATOM     26  C   UNL     1      53.664   4.549  19.218  0.00  0.00    +0.000 A 
ATOM     27  S   UNL     1      54.645   3.192  19.558  0.00  0.00    +0.000 S 
ATOM     28  C   UNL     1      53.596   2.152  18.711  0.00  0.00    +0.000 A 
ATOM     29  N   UNL     1      53.847   0.818  18.622  0.00  0.00    +0.000 NA
ATOM     30  C   UNL     1      52.966   0.151  17.955  0.00  0.00    +0.000 A 
ATOM     31  N   UNL     1      51.859   0.697  17.362  0.00  0.00    +0.000 N 
ATOM     32  C   UNL     1      51.573   2.040  17.412  0.00  0.00    +0.000 A 
ATOM     33  O   UNL     1      50.572   2.497  16.869  0.00  0.00    +0.000 OA
ATOM     34  C   UNL     1      52.518   2.832  18.176  0.00  0.00    +0.000 A 
ATOM     35  H   UNL     1      51.201   0.123  16.853  0.00  0.00    +0.000 HD
ENDBRANCH  22  25
ENDBRANCH  20  21
ENDBRANCH   6  20
TORSDOF 7
ENDMDL
MODEL 8
REMARK VINA RESULT:    -6.731      3.205      8.557
REMARK INTER + INTRA:         -10.459
REMARK INTER:                  -9.369
REMARK INTRA:                  -1.090
REMARK UNBOUND:                -0.973
REMARK  Name = 
REMARK  7 active torsions:
REMARK  status: ('A' for Active; 'I' for Inactive)
REMARK    1  A    between atoms: C_2  and  C_3
REMARK    2  A    between atoms: C_5  and  C_6
REMARK    3  A    between atoms: C_6  and  N_7
REMARK    4  A    between atoms: C_8  and  C_10
REMARK    5  A    between atoms: C_17  and  C_18
REMARK    6  A    between atoms: C_18  and  N_19
REMARK    7  A    between atoms: C_20  and  C_22
REMARK                            x       y       z     vdW  Elec       q    Type
REMARK                         _______ _______ _______ _____ _____    ______ ____
ROOT
ATOM      1  C   UNL     1      49.933   7.892  13.145  0.00  0.00    +0.000 A 
ATOM      2  C   UNL     1      50.749   7.744  14.285  0.00  0.00    +0.000 A 
ATOM      3  C   UNL     1      50.250   7.193  15.474  0.00  0.00    +0.000 A 
ATOM      4  C   UNL     1      48.911   6.785  15.506  0.00  0.00    +0.000 A 
ATOM      5  C   UNL     1      48.099   6.909  14.375  0.00  0.00    +0.000 A 
ATOM      6  C   UNL     1      48.589   7.476  13.184  0.00  0.00    +0.000 A 
ENDROOT
BRANCH   1   8
ATOM      7  N   UNL     1      51.030   8.980  11.055  0.00  0.00    +0.000 NA
ATOM      8  C   UNL     1      50.523   8.506  11.980  0.00  0.00    +0.000 C 
ENDBRANCH   1   8
BRANCH   3   9
ATOM      9  C   UNL     1      51.137   7.043  16.683  0.00  0.00    +0.000 C 
BRANCH   9  10
ATOM     10  N   UNL     1      51.569   5.688  16.898  0.00  0.00    +0.000 N 
ATOM     11  C   UNL     1      50.904   4.859  17.775  0.00  0.00    +0.000 C 
ATOM     12  O   UNL     1      49.922   5.211  18.421  0.00  0.00    +0.000 OA
ATOM     13  H   UNL     1      52.381   5.299  16.425  0.00  0.00    +0.000 HD
BRANCH  11  14
ATOM     14  C   UNL     1      51.479   3.514  17.862  0.00  0.00    +0.000 A 
ATOM     15  C   UNL     1      52.557   3.125  18.637  0.00  0.00    +0.000 A 
ATOM     16  N   UNL     1      52.727   1.793  18.390  0.00  0.00    +0.000 N 
ATOM     17  C   UNL     1      51.769   1.415  17.495  0.00  0.00    +0.000 A 
ATOM     18  N   UNL     1      50.996   2.423  17.150  0.00  0.00    +0.000 NA
ATOM     19  H   UNL     1      53.430   1.191  18.795  0.00  0.00    +0.000 HD
ENDBRANCH  11  14
ENDBRANCH   9  10
ENDBRANCH   3   9
BRANCH   6  20
ATOM     20  C   UNL     1      47.645   7.600  12.010  0.00  0.00    +0.000 C 
BRANCH  20  21
ATOM     21  N   UNL     1      46.876   6.399  11.798  0.00  0.00    +0.000 N 
ATOM     22  C   UNL     1      45.506   6.355  11.751  0.00  0.00    +0.000 C 
ATOM     23  O   UNL     1      44.806   7.343  11.956  0.00  0.00    +0.000 OA
ATOM     24  H   UNL     1      47.397   5.530  11.800  0.00  0.00    +0.000 HD
BRANCH  22  25
ATOM     25  C   UNL     1      44.918   5.058  11.368  0.00  0.00    +0.000 A 
ATOM     26  C   UNL     1      44.122   4.357  12.263  0.00  0.00    +0.000 A 
ATOM     27  S   UNL     1      43.456   2.925  11.612  0.00  0.00    +0.000 S 
ATOM     28  C   UNL     1      44.236   3.177  10.119  0.00  0.00    +0.000 A 
ATOM     29  N   UNL     1      44.077   2.306   9.086  0.00  0.00    +0.000 NA
ATOM     30  C   UNL     1      44.722   2.624   8.014  0.00  0.00    +0.000 A 
ATOM     31  N   UNL     1      45.518   3.731   7.882  0.00  0.00    +0.000 N 
ATOM     32  C   UNL     1      45.721   4.629   8.902  0.00  0.00    +0.000 A 
ATOM     33  O   UNL     1      46.441   5.611   8.750  0.00  0.00    +0.000 OA
ATOM     34  C   UNL     1      44.994   4.333  10.121  0.00  0.00    +0.000 A 
ATOM     35  H   UNL     1      45.998   3.930   7.015  0.00  0.00    +0.000 HD
ENDBRANCH  22  25
ENDBRANCH  20  21
ENDBRANCH   6  20
TORSDOF 7
ENDMDL
MODEL 9
REMARK VINA RESULT:    -6.673      3.815      9.766
REMARK INTER + INTRA:         -10.377
REMARK INTER:                  -9.428
REMARK INTRA:                  -0.949
REMARK UNBOUND:                -0.973
REMARK  Name = 
REMARK  7 active torsions:
REMARK  status: ('A' for Active; 'I' for Inactive)
REMARK    1  A    between atoms: C_2  and  C_3
REMARK    2  A    between atoms: C_5  and  C_6
REMARK    3  A    between atoms: C_6  and  N_7
REMARK    4  A    between atoms: C_8  and  C_10
REMARK    5  A    between atoms: C_17  and  C_18
REMARK    6  A    between atoms: C_18  and  N_19
REMARK    7  A    between atoms: C_20  and  C_22
REMARK                            x       y       z     vdW  Elec       q    Type
REMARK                         _______ _______ _______ _____ _____    ______ ____
ROOT
ATOM      1  C   UNL     1      49.302   4.245  17.974  0.00  0.00    +0.000 A 
ATOM      2  C   UNL     1      50.676   4.060  18.231  0.00  0.00    +0.000 A 
ATOM      3  C   UNL     1      51.360   2.927  17.767  0.00  0.00    +0.000 A 
ATOM      4  C   UNL     1      50.644   1.974  17.032  0.00  0.00    +0.000 A 
ATOM      5  C   UNL     1      49.287   2.158  16.755  0.00  0.00    +0.000 A 
ATOM      6  C   UNL     1      48.590   3.283  17.232  0.00  0.00    +0.000 A 
ENDROOT
BRANCH   1   8
ATOM      7  N   UNL     1      48.147   6.341  18.987  0.00  0.00    +0.000 NA
ATOM      8  C   UNL     1      48.675   5.421  18.526  0.00  0.00    +0.000 C 
ENDBRANCH   1   8
BRANCH   3   9
ATOM      9  C   UNL     1      52.829   2.746  18.052  0.00  0.00    +0.000 C 
BRANCH   9  10
ATOM     10  N   UNL     1      53.393   3.837  18.802  0.00  0.00    +0.000 N 
ATOM     11  C   UNL     1      54.342   4.667  18.245  0.00  0.00    +0.000 C 
ATOM     12  O   UNL     1      54.763   4.536  17.100  0.00  0.00    +0.000 OA
ATOM     13  H   UNL     1      53.126   4.027  19.764  0.00  0.00    +0.000 HD
BRANCH  11  14
ATOM     14  C   UNL     1      54.798   5.726  19.149  0.00  0.00    +0.000 A 
ATOM     15  C   UNL     1      55.626   6.787  18.828  0.00  0.00    +0.000 A 
ATOM     16  N   UNL     1      55.774   7.501  19.981  0.00  0.00    +0.000 N 
ATOM     17  C   UNL     1      55.047   6.874  20.951  0.00  0.00    +0.000 A 
ATOM     18  N   UNL     1      54.443   5.798  20.491  0.00  0.00    +0.000 NA
ATOM     19  H   UNL     1      56.319   8.344  20.101  0.00  0.00    +0.000 HD
ENDBRANCH  11  14
ENDBRANCH   9  10
ENDBRANCH   3   9
BRANCH   6  20
ATOM     20  C   UNL     1      47.118   3.401  16.913  0.00  0.00    +0.000 C 
BRANCH  20  21
ATOM     21  N   UNL     1      46.854   4.399  15.906  0.00  0.00    +0.000 N 
ATOM     22  C   UNL     1      46.881   4.160  14.555  0.00  0.00    +0.000 C 
ATOM     23  O   UNL     1      47.201   3.073  14.083  0.00  0.00    +0.000 OA
ATOM     24  H   UNL     1      46.759   5.351  16.236  0.00  0.00    +0.000 HD
BRANCH  22  25
ATOM     25  C   UNL     1      46.430   5.273  13.699  0.00  0.00    +0.000 A 
ATOM     26  C   UNL     1      47.259   6.363  13.472  0.00  0.00    +0.000 A 
ATOM     27  S   UNL     1      46.605   7.505  12.383  0.00  0.00    +0.000 S 
ATOM     28  C   UNL     1      45.176   6.596  12.201  0.00  0.00    +0.000 A 
ATOM     29  N   UNL     1      44.177   7.012  11.378  0.00  0.00    +0.000 NA
ATOM     30  C   UNL     1      43.156   6.222  11.334  0.00  0.00    +0.000 A 
ATOM     31  N   UNL     1      43.040   5.057  12.044  0.00  0.00    +0.000 N 
ATOM     32  C   UNL     1      44.017   4.606  12.899  0.00  0.00    +0.000 A 
ATOM     33  O   UNL     1      43.881   3.556  13.521  0.00  0.00    +0.000 OA
ATOM     34  C   UNL     1      45.199   5.442  12.963  0.00  0.00    +0.000 A 
ATOM     35  H   UNL     1      42.216   4.477  11.967  0.00  0.00    +0.000 HD
ENDBRANCH  22  25
ENDBRANCH  20  21
ENDBRANCH   6  20
TORSDOF 7
ENDMDL
