MODEL 1
REMARK VINA RESULT:    -8.151      0.000      0.000
REMARK INTER + INTRA:         -12.050
REMARK INTER:                 -11.248
REMARK INTRA:                  -0.802
REMARK UNBOUND:                -0.802
REMARK  Name = 
REMARK  10 active torsions:
REMARK  status: ('A' for Active; 'I' for Inactive)
REMARK    1  A    between atoms: C_1  and  C_2
REMARK    2  A    between atoms: C_2  and  C_3
REMARK    3  A    between atoms: C_2  and  C_4
REMARK    4  A    between atoms: C_2  and  C_5
REMARK    5  A    between atoms: C_7  and  O_8
REMARK    6  A    between atoms: O_8  and  C_9
REMARK    7  A    between atoms: C_9  and  C_10
REMARK    8  A    between atoms: C_13  and  C_14
REMARK    9  A    between atoms: C_14  and  N_15
REMARK   10  A    between atoms: C_19  and  C_20
REMARK                            x       y       z     vdW  Elec       q    Type
REMARK                         _______ _______ _______ _____ _____    ______ ____
ROOT
ATOM      1  C   UNL     1      47.779   7.106  12.543  0.00  0.00    +0.000 A 
ATOM      2  C   UNL     1      46.708   7.013  11.636  0.00  0.00    +0.000 A 
ATOM      3  C   UNL     1      45.746   6.002  11.714  0.00  0.00    +0.000 A 
ATOM      4  C   UNL     1      45.836   5.051  12.726  0.00  0.00    +0.000 A 
ATOM      5  C   UNL     1      46.882   5.115  13.652  0.00  0.00    +0.000 A 
ATOM      6  C   UNL     1      47.846   6.136  13.556  0.00  0.00    +0.000 A 
ENDROOT
BRANCH   5   7
ATOM      7  C   UNL     1      47.038   4.092  14.720  0.00  0.00    +0.000 C 
ATOM      8  N   UNL     1      46.698   4.449  15.996  0.00  0.00    +0.000 N 
ATOM      9  O   UNL     1      47.475   2.974  14.480  0.00  0.00    +0.000 OA
ATOM     10  H   UNL     1      46.533   5.404  16.279  0.00  0.00    +0.000 HD
ATOM     11  H   UNL     1      46.872   3.764  16.721  0.00  0.00    +0.000 HD
ENDBRANCH   5   7
BRANCH   1  13
ATOM     12  C   UNL     1      49.944   7.754  11.412  0.00  0.00    +0.000 C 
ATOM     13  C   UNL     1      48.814   8.227  12.357  0.00  0.00    +0.000 C 
ATOM     14  C   UNL     1      49.424   8.580  13.732  0.00  0.00    +0.000 C 
ATOM     15  C   UNL     1      48.233   9.525  11.761  0.00  0.00    +0.000 C 
ENDBRANCH   1  13
BRANCH   3  16
ATOM     16  O   UNL     1      44.694   5.851  10.846  0.00  0.00    +0.000 OA
BRANCH  16  17
ATOM     17  C   UNL     1      44.240   4.506  10.663  0.00  0.00    +0.000 C 
BRANCH  17  18
ATOM     18  C   UNL     1      44.990   3.807   9.558  0.00  0.00    +0.000 A 
ATOM     19  C   UNL     1      45.686   4.575   8.613  0.00  0.00    +0.000 A 
ATOM     20  C   UNL     1      46.429   3.962   7.605  0.00  0.00    +0.000 A 
ATOM     21  C   UNL     1      46.502   2.566   7.528  0.00  0.00    +0.000 A 
ATOM     22  C   UNL     1      45.827   1.800   8.489  0.00  0.00    +0.000 A 
ATOM     23  C   UNL     1      45.084   2.413   9.499  0.00  0.00    +0.000 A 
BRANCH  21  24
ATOM     24  C   UNL     1      47.266   1.899   6.416  0.00  0.00    +0.000 C 
BRANCH  24  25
ATOM     25  N   UNL     1      48.604   2.458   6.267  0.00  0.00    +0.000 NA
ATOM     26  H   UNL     1      49.286   1.745   6.522  0.00  0.00    +0.000 HD
ATOM     27  H   UNL     1      48.720   3.221   6.930  0.00  0.00    +0.000 HD
ENDBRANCH  24  25
ENDBRANCH  21  24
ENDBRANCH  17  18
ENDBRANCH  16  17
ENDBRANCH   3  16
TORSDOF 7
ENDMDL
MODEL 2
REMARK VINA RESULT:    -7.669      2.280      3.477
REMARK INTER + INTRA:         -11.385
REMARK INTER:                 -10.443
REMARK INTRA:                  -0.942
REMARK UNBOUND:                -0.802
REMARK  Name = 
REMARK  10 active torsions:
REMARK  status: ('A' for Active; 'I' for Inactive)
REMARK    1  A    between atoms: C_1  and  C_2
REMARK    2  A    between atoms: C_2  and  C_3
REMARK    3  A    between atoms: C_2  and  C_4
REMARK    4  A    between atoms: C_2  and  C_5
REMARK    5  A    between atoms: C_7  and  O_8
REMARK    6  A    between atoms: O_8  and  C_9
REMARK    7  A    between atoms: C_9  and  C_10
REMARK    8  A    between atoms: C_13  and  C_14
REMARK    9  A    between atoms: C_14  and  N_15
REMARK   10  A    between atoms: C_19  and  C_20
REMARK                            x       y       z     vdW  Elec       q    Type
REMARK                         _______ _______ _______ _____ _____    ______ ____
ROOT
ATOM      1  C   UNL     1      46.627   7.164  12.641  0.00  0.00    +0.000 A 
ATOM      2  C   UNL     1      46.166   5.852  12.438  0.00  0.00    +0.000 A 
ATOM      3  C   UNL     1      44.977   5.571  11.759  0.00  0.00    +0.000 A 
ATOM      4  C   UNL     1      44.216   6.622  11.253  0.00  0.00    +0.000 A 
ATOM      5  C   UNL     1      44.645   7.941  11.429  0.00  0.00    +0.000 A 
ATOM      6  C   UNL     1      45.842   8.206  12.120  0.00  0.00    +0.000 A 
ENDROOT
BRANCH   5   7
ATOM      7  C   UNL     1      43.838   9.092  10.942  0.00  0.00    +0.000 C 
ATOM      8  N   UNL     1      42.489   8.910  10.808  0.00  0.00    +0.000 N 
ATOM      9  O   UNL     1      44.357  10.161  10.648  0.00  0.00    +0.000 OA
ATOM     10  H   UNL     1      42.047   8.002  10.836  0.00  0.00    +0.000 HD
ATOM     11  H   UNL     1      41.964   9.680  10.414  0.00  0.00    +0.000 HD
ENDBRANCH   5   7
BRANCH   1  13
ATOM     12  C   UNL     1      49.137   7.401  12.475  0.00  0.00    +0.000 C 
ATOM     13  C   UNL     1      47.925   7.381  13.436  0.00  0.00    +0.000 C 
ATOM     14  C   UNL     1      48.099   6.220  14.440  0.00  0.00    +0.000 C 
ATOM     15  C   UNL     1      47.956   8.697  14.238  0.00  0.00    +0.000 C 
ENDBRANCH   1  13
BRANCH   3  16
ATOM     16  O   UNL     1      44.470   4.313  11.550  0.00  0.00    +0.000 OA
BRANCH  16  17
ATOM     17  C   UNL     1      43.900   4.091  10.255  0.00  0.00    +0.000 C 
BRANCH  17  18
ATOM     18  C   UNL     1      44.911   3.536   9.285  0.00  0.00    +0.000 A 
ATOM     19  C   UNL     1      45.113   2.149   9.229  0.00  0.00    +0.000 A 
ATOM     20  C   UNL     1      46.006   1.596   8.311  0.00  0.00    +0.000 A 
ATOM     21  C   UNL     1      46.708   2.418   7.422  0.00  0.00    +0.000 A 
ATOM     22  C   UNL     1      46.486   3.803   7.463  0.00  0.00    +0.000 A 
ATOM     23  C   UNL     1      45.591   4.356   8.380  0.00  0.00    +0.000 A 
BRANCH  21  24
ATOM     24  C   UNL     1      47.705   1.831   6.461  0.00  0.00    +0.000 C 
BRANCH  24  25
ATOM     25  N   UNL     1      48.036   2.762   5.389  0.00  0.00    +0.000 NA
ATOM     26  H   UNL     1      48.699   2.312   4.758  0.00  0.00    +0.000 HD
ATOM     27  H   UNL     1      48.514   3.568   5.785  0.00  0.00    +0.000 HD
ENDBRANCH  24  25
ENDBRANCH  21  24
ENDBRANCH  17  18
ENDBRANCH  16  17
ENDBRANCH   3  16
TORSDOF 7
ENDMDL
MODEL 3
REMARK VINA RESULT:    -7.017      2.697      3.665
REMARK INTER + INTRA:         -10.485
REMARK INTER:                  -9.710
REMARK INTRA:                  -0.775
REMARK UNBOUND:                -0.802
REMARK  Name = 
REMARK  10 active torsions:
REMARK  status: ('A' for Active; 'I' for Inactive)
REMARK    1  A    between atoms: C_1  and  C_2
REMARK    2  A    between atoms: C_2  and  C_3
REMARK    3  A    between atoms: C_2  and  C_4
REMARK    4  A    between atoms: C_2  and  C_5
REMARK    5  A    between atoms: C_7  and  O_8
REMARK    6  A    between atoms: O_8  and  C_9
REMARK    7  A    between atoms: C_9  and  C_10
REMARK    8  A    between atoms: C_13  and  C_14
REMARK    9  A    between atoms: C_14  and  N_15
REMARK   10  A    between atoms: C_19  and  C_20
REMARK                            x       y       z     vdW  Elec       q    Type
REMARK                         _______ _______ _______ _____ _____    ______ ____
ROOT
ATOM      1  C   UNL     1      44.441   8.829  11.404  0.00  0.00    +0.000 A 
ATOM      2  C   UNL     1      44.025   7.514  11.132  0.00  0.00    +0.000 A 
ATOM      3  C   UNL     1      44.686   6.396  11.650  0.00  0.00    +0.000 A 
ATOM      4  C   UNL     1      45.795   6.580  12.473  0.00  0.00    +0.000 A 
ATOM      5  C   UNL     1      46.234   7.873  12.771  0.00  0.00    +0.000 A 
ATOM      6  C   UNL     1      45.560   8.987  12.237  0.00  0.00    +0.000 A 
ENDROOT
BRANCH   5   7
ATOM      7  C   UNL     1      47.440   8.110  13.609  0.00  0.00    +0.000 C 
ATOM      8  N   UNL     1      47.298   8.894  14.720  0.00  0.00    +0.000 N 
ATOM      9  O   UNL     1      48.531   7.641  13.310  0.00  0.00    +0.000 OA
ATOM     10  H   UNL     1      46.484   9.466  14.895  0.00  0.00    +0.000 HD
ATOM     11  H   UNL     1      48.141   9.099  15.242  0.00  0.00    +0.000 HD
ENDBRANCH   5   7
BRANCH   1  13
ATOM     12  C   UNL     1      43.836  11.273  11.618  0.00  0.00    +0.000 C 
ATOM     13  C   UNL     1      43.678   9.997  10.758  0.00  0.00    +0.000 C 
ATOM     14  C   UNL     1      42.179   9.632  10.672  0.00  0.00    +0.000 C 
ATOM     15  C   UNL     1      44.153  10.345   9.333  0.00  0.00    +0.000 C 
ENDBRANCH   1  13
BRANCH   3  16
ATOM     16  O   UNL     1      44.337   5.093  11.403  0.00  0.00    +0.000 OA
BRANCH  16  17
ATOM     17  C   UNL     1      43.819   4.837  10.092  0.00  0.00    +0.000 C 
BRANCH  17  18
ATOM     18  C   UNL     1      44.725   3.930   9.299  0.00  0.00    +0.000 A 
ATOM     19  C   UNL     1      44.685   2.548   9.537  0.00  0.00    +0.000 A 
ATOM     20  C   UNL     1      45.475   1.675   8.790  0.00  0.00    +0.000 A 
ATOM     21  C   UNL     1      46.313   2.164   7.780  0.00  0.00    +0.000 A 
ATOM     22  C   UNL     1      46.332   3.544   7.527  0.00  0.00    +0.000 A 
ATOM     23  C   UNL     1      45.541   4.418   8.274  0.00  0.00    +0.000 A 
BRANCH  21  24
ATOM     24  C   UNL     1      47.200   1.231   7.001  0.00  0.00    +0.000 C 
BRANCH  24  25
ATOM     25  N   UNL     1      48.415   1.893   6.545  0.00  0.00    +0.000 NA
ATOM     26  H   UNL     1      48.678   2.601   7.230  0.00  0.00    +0.000 HD
ATOM     27  H   UNL     1      48.218   2.388   5.678  0.00  0.00    +0.000 HD
ENDBRANCH  24  25
ENDBRANCH  21  24
ENDBRANCH  17  18
ENDBRANCH  16  17
ENDBRANCH   3  16
TORSDOF 7
ENDMDL
MODEL 4
REMARK VINA RESULT:    -6.807      3.466      7.634
REMARK INTER + INTRA:         -10.195
REMARK INTER:                  -9.466
REMARK INTRA:                  -0.729
REMARK UNBOUND:                -0.802
REMARK  Name = 
REMARK  10 active torsions:
REMARK  status: ('A' for Active; 'I' for Inactive)
REMARK    1  A    between atoms: C_1  and  C_2
REMARK    2  A    between atoms: C_2  and  C_3
REMARK    3  A    between atoms: C_2  and  C_4
REMARK    4  A    between atoms: C_2  and  C_5
REMARK    5  A    between atoms: C_7  and  O_8
REMARK    6  A    between atoms: O_8  and  C_9
REMARK    7  A    between atoms: C_9  and  C_10
REMARK    8  A    between atoms: C_13  and  C_14
REMARK    9  A    between atoms: C_14  and  N_15
REMARK   10  A    between atoms: C_19  and  C_20
REMARK                            x       y       z     vdW  Elec       q    Type
REMARK                         _______ _______ _______ _____ _____    ______ ____
ROOT
ATOM      1  C   UNL     1      45.077   4.855  12.252  0.00  0.00    +0.000 A 
ATOM      2  C   UNL     1      45.691   3.892  13.073  0.00  0.00    +0.000 A 
ATOM      3  C   UNL     1      46.776   4.195  13.900  0.00  0.00    +0.000 A 
ATOM      4  C   UNL     1      47.272   5.496  13.927  0.00  0.00    +0.000 A 
ATOM      5  C   UNL     1      46.683   6.483  13.130  0.00  0.00    +0.000 A 
ATOM      6  C   UNL     1      45.594   6.160  12.299  0.00  0.00    +0.000 A 
ENDROOT
BRANCH   5   7
ATOM      7  C   UNL     1      47.211   7.873  13.098  0.00  0.00    +0.000 C 
ATOM      8  N   UNL     1      46.533   8.827  13.804  0.00  0.00    +0.000 N 
ATOM      9  O   UNL     1      48.205   8.166  12.447  0.00  0.00    +0.000 OA
ATOM     10  H   UNL     1      45.606   8.684  14.181  0.00  0.00    +0.000 HD
ATOM     11  H   UNL     1      46.866   9.779  13.718  0.00  0.00    +0.000 HD
ENDBRANCH   5   7
BRANCH   1  13
ATOM     12  C   UNL     1      42.740   5.421  11.476  0.00  0.00    +0.000 C 
ATOM     13  C   UNL     1      43.915   4.424  11.343  0.00  0.00    +0.000 C 
ATOM     14  C   UNL     1      43.434   3.020  11.775  0.00  0.00    +0.000 C 
ATOM     15  C   UNL     1      44.283   4.348   9.848  0.00  0.00    +0.000 C 
ENDBRANCH   1  13
BRANCH   3  16
ATOM     16  O   UNL     1      47.425   3.293  14.704  0.00  0.00    +0.000 OA
BRANCH  16  17
ATOM     17  C   UNL     1      47.434   3.613  16.100  0.00  0.00    +0.000 C 
BRANCH  17  18
ATOM     18  C   UNL     1      48.795   3.405  16.714  0.00  0.00    +0.000 A 
ATOM     19  C   UNL     1      49.388   2.136  16.644  0.00  0.00    +0.000 A 
ATOM     20  C   UNL     1      50.665   1.917  17.160  0.00  0.00    +0.000 A 
ATOM     21  C   UNL     1      51.381   2.968  17.747  0.00  0.00    +0.000 A 
ATOM     22  C   UNL     1      50.796   4.242  17.793  0.00  0.00    +0.000 A 
ATOM     23  C   UNL     1      49.519   4.461  17.276  0.00  0.00    +0.000 A 
BRANCH  21  24
ATOM     24  C   UNL     1      52.741   2.727  18.345  0.00  0.00    +0.000 C 
BRANCH  24  25
ATOM     25  N   UNL     1      52.995   1.308  18.559  0.00  0.00    +0.000 NA
ATOM     26  H   UNL     1      53.854   1.208  19.099  0.00  0.00    +0.000 HD
ATOM     27  H   UNL     1      53.164   0.862  17.660  0.00  0.00    +0.000 HD
ENDBRANCH  24  25
ENDBRANCH  21  24
ENDBRANCH  17  18
ENDBRANCH  16  17
ENDBRANCH   3  16
TORSDOF 7
ENDMDL
MODEL 5
REMARK VINA RESULT:    -6.508      3.362      7.041
REMARK INTER + INTRA:          -9.783
REMARK INTER:                  -9.006
REMARK INTRA:                  -0.777
REMARK UNBOUND:                -0.802
REMARK  Name = 
REMARK  10 active torsions:
REMARK  status: ('A' for Active; 'I' for Inactive)
REMARK    1  A    between atoms: C_1  and  C_2
REMARK    2  A    between atoms: C_2  and  C_3
REMARK    3  A    between atoms: C_2  and  C_4
REMARK    4  A    between atoms: C_2  and  C_5
REMARK    5  A    between atoms: C_7  and  O_8
REMARK    6  A    between atoms: O_8  and  C_9
REMARK    7  A    between atoms: C_9  and  C_10
REMARK    8  A    between atoms: C_13  and  C_14
REMARK    9  A    between atoms: C_14  and  N_15
REMARK   10  A    between atoms: C_19  and  C_20
REMARK                            x       y       z     vdW  Elec       q    Type
REMARK                         _______ _______ _______ _____ _____    ______ ____
ROOT
ATOM      1  C   UNL     1      46.703   6.545  12.658  0.00  0.00    +0.000 A 
ATOM      2  C   UNL     1      47.168   5.675  13.660  0.00  0.00    +0.000 A 
ATOM      3  C   UNL     1      46.732   4.351  13.765  0.00  0.00    +0.000 A 
ATOM      4  C   UNL     1      45.810   3.861  12.844  0.00  0.00    +0.000 A 
ATOM      5  C   UNL     1      45.330   4.694  11.828  0.00  0.00    +0.000 A 
ATOM      6  C   UNL     1      45.774   6.026  11.741  0.00  0.00    +0.000 A 
ENDROOT
BRANCH   5   7
ATOM      7  C   UNL     1      44.311   4.221  10.853  0.00  0.00    +0.000 C 
ATOM      8  N   UNL     1      43.495   5.158  10.282  0.00  0.00    +0.000 N 
ATOM      9  O   UNL     1      44.184   3.034  10.583  0.00  0.00    +0.000 OA
ATOM     10  H   UNL     1      43.419   6.106  10.620  0.00  0.00    +0.000 HD
ATOM     11  H   UNL     1      42.765   4.813   9.672  0.00  0.00    +0.000 HD
ENDBRANCH   5   7
BRANCH   1  13
ATOM     12  C   UNL     1      47.618   8.429  14.070  0.00  0.00    +0.000 C 
ATOM     13  C   UNL     1      47.205   7.998  12.643  0.00  0.00    +0.000 C 
ATOM     14  C   UNL     1      46.065   8.918  12.151  0.00  0.00    +0.000 C 
ATOM     15  C   UNL     1      48.420   8.232  11.724  0.00  0.00    +0.000 C 
ENDBRANCH   1  13
BRANCH   3  16
ATOM     16  O   UNL     1      47.136   3.466  14.733  0.00  0.00    +0.000 OA
BRANCH  16  17
ATOM     17  C   UNL     1      47.183   3.994  16.063  0.00  0.00    +0.000 C 
BRANCH  17  18
ATOM     18  C   UNL     1      48.542   3.818  16.689  0.00  0.00    +0.000 A 
ATOM     19  C   UNL     1      49.055   2.522  16.853  0.00  0.00    +0.000 A 
ATOM     20  C   UNL     1      50.329   2.323  17.385  0.00  0.00    +0.000 A 
ATOM     21  C   UNL     1      51.122   3.417  17.754  0.00  0.00    +0.000 A 
ATOM     22  C   UNL     1      50.617   4.712  17.565  0.00  0.00    +0.000 A 
ATOM     23  C   UNL     1      49.343   4.912  17.031  0.00  0.00    +0.000 A 
BRANCH  21  24
ATOM     24  C   UNL     1      52.479   3.207  18.369  0.00  0.00    +0.000 C 
BRANCH  24  25
ATOM     25  N   UNL     1      52.789   1.792  18.525  0.00  0.00    +0.000 NA
ATOM     26  H   UNL     1      52.914   1.380  17.601  0.00  0.00    +0.000 HD
ATOM     27  H   UNL     1      51.992   1.322  18.947  0.00  0.00    +0.000 HD
ENDBRANCH  24  25
ENDBRANCH  21  24
ENDBRANCH  17  18
ENDBRANCH  16  17
ENDBRANCH   3  16
TORSDOF 7
ENDMDL
MODEL 6
REMARK VINA RESULT:    -6.470      1.823      2.455
REMARK INTER + INTRA:          -9.731
REMARK INTER:                  -8.920
REMARK INTRA:                  -0.811
REMARK UNBOUND:                -0.802
REMARK  Name = 
REMARK  10 active torsions:
REMARK  status: ('A' for Active; 'I' for Inactive)
REMARK    1  A    between atoms: C_1  and  C_2
REMARK    2  A    between atoms: C_2  and  C_3
REMARK    3  A    between atoms: C_2  and  C_4
REMARK    4  A    between atoms: C_2  and  C_5
REMARK    5  A    between atoms: C_7  and  O_8
REMARK    6  A    between atoms: O_8  and  C_9
REMARK    7  A    between atoms: C_9  and  C_10
REMARK    8  A    between atoms: C_13  and  C_14
REMARK    9  A    between atoms: C_14  and  N_15
REMARK   10  A    between atoms: C_19  and  C_20
REMARK                            x       y       z     vdW  Elec       q    Type
REMARK                         _______ _______ _______ _____ _____    ______ ____
ROOT
ATOM      1  C   UNL     1      48.147   6.654  14.084  0.00  0.00    +0.000 A 
ATOM      2  C   UNL     1      47.134   5.875  13.496  0.00  0.00    +0.000 A 
ATOM      3  C   UNL     1      46.583   4.758  14.130  0.00  0.00    +0.000 A 
ATOM      4  C   UNL     1      47.040   4.397  15.395  0.00  0.00    +0.000 A 
ATOM      5  C   UNL     1      48.041   5.152  16.016  0.00  0.00    +0.000 A 
ATOM      6  C   UNL     1      48.589   6.270  15.360  0.00  0.00    +0.000 A 
ENDROOT
BRANCH   5   7
ATOM      7  C   UNL     1      48.587   4.773  17.346  0.00  0.00    +0.000 C 
ATOM      8  N   UNL     1      49.393   3.670  17.412  0.00  0.00    +0.000 N 
ATOM      9  O   UNL     1      48.312   5.406  18.357  0.00  0.00    +0.000 OA
ATOM     10  H   UNL     1      49.481   3.003  16.659  0.00  0.00    +0.000 HD
ATOM     11  H   UNL     1      49.702   3.387  18.333  0.00  0.00    +0.000 HD
ENDBRANCH   5   7
BRANCH   1  13
ATOM     12  C   UNL     1      50.041   8.320  13.948  0.00  0.00    +0.000 C 
ATOM     13  C   UNL     1      48.723   7.841  13.295  0.00  0.00    +0.000 C 
ATOM     14  C   UNL     1      47.702   9.001  13.316  0.00  0.00    +0.000 C 
ATOM     15  C   UNL     1      49.034   7.522  11.819  0.00  0.00    +0.000 C 
ENDBRANCH   1  13
BRANCH   3  16
ATOM     16  O   UNL     1      45.610   3.953  13.596  0.00  0.00    +0.000 OA
BRANCH  16  17
ATOM     17  C   UNL     1      44.675   4.612  12.734  0.00  0.00    +0.000 C 
BRANCH  17  18
ATOM     18  C   UNL     1      44.901   4.257  11.287  0.00  0.00    +0.000 A 
ATOM     19  C   UNL     1      45.388   5.240  10.412  0.00  0.00    +0.000 A 
ATOM     20  C   UNL     1      45.653   4.935   9.077  0.00  0.00    +0.000 A 
ATOM     21  C   UNL     1      45.448   3.638   8.592  0.00  0.00    +0.000 A 
ATOM     22  C   UNL     1      44.986   2.651   9.475  0.00  0.00    +0.000 A 
ATOM     23  C   UNL     1      44.722   2.955  10.811  0.00  0.00    +0.000 A 
BRANCH  21  24
ATOM     24  C   UNL     1      45.691   3.315   7.142  0.00  0.00    +0.000 C 
BRANCH  24  25
ATOM     25  N   UNL     1      46.803   4.082   6.595  0.00  0.00    +0.000 NA
ATOM     26  H   UNL     1      47.658   3.808   7.079  0.00  0.00    +0.000 HD
ATOM     27  H   UNL     1      46.657   5.068   6.798  0.00  0.00    +0.000 HD
ENDBRANCH  24  25
ENDBRANCH  21  24
ENDBRANCH  17  18
ENDBRANCH  16  17
ENDBRANCH   3  16
TORSDOF 7
ENDMDL
MODEL 7
REMARK VINA RESULT:    -5.980      2.692      6.247
REMARK INTER + INTRA:          -9.055
REMARK INTER:                  -8.374
REMARK INTRA:                  -0.680
REMARK UNBOUND:                -0.802
REMARK  Name = 
REMARK  10 active torsions:
REMARK  status: ('A' for Active; 'I' for Inactive)
REMARK    1  A    between atoms: C_1  and  C_2
REMARK    2  A    between atoms: C_2  and  C_3
REMARK    3  A    between atoms: C_2  and  C_4
REMARK    4  A    between atoms: C_2  and  C_5
REMARK    5  A    between atoms: C_7  and  O_8
REMARK    6  A    between atoms: O_8  and  C_9
REMARK    7  A    between atoms: C_9  and  C_10
REMARK    8  A    between atoms: C_13  and  C_14
REMARK    9  A    between atoms: C_14  and  N_15
REMARK   10  A    between atoms: C_19  and  C_20
REMARK                            x       y       z     vdW  Elec       q    Type
REMARK                         _______ _______ _______ _____ _____    ______ ____
ROOT
ATOM      1  C   UNL     1      45.062   4.848  11.914  0.00  0.00    +0.000 A 
ATOM      2  C   UNL     1      45.696   6.016  11.456  0.00  0.00    +0.000 A 
ATOM      3  C   UNL     1      46.810   6.564  12.098  0.00  0.00    +0.000 A 
ATOM      4  C   UNL     1      47.325   5.935  13.229  0.00  0.00    +0.000 A 
ATOM      5  C   UNL     1      46.725   4.767  13.710  0.00  0.00    +0.000 A 
ATOM      6  C   UNL     1      45.600   4.232  13.056  0.00  0.00    +0.000 A 
ENDROOT
BRANCH   5   7
ATOM      7  C   UNL     1      47.217   4.092  14.941  0.00  0.00    +0.000 C 
ATOM      8  N   UNL     1      47.170   4.794  16.113  0.00  0.00    +0.000 N 
ATOM      9  O   UNL     1      47.672   2.955  14.911  0.00  0.00    +0.000 OA
ATOM     10  H   UNL     1      47.003   5.789  16.157  0.00  0.00    +0.000 HD
ATOM     11  H   UNL     1      47.570   4.345  16.928  0.00  0.00    +0.000 HD
ENDBRANCH   5   7
BRANCH   1  13
ATOM     12  C   UNL     1      44.109   4.236   9.655  0.00  0.00    +0.000 C 
ATOM     13  C   UNL     1      43.816   4.339  11.170  0.00  0.00    +0.000 C 
ATOM     14  C   UNL     1      42.657   5.337  11.391  0.00  0.00    +0.000 C 
ATOM     15  C   UNL     1      43.330   2.952  11.637  0.00  0.00    +0.000 C 
ENDBRANCH   1  13
BRANCH   3  16
ATOM     16  O   UNL     1      47.456   7.710  11.708  0.00  0.00    +0.000 OA
BRANCH  16  17
ATOM     17  C   UNL     1      48.566   8.096  12.525  0.00  0.00    +0.000 C 
BRANCH  17  18
ATOM     18  C   UNL     1      49.708   8.633  11.702  0.00  0.00    +0.000 A 
ATOM     19  C   UNL     1      49.760  10.007  11.422  0.00  0.00    +0.000 A 
ATOM     20  C   UNL     1      50.826  10.547  10.704  0.00  0.00    +0.000 A 
ATOM     21  C   UNL     1      51.870   9.726  10.260  0.00  0.00    +0.000 A 
ATOM     22  C   UNL     1      51.829   8.358  10.564  0.00  0.00    +0.000 A 
ATOM     23  C   UNL     1      50.763   7.817  11.284  0.00  0.00    +0.000 A 
BRANCH  21  24
ATOM     24  C   UNL     1      53.000  10.296   9.446  0.00  0.00    +0.000 C 
BRANCH  24  25
ATOM     25  N   UNL     1      53.559   9.310   8.530  0.00  0.00    +0.000 NA
ATOM     26  H   UNL     1      52.890   8.549   8.422  0.00  0.00    +0.000 HD
ATOM     27  H   UNL     1      54.394   8.906   8.947  0.00  0.00    +0.000 HD
ENDBRANCH  24  25
ENDBRANCH  21  24
ENDBRANCH  17  18
ENDBRANCH  16  17
ENDBRANCH   3  16
TORSDOF 7
ENDMDL
MODEL 8
REMARK VINA RESULT:    -5.923      4.309      6.275
REMARK INTER + INTRA:          -8.975
REMARK INTER:                  -8.069
REMARK INTRA:                  -0.907
REMARK UNBOUND:                -0.802
REMARK  Name = 
REMARK  10 active torsions:
REMARK  status: ('A' for Active; 'I' for Inactive)
REMARK    1  A    between atoms: C_1  and  C_2
REMARK    2  A    between atoms: C_2  and  C_3
REMARK    3  A    between atoms: C_2  and  C_4
REMARK    4  A    between atoms: C_2  and  C_5
REMARK    5  A    between atoms: C_7  and  O_8
REMARK    6  A    between atoms: O_8  and  C_9
REMARK    7  A    between atoms: C_9  and  C_10
REMARK    8  A    between atoms: C_13  and  C_14
REMARK    9  A    between atoms: C_14  and  N_15
REMARK   10  A    between atoms: C_19  and  C_20
REMARK                            x       y       z     vdW  Elec       q    Type
REMARK                         _______ _______ _______ _____ _____    ______ ____
ROOT
ATOM      1  C   UNL     1      48.877   5.311  18.099  0.00  0.00    +0.000 A 
ATOM      2  C   UNL     1      47.820   5.053  17.209  0.00  0.00    +0.000 A 
ATOM      3  C   UNL     1      47.767   3.897  16.423  0.00  0.00    +0.000 A 
ATOM      4  C   UNL     1      48.789   2.957  16.523  0.00  0.00    +0.000 A 
ATOM      5  C   UNL     1      49.853   3.175  17.403  0.00  0.00    +0.000 A 
ATOM      6  C   UNL     1      49.894   4.347  18.182  0.00  0.00    +0.000 A 
ENDROOT
BRANCH   5   7
ATOM      7  C   UNL     1      50.986   2.217  17.506  0.00  0.00    +0.000 C 
ATOM      8  N   UNL     1      52.073   2.594  18.245  0.00  0.00    +0.000 N 
ATOM      9  O   UNL     1      50.964   1.135  16.933  0.00  0.00    +0.000 OA
ATOM     10  H   UNL     1      52.228   3.541  18.559  0.00  0.00    +0.000 HD
ATOM     11  H   UNL     1      52.861   1.959  18.250  0.00  0.00    +0.000 HD
ENDBRANCH   5   7
BRANCH   1  13
ATOM     12  C   UNL     1      47.674   6.654  19.870  0.00  0.00    +0.000 C 
ATOM     13  C   UNL     1      48.873   6.627  18.893  0.00  0.00    +0.000 C 
ATOM     14  C   UNL     1      48.743   7.809  17.906  0.00  0.00    +0.000 C 
ATOM     15  C   UNL     1      50.148   6.859  19.728  0.00  0.00    +0.000 C 
ENDBRANCH   1  13
BRANCH   3  16
ATOM     16  O   UNL     1      46.772   3.604  15.525  0.00  0.00    +0.000 OA
BRANCH  16  17
ATOM     17  C   UNL     1      47.145   3.704  14.146  0.00  0.00    +0.000 C 
BRANCH  17  18
ATOM     18  C   UNL     1      46.631   4.973  13.517  0.00  0.00    +0.000 A 
ATOM     19  C   UNL     1      45.252   5.119  13.304  0.00  0.00    +0.000 A 
ATOM     20  C   UNL     1      44.736   6.298  12.767  0.00  0.00    +0.000 A 
ATOM     21  C   UNL     1      45.587   7.362  12.443  0.00  0.00    +0.000 A 
ATOM     22  C   UNL     1      46.962   7.223  12.682  0.00  0.00    +0.000 A 
ATOM     23  C   UNL     1      47.479   6.044  13.220  0.00  0.00    +0.000 A 
BRANCH  21  24
ATOM     24  C   UNL     1      45.041   8.619  11.823  0.00  0.00    +0.000 C 
BRANCH  24  25
ATOM     25  N   UNL     1      43.821   8.364  11.067  0.00  0.00    +0.000 NA
ATOM     26  H   UNL     1      43.589   7.375  11.144  0.00  0.00    +0.000 HD
ATOM     27  H   UNL     1      43.997   8.546  10.082  0.00  0.00    +0.000 HD
ENDBRANCH  24  25
ENDBRANCH  21  24
ENDBRANCH  17  18
ENDBRANCH  16  17
ENDBRANCH   3  16
TORSDOF 7
ENDMDL
MODEL 9
REMARK VINA RESULT:    -5.914      3.424      5.089
REMARK INTER + INTRA:          -8.963
REMARK INTER:                  -8.194
REMARK INTRA:                  -0.769
REMARK UNBOUND:                -0.802
REMARK  Name = 
REMARK  10 active torsions:
REMARK  status: ('A' for Active; 'I' for Inactive)
REMARK    1  A    between atoms: C_1  and  C_2
REMARK    2  A    between atoms: C_2  and  C_3
REMARK    3  A    between atoms: C_2  and  C_4
REMARK    4  A    between atoms: C_2  and  C_5
REMARK    5  A    between atoms: C_7  and  O_8
REMARK    6  A    between atoms: O_8  and  C_9
REMARK    7  A    between atoms: C_9  and  C_10
REMARK    8  A    between atoms: C_13  and  C_14
REMARK    9  A    between atoms: C_14  and  N_15
REMARK   10  A    between atoms: C_19  and  C_20
REMARK                            x       y       z     vdW  Elec       q    Type
REMARK                         _______ _______ _______ _____ _____    ______ ____
ROOT
ATOM      1  C   UNL     1      48.604   7.006  17.883  0.00  0.00    +0.000 A 
ATOM      2  C   UNL     1      48.713   7.122  16.486  0.00  0.00    +0.000 A 
ATOM      3  C   UNL     1      48.457   6.053  15.623  0.00  0.00    +0.000 A 
ATOM      4  C   UNL     1      48.073   4.824  16.154  0.00  0.00    +0.000 A 
ATOM      5  C   UNL     1      47.947   4.672  17.539  0.00  0.00    +0.000 A 
ATOM      6  C   UNL     1      48.214   5.757  18.394  0.00  0.00    +0.000 A 
ENDROOT
BRANCH   5   7
ATOM      7  C   UNL     1      47.583   3.364  18.146  0.00  0.00    +0.000 C 
ATOM      8  N   UNL     1      48.268   2.969  19.262  0.00  0.00    +0.000 N 
ATOM      9  O   UNL     1      46.718   2.649  17.658  0.00  0.00    +0.000 OA
ATOM     10  H   UNL     1      49.117   3.415  19.578  0.00  0.00    +0.000 HD
ATOM     11  H   UNL     1      48.054   2.048  19.624  0.00  0.00    +0.000 HD
ENDBRANCH   5   7
BRANCH   1  13
ATOM     12  C   UNL     1      49.275   7.765  20.198  0.00  0.00    +0.000 C 
ATOM     13  C   UNL     1      48.945   8.224  18.758  0.00  0.00    +0.000 C 
ATOM     14  C   UNL     1      47.723   9.169  18.800  0.00  0.00    +0.000 C 
ATOM     15  C   UNL     1      50.148   9.043  18.252  0.00  0.00    +0.000 C 
ENDBRANCH   1  13
BRANCH   3  16
ATOM     16  O   UNL     1      48.566   6.104  14.257  0.00  0.00    +0.000 OA
BRANCH  16  17
ATOM     17  C   UNL     1      47.673   7.013  13.605  0.00  0.00    +0.000 C 
BRANCH  17  18
ATOM     18  C   UNL     1      46.659   6.291  12.755  0.00  0.00    +0.000 A 
ATOM     19  C   UNL     1      46.601   6.566  11.381  0.00  0.00    +0.000 A 
ATOM     20  C   UNL     1      45.709   5.883  10.555  0.00  0.00    +0.000 A 
ATOM     21  C   UNL     1      44.862   4.901  11.085  0.00  0.00    +0.000 A 
ATOM     22  C   UNL     1      44.940   4.610  12.455  0.00  0.00    +0.000 A 
ATOM     23  C   UNL     1      45.835   5.292  13.281  0.00  0.00    +0.000 A 
BRANCH  21  24
ATOM     24  C   UNL     1      43.867   4.193  10.207  0.00  0.00    +0.000 C 
BRANCH  24  25
ATOM     25  N   UNL     1      44.183   4.349   8.793  0.00  0.00    +0.000 NA
ATOM     26  H   UNL     1      43.973   3.476   8.313  0.00  0.00    +0.000 HD
ATOM     27  H   UNL     1      45.184   4.502   8.693  0.00  0.00    +0.000 HD
ENDBRANCH  24  25
ENDBRANCH  21  24
ENDBRANCH  17  18
ENDBRANCH  16  17
ENDBRANCH   3  16
TORSDOF 7
ENDMDL
