MODEL 1
REMARK VINA RESULT:    -8.489      0.000      0.000
REMARK INTER + INTRA:         -11.685
REMARK INTER:                 -10.970
REMARK INTRA:                  -0.716
REMARK UNBOUND:                -0.716
REMARK  Name = 
REMARK  8 active torsions:
REMARK  status: ('A' for Active; 'I' for Inactive)
REMARK    1  A    between atoms: C_1  and  C_2
REMARK    2  A    between atoms: C_5  and  C_6
REMARK    3  A    between atoms: C_10  and  C_11
REMARK    4  A    between atoms: C_11  and  C_12
REMARK    5  A    between atoms: C_11  and  C_13
REMARK    6  A    between atoms: C_11  and  C_14
REMARK    7  A    between atoms: C_14  and  N_15
REMARK    8  A    between atoms: C_19  and  C_20
REMARK                            x       y       z     vdW  Elec       q    Type
REMARK                         _______ _______ _______ _____ _____    ______ ____
ROOT
ATOM      1  C   UNL     1      43.733   4.307  12.291  0.00  0.00    +0.000 C 
ATOM      2  C   UNL     1      43.584   2.781  12.470  0.00  0.00    +0.000 C 
ATOM      3  C   UNL     1      42.754   5.014  13.254  0.00  0.00    +0.000 C 
ENDROOT
BRANCH   1   8
ATOM      4  C   UNL     1      46.798   6.351  12.731  0.00  0.00    +0.000 A 
ATOM      5  C   UNL     1      47.592   5.451  13.413  0.00  0.00    +0.000 A 
ATOM      6  N   UNL     1      47.167   4.207  13.696  0.00  0.00    +0.000 NA
ATOM      7  N   UNL     1      45.929   3.848  13.296  0.00  0.00    +0.000 NA
ATOM      8  C   UNL     1      45.143   4.752  12.660  0.00  0.00    +0.000 A 
ATOM      9  N   UNL     1      45.539   6.013  12.385  0.00  0.00    +0.000 NA
BRANCH   4  14
ATOM     10  C   UNL     1      48.834  11.516  11.228  0.00  0.00    +0.000 C 
ATOM     11  C   UNL     1      48.241  10.194  11.605  0.00  0.00    +0.000 A 
ATOM     12  C   UNL     1      46.921  10.082  12.026  0.00  0.00    +0.000 A 
ATOM     13  C   UNL     1      46.427   8.823  12.384  0.00  0.00    +0.000 A 
ATOM     14  C   UNL     1      47.254   7.691  12.333  0.00  0.00    +0.000 A 
ATOM     15  C   UNL     1      48.548   7.918  11.862  0.00  0.00    +0.000 A 
ATOM     16  N   UNL     1      49.058   9.123  11.511  0.00  0.00    +0.000 NA
ENDBRANCH   4  14
ENDBRANCH   1   8
BRANCH   1  17
ATOM     17  C   UNL     1      43.352   4.707  10.841  0.00  0.00    +0.000 C 
BRANCH  17  18
ATOM     18  N   UNL     1      44.470   5.317  10.116  0.00  0.00    +0.000 N 
ATOM     19  C   UNL     1      45.100   4.503   9.175  0.00  0.00    +0.000 A 
ATOM     20  C   UNL     1      46.130   5.033   8.396  0.00  0.00    +0.000 A 
ATOM     21  N   UNL     1      46.817   4.322   7.470  0.00  0.00    +0.000 NA
ATOM     22  C   UNL     1      46.425   3.027   7.316  0.00  0.00    +0.000 A 
ATOM     23  C   UNL     1      45.381   2.508   8.069  0.00  0.00    +0.000 A 
ATOM     24  N   UNL     1      44.706   3.225   8.996  0.00  0.00    +0.000 NA
ATOM     25  H   UNL     1      45.163   5.760  10.707  0.00  0.00    +0.000 HD
BRANCH  22  26
ATOM     26  C   UNL     1      47.130   2.125   6.334  0.00  0.00    +0.000 C 
ATOM     27  F   UNL     1      46.794   2.341   5.032  0.00  0.00    +0.000 F 
ATOM     28  F   UNL     1      48.488   2.255   6.392  0.00  0.00    +0.000 F 
ATOM     29  F   UNL     1      46.883   0.802   6.567  0.00  0.00    +0.000 F 
ENDBRANCH  22  26
ENDBRANCH  17  18
ENDBRANCH   1  17
TORSDOF 5
ENDMDL
MODEL 2
REMARK VINA RESULT:    -8.311      1.808      2.290
REMARK INTER + INTRA:         -11.455
REMARK INTER:                 -10.387
REMARK INTRA:                  -1.069
REMARK UNBOUND:                -0.716
REMARK  Name = 
REMARK  8 active torsions:
REMARK  status: ('A' for Active; 'I' for Inactive)
REMARK    1  A    between atoms: C_1  and  C_2
REMARK    2  A    between atoms: C_5  and  C_6
REMARK    3  A    between atoms: C_10  and  C_11
REMARK    4  A    between atoms: C_11  and  C_12
REMARK    5  A    between atoms: C_11  and  C_13
REMARK    6  A    between atoms: C_11  and  C_14
REMARK    7  A    between atoms: C_14  and  N_15
REMARK    8  A    between atoms: C_19  and  C_20
REMARK                            x       y       z     vdW  Elec       q    Type
REMARK                         _______ _______ _______ _____ _____    ______ ____
ROOT
ATOM      1  C   UNL     1      43.829   5.702  11.984  0.00  0.00    +0.000 C 
ATOM      2  C   UNL     1      42.635   5.244  12.849  0.00  0.00    +0.000 C 
ATOM      3  C   UNL     1      43.859   7.247  11.964  0.00  0.00    +0.000 C 
ENDROOT
BRANCH   1   8
ATOM      4  C   UNL     1      47.312   5.610  13.262  0.00  0.00    +0.000 A 
ATOM      5  C   UNL     1      47.360   4.315  13.737  0.00  0.00    +0.000 A 
ATOM      6  N   UNL     1      46.312   3.480  13.620  0.00  0.00    +0.000 NA
ATOM      7  N   UNL     1      45.192   3.939  13.023  0.00  0.00    +0.000 NA
ATOM      8  C   UNL     1      45.142   5.224  12.593  0.00  0.00    +0.000 A 
ATOM      9  N   UNL     1      46.173   6.088  12.719  0.00  0.00    +0.000 NA
BRANCH   4  14
ATOM     10  C   UNL     1      51.734   9.266  13.651  0.00  0.00    +0.000 C 
ATOM     11  C   UNL     1      50.603   8.299  13.486  0.00  0.00    +0.000 A 
ATOM     12  C   UNL     1      50.100   7.974  12.231  0.00  0.00    +0.000 A 
ATOM     13  C   UNL     1      49.029   7.080  12.141  0.00  0.00    +0.000 A 
ATOM     14  C   UNL     1      48.460   6.527  13.298  0.00  0.00    +0.000 A 
ATOM     15  C   UNL     1      49.069   6.898  14.497  0.00  0.00    +0.000 A 
ATOM     16  N   UNL     1      50.103   7.764  14.620  0.00  0.00    +0.000 NA
ENDBRANCH   4  14
ENDBRANCH   1   8
BRANCH   1  17
ATOM     17  C   UNL     1      43.644   5.207  10.526  0.00  0.00    +0.000 C 
BRANCH  17  18
ATOM     18  N   UNL     1      43.899   3.770  10.385  0.00  0.00    +0.000 N 
ATOM     19  C   UNL     1      44.802   3.409   9.387  0.00  0.00    +0.000 A 
ATOM     20  C   UNL     1      45.148   2.065   9.234  0.00  0.00    +0.000 A 
ATOM     21  N   UNL     1      45.999   1.609   8.285  0.00  0.00    +0.000 NA
ATOM     22  C   UNL     1      46.536   2.561   7.471  0.00  0.00    +0.000 A 
ATOM     23  C   UNL     1      46.215   3.900   7.641  0.00  0.00    +0.000 A 
ATOM     24  N   UNL     1      45.359   4.345   8.589  0.00  0.00    +0.000 NA
ATOM     25  H   UNL     1      43.064   3.199  10.319  0.00  0.00    +0.000 HD
BRANCH  22  26
ATOM     26  C   UNL     1      47.478   2.175   6.358  0.00  0.00    +0.000 C 
ATOM     27  F   UNL     1      48.760   2.600   6.534  0.00  0.00    +0.000 F 
ATOM     28  F   UNL     1      47.556   0.823   6.190  0.00  0.00    +0.000 F 
ATOM     29  F   UNL     1      47.086   2.669   5.146  0.00  0.00    +0.000 F 
ENDBRANCH  22  26
ENDBRANCH  17  18
ENDBRANCH   1  17
TORSDOF 5
ENDMDL
MODEL 3
REMARK VINA RESULT:    -8.259      2.121      3.821
REMARK INTER + INTRA:         -11.388
REMARK INTER:                 -10.469
REMARK INTRA:                  -0.919
REMARK UNBOUND:                -0.716
REMARK  Name = 
REMARK  8 active torsions:
REMARK  status: ('A' for Active; 'I' for Inactive)
REMARK    1  A    between atoms: C_1  and  C_2
REMARK    2  A    between atoms: C_5  and  C_6
REMARK    3  A    between atoms: C_10  and  C_11
REMARK    4  A    between atoms: C_11  and  C_12
REMARK    5  A    between atoms: C_11  and  C_13
REMARK    6  A    between atoms: C_11  and  C_14
REMARK    7  A    between atoms: C_14  and  N_15
REMARK    8  A    between atoms: C_19  and  C_20
REMARK                            x       y       z     vdW  Elec       q    Type
REMARK                         _______ _______ _______ _____ _____    ______ ____
ROOT
ATOM      1  C   UNL     1      43.686   4.800  12.074  0.00  0.00    +0.000 C 
ATOM      2  C   UNL     1      43.411   3.530  12.907  0.00  0.00    +0.000 C 
ATOM      3  C   UNL     1      42.657   5.882  12.472  0.00  0.00    +0.000 C 
ENDROOT
BRANCH   1   8
ATOM      4  C   UNL     1      46.931   5.487  13.736  0.00  0.00    +0.000 A 
ATOM      5  C   UNL     1      47.519   6.304  12.790  0.00  0.00    +0.000 A 
ATOM      6  N   UNL     1      46.876   6.652  11.661  0.00  0.00    +0.000 NA
ATOM      7  N   UNL     1      45.627   6.180  11.465  0.00  0.00    +0.000 NA
ATOM      8  C   UNL     1      45.073   5.350  12.383  0.00  0.00    +0.000 A 
ATOM      9  N   UNL     1      45.706   4.968  13.512  0.00  0.00    +0.000 NA
BRANCH   4  14
ATOM     10  C   UNL     1      49.639   4.292  18.668  0.00  0.00    +0.000 C 
ATOM     11  C   UNL     1      48.879   4.569  17.407  0.00  0.00    +0.000 A 
ATOM     12  C   UNL     1      47.846   3.742  16.983  0.00  0.00    +0.000 A 
ATOM     13  C   UNL     1      47.186   4.039  15.787  0.00  0.00    +0.000 A 
ATOM     14  C   UNL     1      47.567   5.149  15.018  0.00  0.00    +0.000 A 
ATOM     15  C   UNL     1      48.592   5.926  15.559  0.00  0.00    +0.000 A 
ATOM     16  N   UNL     1      49.254   5.664  16.711  0.00  0.00    +0.000 NA
ENDBRANCH   4  14
ENDBRANCH   1   8
BRANCH   1  17
ATOM     17  C   UNL     1      43.499   4.492  10.565  0.00  0.00    +0.000 C 
BRANCH  17  18
ATOM     18  N   UNL     1      43.865   3.114  10.225  0.00  0.00    +0.000 N 
ATOM     19  C   UNL     1      44.830   2.970   9.230  0.00  0.00    +0.000 A 
ATOM     20  C   UNL     1      45.280   1.691   8.897  0.00  0.00    +0.000 A 
ATOM     21  N   UNL     1      46.199   1.442   7.934  0.00  0.00    +0.000 NA
ATOM     22  C   UNL     1      46.695   2.541   7.299  0.00  0.00    +0.000 A 
ATOM     23  C   UNL     1      46.270   3.814   7.650  0.00  0.00    +0.000 A 
ATOM     24  N   UNL     1      45.347   4.051   8.609  0.00  0.00    +0.000 NA
ATOM     25  H   UNL     1      43.078   2.505  10.034  0.00  0.00    +0.000 HD
BRANCH  22  26
ATOM     26  C   UNL     1      47.706   2.392   6.189  0.00  0.00    +0.000 C 
ATOM     27  F   UNL     1      47.385   3.059   5.045  0.00  0.00    +0.000 F 
ATOM     28  F   UNL     1      48.942   2.846   6.548  0.00  0.00    +0.000 F 
ATOM     29  F   UNL     1      47.891   1.090   5.821  0.00  0.00    +0.000 F 
ENDBRANCH  22  26
ENDBRANCH  17  18
ENDBRANCH   1  17
TORSDOF 5
ENDMDL
MODEL 4
REMARK VINA RESULT:    -8.136      1.837      2.817
REMARK INTER + INTRA:         -11.230
REMARK INTER:                 -10.238
REMARK INTRA:                  -0.992
REMARK UNBOUND:                -0.716
REMARK  Name = 
REMARK  8 active torsions:
REMARK  status: ('A' for Active; 'I' for Inactive)
REMARK    1  A    between atoms: C_1  and  C_2
REMARK    2  A    between atoms: C_5  and  C_6
REMARK    3  A    between atoms: C_10  and  C_11
REMARK    4  A    between atoms: C_11  and  C_12
REMARK    5  A    between atoms: C_11  and  C_13
REMARK    6  A    between atoms: C_11  and  C_14
REMARK    7  A    between atoms: C_14  and  N_15
REMARK    8  A    between atoms: C_19  and  C_20
REMARK                            x       y       z     vdW  Elec       q    Type
REMARK                         _______ _______ _______ _____ _____    ______ ____
ROOT
ATOM      1  C   UNL     1      44.214   4.680  12.335  0.00  0.00    +0.000 C 
ATOM      2  C   UNL     1      45.104   3.459  12.655  0.00  0.00    +0.000 C 
ATOM      3  C   UNL     1      43.031   4.701  13.328  0.00  0.00    +0.000 C 
ENDROOT
BRANCH   1   8
ATOM      4  C   UNL     1      46.857   7.115  13.259  0.00  0.00    +0.000 A 
ATOM      5  C   UNL     1      46.313   8.271  12.734  0.00  0.00    +0.000 A 
ATOM      6  N   UNL     1      45.113   8.275  12.127  0.00  0.00    +0.000 NA
ATOM      7  N   UNL     1      44.438   7.110  12.037  0.00  0.00    +0.000 NA
ATOM      8  C   UNL     1      44.997   5.974  12.523  0.00  0.00    +0.000 A 
ATOM      9  N   UNL     1      46.210   5.940  13.116  0.00  0.00    +0.000 NA
BRANCH   4  14
ATOM     10  C   UNL     1      51.688   6.911  16.372  0.00  0.00    +0.000 C 
ATOM     11  C   UNL     1      50.468   6.985  15.508  0.00  0.00    +0.000 A 
ATOM     12  C   UNL     1      50.411   7.820  14.398  0.00  0.00    +0.000 A 
ATOM     13  C   UNL     1      49.237   7.862  13.639  0.00  0.00    +0.000 A 
ATOM     14  C   UNL     1      48.127   7.083  13.999  0.00  0.00    +0.000 A 
ATOM     15  C   UNL     1      48.311   6.258  15.109  0.00  0.00    +0.000 A 
ATOM     16  N   UNL     1      49.432   6.197  15.867  0.00  0.00    +0.000 NA
ENDBRANCH   4  14
ENDBRANCH   1   8
BRANCH   1  17
ATOM     17  C   UNL     1      43.636   4.547  10.902  0.00  0.00    +0.000 C 
BRANCH  17  18
ATOM     18  N   UNL     1      44.498   5.165   9.890  0.00  0.00    +0.000 N 
ATOM     19  C   UNL     1      45.189   4.283   9.061  0.00  0.00    +0.000 A 
ATOM     20  C   UNL     1      45.979   4.795   8.029  0.00  0.00    +0.000 A 
ATOM     21  N   UNL     1      46.704   4.025   7.183  0.00  0.00    +0.000 NA
ATOM     22  C   UNL     1      46.605   2.681   7.382  0.00  0.00    +0.000 A 
ATOM     23  C   UNL     1      45.798   2.171   8.388  0.00  0.00    +0.000 A 
ATOM     24  N   UNL     1      45.082   2.949   9.232  0.00  0.00    +0.000 NA
ATOM     25  H   UNL     1      45.131   5.869  10.250  0.00  0.00    +0.000 HD
BRANCH  22  26
ATOM     26  C   UNL     1      47.386   1.720   6.520  0.00  0.00    +0.000 C 
ATOM     27  F   UNL     1      47.456   2.073   5.207  0.00  0.00    +0.000 F 
ATOM     28  F   UNL     1      48.679   1.583   6.936  0.00  0.00    +0.000 F 
ATOM     29  F   UNL     1      46.865   0.458   6.539  0.00  0.00    +0.000 F 
ENDBRANCH  22  26
ENDBRANCH  17  18
ENDBRANCH   1  17
TORSDOF 5
ENDMDL
MODEL 5
REMARK VINA RESULT:    -7.887      4.457      7.898
REMARK INTER + INTRA:         -10.907
REMARK INTER:                  -9.758
REMARK INTRA:                  -1.149
REMARK UNBOUND:                -0.716
REMARK  Name = 
REMARK  8 active torsions:
REMARK  status: ('A' for Active; 'I' for Inactive)
REMARK    1  A    between atoms: C_1  and  C_2
REMARK    2  A    between atoms: C_5  and  C_6
REMARK    3  A    between atoms: C_10  and  C_11
REMARK    4  A    between atoms: C_11  and  C_12
REMARK    5  A    between atoms: C_11  and  C_13
REMARK    6  A    between atoms: C_11  and  C_14
REMARK    7  A    between atoms: C_14  and  N_15
REMARK    8  A    between atoms: C_19  and  C_20
REMARK                            x       y       z     vdW  Elec       q    Type
REMARK                         _______ _______ _______ _____ _____    ______ ____
ROOT
ATOM      1  C   UNL     1      46.490   7.696  12.184  0.00  0.00    +0.000 C 
ATOM      2  C   UNL     1      47.718   7.908  11.273  0.00  0.00    +0.000 C 
ATOM      3  C   UNL     1      45.770   9.051  12.363  0.00  0.00    +0.000 C 
ENDROOT
BRANCH   1   8
ATOM      4  C   UNL     1      45.045   4.928  10.179  0.00  0.00    +0.000 A 
ATOM      5  C   UNL     1      43.711   5.061  10.511  0.00  0.00    +0.000 A 
ATOM      6  N   UNL     1      43.281   6.036  11.332  0.00  0.00    +0.000 NA
ATOM      7  N   UNL     1      44.192   6.895  11.837  0.00  0.00    +0.000 NA
ATOM      8  C   UNL     1      45.504   6.733  11.533  0.00  0.00    +0.000 A 
ATOM      9  N   UNL     1      45.962   5.749  10.730  0.00  0.00    +0.000 NA
BRANCH   4  14
ATOM     10  C   UNL     1      47.016   0.842   6.644  0.00  0.00    +0.000 C 
ATOM     11  C   UNL     1      46.500   1.949   7.511  0.00  0.00    +0.000 A 
ATOM     12  C   UNL     1      46.673   3.284   7.167  0.00  0.00    +0.000 A 
ATOM     13  C   UNL     1      46.186   4.275   8.026  0.00  0.00    +0.000 A 
ATOM     14  C   UNL     1      45.544   3.928   9.223  0.00  0.00    +0.000 A 
ATOM     15  C   UNL     1      45.396   2.559   9.447  0.00  0.00    +0.000 A 
ATOM     16  N   UNL     1      45.858   1.575   8.639  0.00  0.00    +0.000 NA
ENDBRANCH   4  14
ENDBRANCH   1   8
BRANCH   1  17
ATOM     17  C   UNL     1      46.950   7.208  13.583  0.00  0.00    +0.000 C 
BRANCH  17  18
ATOM     18  N   UNL     1      46.607   5.804  13.828  0.00  0.00    +0.000 N 
ATOM     19  C   UNL     1      47.275   5.192  14.887  0.00  0.00    +0.000 A 
ATOM     20  C   UNL     1      46.955   3.876  15.226  0.00  0.00    +0.000 A 
ATOM     21  N   UNL     1      47.557   3.187  16.224  0.00  0.00    +0.000 NA
ATOM     22  C   UNL     1      48.509   3.871  16.918  0.00  0.00    +0.000 A 
ATOM     23  C   UNL     1      48.807   5.188  16.602  0.00  0.00    +0.000 A 
ATOM     24  N   UNL     1      48.203   5.866  15.598  0.00  0.00    +0.000 NA
ATOM     25  H   UNL     1      46.648   5.212  13.006  0.00  0.00    +0.000 HD
BRANCH  22  26
ATOM     26  C   UNL     1      49.269   3.203  18.037  0.00  0.00    +0.000 C 
ATOM     27  F   UNL     1      49.970   2.098  17.657  0.00  0.00    +0.000 F 
ATOM     28  F   UNL     1      50.181   4.038  18.616  0.00  0.00    +0.000 F 
ATOM     29  F   UNL     1      48.454   2.795  19.054  0.00  0.00    +0.000 F 
ENDBRANCH  22  26
ENDBRANCH  17  18
ENDBRANCH   1  17
TORSDOF 5
ENDMDL
MODEL 6
REMARK VINA RESULT:    -7.589      4.882      7.452
REMARK INTER + INTRA:         -10.523
REMARK INTER:                  -9.391
REMARK INTRA:                  -1.132
REMARK UNBOUND:                -0.716
REMARK  Name = 
REMARK  8 active torsions:
REMARK  status: ('A' for Active; 'I' for Inactive)
REMARK    1  A    between atoms: C_1  and  C_2
REMARK    2  A    between atoms: C_5  and  C_6
REMARK    3  A    between atoms: C_10  and  C_11
REMARK    4  A    between atoms: C_11  and  C_12
REMARK    5  A    between atoms: C_11  and  C_13
REMARK    6  A    between atoms: C_11  and  C_14
REMARK    7  A    between atoms: C_14  and  N_15
REMARK    8  A    between atoms: C_19  and  C_20
REMARK                            x       y       z     vdW  Elec       q    Type
REMARK                         _______ _______ _______ _____ _____    ______ ____
ROOT
ATOM      1  C   UNL     1      49.107   7.356  15.584  0.00  0.00    +0.000 C 
ATOM      2  C   UNL     1      48.651   8.731  16.117  0.00  0.00    +0.000 C 
ATOM      3  C   UNL     1      50.546   7.493  15.039  0.00  0.00    +0.000 C 
ENDROOT
BRANCH   1   8
ATOM      4  C   UNL     1      50.076   4.498  17.743  0.00  0.00    +0.000 A 
ATOM      5  C   UNL     1      49.151   4.639  18.758  0.00  0.00    +0.000 A 
ATOM      6  N   UNL     1      48.218   5.607  18.734  0.00  0.00    +0.000 NA
ATOM      7  N   UNL     1      48.203   6.454  17.684  0.00  0.00    +0.000 NA
ATOM      8  C   UNL     1      49.138   6.330  16.711  0.00  0.00    +0.000 A 
ATOM      9  N   UNL     1      50.099   5.381  16.723  0.00  0.00    +0.000 NA
BRANCH   4  14
ATOM     10  C   UNL     1      53.722   0.053  17.576  0.00  0.00    +0.000 C 
ATOM     11  C   UNL     1      52.827   1.253  17.611  0.00  0.00    +0.000 A 
ATOM     12  C   UNL     1      53.300   2.504  17.990  0.00  0.00    +0.000 A 
ATOM     13  C   UNL     1      52.411   3.583  18.022  0.00  0.00    +0.000 A 
ATOM     14  C   UNL     1      51.060   3.406  17.691  0.00  0.00    +0.000 A 
ATOM     15  C   UNL     1      50.707   2.116  17.294  0.00  0.00    +0.000 A 
ATOM     16  N   UNL     1      51.540   1.049  17.255  0.00  0.00    +0.000 NA
ENDBRANCH   4  14
ENDBRANCH   1   8
BRANCH   1  17
ATOM     17  C   UNL     1      48.191   6.914  14.413  0.00  0.00    +0.000 C 
BRANCH  17  18
ATOM     18  N   UNL     1      47.657   5.562  14.599  0.00  0.00    +0.000 N 
ATOM     19  C   UNL     1      46.786   5.112  13.608  0.00  0.00    +0.000 A 
ATOM     20  C   UNL     1      46.288   3.809  13.678  0.00  0.00    +0.000 A 
ATOM     21  N   UNL     1      45.423   3.283  12.778  0.00  0.00    +0.000 NA
ATOM     22  C   UNL     1      45.067   4.109  11.755  0.00  0.00    +0.000 A 
ATOM     23  C   UNL     1      45.584   5.393  11.668  0.00  0.00    +0.000 A 
ATOM     24  N   UNL     1      46.443   5.911  12.576  0.00  0.00    +0.000 NA
ATOM     25  H   UNL     1      47.258   5.389  15.514  0.00  0.00    +0.000 HD
BRANCH  22  26
ATOM     26  C   UNL     1      44.089   3.647  10.704  0.00  0.00    +0.000 C 
ATOM     27  F   UNL     1      43.559   4.651   9.950  0.00  0.00    +0.000 F 
ATOM     28  F   UNL     1      44.653   2.776   9.817  0.00  0.00    +0.000 F 
ATOM     29  F   UNL     1      43.023   2.981  11.238  0.00  0.00    +0.000 F 
ENDBRANCH  22  26
ENDBRANCH  17  18
ENDBRANCH   1  17
TORSDOF 5
ENDMDL
MODEL 7
REMARK VINA RESULT:    -7.538      4.760      7.861
REMARK INTER + INTRA:         -10.457
REMARK INTER:                  -9.400
REMARK INTRA:                  -1.056
REMARK UNBOUND:                -0.716
REMARK  Name = 
REMARK  8 active torsions:
REMARK  status: ('A' for Active; 'I' for Inactive)
REMARK    1  A    between atoms: C_1  and  C_2
REMARK    2  A    between atoms: C_5  and  C_6
REMARK    3  A    between atoms: C_10  and  C_11
REMARK    4  A    between atoms: C_11  and  C_12
REMARK    5  A    between atoms: C_11  and  C_13
REMARK    6  A    between atoms: C_11  and  C_14
REMARK    7  A    between atoms: C_14  and  N_15
REMARK    8  A    between atoms: C_19  and  C_20
REMARK                            x       y       z     vdW  Elec       q    Type
REMARK                         _______ _______ _______ _____ _____    ______ ____
ROOT
ATOM      1  C   UNL     1      44.547   5.779  12.293  0.00  0.00    +0.000 C 
ATOM      2  C   UNL     1      44.553   6.977  11.319  0.00  0.00    +0.000 C 
ATOM      3  C   UNL     1      43.350   5.935  13.257  0.00  0.00    +0.000 C 
ENDROOT
BRANCH   1   8
ATOM      4  C   UNL     1      44.918   3.039   9.819  0.00  0.00    +0.000 A 
ATOM      5  C   UNL     1      43.998   2.138  10.318  0.00  0.00    +0.000 A 
ATOM      6  N   UNL     1      43.253   2.416  11.402  0.00  0.00    +0.000 NA
ATOM      7  N   UNL     1      43.424   3.611  12.006  0.00  0.00    +0.000 NA
ATOM      8  C   UNL     1      44.356   4.473  11.530  0.00  0.00    +0.000 A 
ATOM      9  N   UNL     1      45.132   4.208  10.458  0.00  0.00    +0.000 NA
BRANCH   4  14
ATOM     10  C   UNL     1      47.825   2.340   4.906  0.00  0.00    +0.000 C 
ATOM     11  C   UNL     1      47.102   2.467   6.211  0.00  0.00    +0.000 A 
ATOM     12  C   UNL     1      46.919   1.376   7.052  0.00  0.00    +0.000 A 
ATOM     13  C   UNL     1      46.217   1.551   8.249  0.00  0.00    +0.000 A 
ATOM     14  C   UNL     1      45.693   2.806   8.592  0.00  0.00    +0.000 A 
ATOM     15  C   UNL     1      45.968   3.834   7.689  0.00  0.00    +0.000 A 
ATOM     16  N   UNL     1      46.640   3.698   6.521  0.00  0.00    +0.000 NA
ENDBRANCH   4  14
ENDBRANCH   1   8
BRANCH   1  17
ATOM     17  C   UNL     1      45.847   5.780  13.138  0.00  0.00    +0.000 C 
BRANCH  17  18
ATOM     18  N   UNL     1      46.191   4.447  13.640  0.00  0.00    +0.000 N 
ATOM     19  C   UNL     1      47.078   4.413  14.715  0.00  0.00    +0.000 A 
ATOM     20  C   UNL     1      47.402   3.184  15.292  0.00  0.00    +0.000 A 
ATOM     21  N   UNL     1      48.267   3.041  16.326  0.00  0.00    +0.000 NA
ATOM     22  C   UNL     1      48.806   4.197  16.803  0.00  0.00    +0.000 A 
ATOM     23  C   UNL     1      48.462   5.421  16.248  0.00  0.00    +0.000 A 
ATOM     24  N   UNL     1      47.602   5.552  15.213  0.00  0.00    +0.000 NA
ATOM     25  H   UNL     1      46.488   3.792  12.926  0.00  0.00    +0.000 HD
BRANCH  22  26
ATOM     26  C   UNL     1      49.803   4.167  17.935  0.00  0.00    +0.000 C 
ATOM     27  F   UNL     1      50.672   3.119  17.890  0.00  0.00    +0.000 F 
ATOM     28  F   UNL     1      50.579   5.289  17.973  0.00  0.00    +0.000 F 
ATOM     29  F   UNL     1      49.202   4.100  19.159  0.00  0.00    +0.000 F 
ENDBRANCH  22  26
ENDBRANCH  17  18
ENDBRANCH   1  17
TORSDOF 5
ENDMDL
MODEL 8
REMARK VINA RESULT:    -6.945      4.696      8.131
REMARK INTER + INTRA:          -9.691
REMARK INTER:                  -8.899
REMARK INTRA:                  -0.792
REMARK UNBOUND:                -0.716
REMARK  Name = 
REMARK  8 active torsions:
REMARK  status: ('A' for Active; 'I' for Inactive)
REMARK    1  A    between atoms: C_1  and  C_2
REMARK    2  A    between atoms: C_5  and  C_6
REMARK    3  A    between atoms: C_10  and  C_11
REMARK    4  A    between atoms: C_11  and  C_12
REMARK    5  A    between atoms: C_11  and  C_13
REMARK    6  A    between atoms: C_11  and  C_14
REMARK    7  A    between atoms: C_14  and  N_15
REMARK    8  A    between atoms: C_19  and  C_20
REMARK                            x       y       z     vdW  Elec       q    Type
REMARK                         _______ _______ _______ _____ _____    ______ ____
ROOT
ATOM      1  C   UNL     1      48.899   8.728  12.563  0.00  0.00    +0.000 C 
ATOM      2  C   UNL     1      49.511   9.496  11.372  0.00  0.00    +0.000 C 
ATOM      3  C   UNL     1      48.914   9.649  13.803  0.00  0.00    +0.000 C 
ENDROOT
BRANCH   1   8
ATOM      4  C   UNL     1      45.849   6.902  11.497  0.00  0.00    +0.000 A 
ATOM      5  C   UNL     1      44.880   7.806  11.884  0.00  0.00    +0.000 A 
ATOM      6  N   UNL     1      45.198   8.987  12.443  0.00  0.00    +0.000 NA
ATOM      7  N   UNL     1      46.504   9.277  12.625  0.00  0.00    +0.000 NA
ATOM      8  C   UNL     1      47.446   8.368  12.275  0.00  0.00    +0.000 A 
ATOM      9  N   UNL     1      47.151   7.167  11.733  0.00  0.00    +0.000 NA
BRANCH   4  14
ATOM     10  C   UNL     1      44.712   1.828   9.041  0.00  0.00    +0.000 C 
ATOM     11  C   UNL     1      44.997   3.179   9.620  0.00  0.00    +0.000 A 
ATOM     12  C   UNL     1      45.438   4.232   8.827  0.00  0.00    +0.000 A 
ATOM     13  C   UNL     1      45.707   5.466   9.427  0.00  0.00    +0.000 A 
ATOM     14  C   UNL     1      45.547   5.638  10.810  0.00  0.00    +0.000 A 
ATOM     15  C   UNL     1      45.067   4.523  11.498  0.00  0.00    +0.000 A 
ATOM     16  N   UNL     1      44.800   3.314  10.949  0.00  0.00    +0.000 NA
ENDBRANCH   4  14
ENDBRANCH   1   8
BRANCH   1  17
ATOM     17  C   UNL     1      49.761   7.478  12.882  0.00  0.00    +0.000 C 
BRANCH  17  18
ATOM     18  N   UNL     1      50.287   7.495  14.250  0.00  0.00    +0.000 N 
ATOM     19  C   UNL     1      49.600   6.711  15.175  0.00  0.00    +0.000 A 
ATOM     20  C   UNL     1      50.080   6.622  16.483  0.00  0.00    +0.000 A 
ATOM     21  N   UNL     1      49.476   5.903  17.460  0.00  0.00    +0.000 NA
ATOM     22  C   UNL     1      48.351   5.233  17.085  0.00  0.00    +0.000 A 
ATOM     23  C   UNL     1      47.890   5.297  15.778  0.00  0.00    +0.000 A 
ATOM     24  N   UNL     1      48.497   6.023  14.811  0.00  0.00    +0.000 NA
ATOM     25  H   UNL     1      50.442   8.421  14.630  0.00  0.00    +0.000 HD
BRANCH  22  26
ATOM     26  C   UNL     1      47.574   4.419  18.090  0.00  0.00    +0.000 C 
ATOM     27  F   UNL     1      48.288   4.055  19.190  0.00  0.00    +0.000 F 
ATOM     28  F   UNL     1      46.480   5.085  18.563  0.00  0.00    +0.000 F 
ATOM     29  F   UNL     1      47.089   3.258  17.560  0.00  0.00    +0.000 F 
ENDBRANCH  22  26
ENDBRANCH  17  18
ENDBRANCH   1  17
TORSDOF 5
ENDMDL
MODEL 9
REMARK VINA RESULT:    -6.901      4.225      6.885
REMARK INTER + INTRA:          -9.633
REMARK INTER:                  -8.510
REMARK INTRA:                  -1.123
REMARK UNBOUND:                -0.716
REMARK  Name = 
REMARK  8 active torsions:
REMARK  status: ('A' for Active; 'I' for Inactive)
REMARK    1  A    between atoms: C_1  and  C_2
REMARK    2  A    between atoms: C_5  and  C_6
REMARK    3  A    between atoms: C_10  and  C_11
REMARK    4  A    between atoms: C_11  and  C_12
REMARK    5  A    between atoms: C_11  and  C_13
REMARK    6  A    between atoms: C_11  and  C_14
REMARK    7  A    between atoms: C_14  and  N_15
REMARK    8  A    between atoms: C_19  and  C_20
REMARK                            x       y       z     vdW  Elec       q    Type
REMARK                         _______ _______ _______ _____ _____    ______ ____
ROOT
ATOM      1  C   UNL     1      48.907   8.626  14.292  0.00  0.00    +0.000 C 
ATOM      2  C   UNL     1      48.743  10.155  14.423  0.00  0.00    +0.000 C 
ATOM      3  C   UNL     1      50.253   8.333  13.592  0.00  0.00    +0.000 C 
ENDROOT
BRANCH   1   8
ATOM      4  C   UNL     1      49.608   6.268  17.071  0.00  0.00    +0.000 A 
ATOM      5  C   UNL     1      49.047   6.964  18.124  0.00  0.00    +0.000 A 
ATOM      6  N   UNL     1      48.431   8.145  17.942  0.00  0.00    +0.000 NA
ATOM      7  N   UNL     1      48.370   8.648  16.691  0.00  0.00    +0.000 NA
ATOM      8  C   UNL     1      48.955   7.975  15.670  0.00  0.00    +0.000 A 
ATOM      9  N   UNL     1      49.599   6.799  15.831  0.00  0.00    +0.000 NA
BRANCH   4  14
ATOM     10  C   UNL     1      51.754   0.968  17.686  0.00  0.00    +0.000 C 
ATOM     11  C   UNL     1      51.259   2.371  17.513  0.00  0.00    +0.000 A 
ATOM     12  C   UNL     1      52.087   3.467  17.726  0.00  0.00    +0.000 A 
ATOM     13  C   UNL     1      51.563   4.754  17.569  0.00  0.00    +0.000 A 
ATOM     14  C   UNL     1      50.219   4.939  17.215  0.00  0.00    +0.000 A 
ATOM     15  C   UNL     1      49.493   3.768  16.993  0.00  0.00    +0.000 A 
ATOM     16  N   UNL     1      49.969   2.508  17.140  0.00  0.00    +0.000 NA
ENDBRANCH   4  14
ENDBRANCH   1   8
BRANCH   1  17
ATOM     17  C   UNL     1      47.771   8.047  13.409  0.00  0.00    +0.000 C 
BRANCH  17  18
ATOM     18  N   UNL     1      47.146   6.863  14.005  0.00  0.00    +0.000 N 
ATOM     19  C   UNL     1      46.445   6.039  13.126  0.00  0.00    +0.000 A 
ATOM     20  C   UNL     1      45.878   4.856  13.604  0.00  0.00    +0.000 A 
ATOM     21  N   UNL     1      45.163   3.999  12.838  0.00  0.00    +0.000 NA
ATOM     22  C   UNL     1      45.038   4.348  11.527  0.00  0.00    +0.000 A 
ATOM     23  C   UNL     1      45.626   5.508  11.044  0.00  0.00    +0.000 A 
ATOM     24  N   UNL     1      46.333   6.362  11.820  0.00  0.00    +0.000 NA
ATOM     25  H   UNL     1      46.581   7.052  14.825  0.00  0.00    +0.000 HD
BRANCH  22  26
ATOM     26  C   UNL     1      44.243   3.487  10.577  0.00  0.00    +0.000 C 
ATOM     27  F   UNL     1      43.144   2.906  11.133  0.00  0.00    +0.000 F 
ATOM     28  F   UNL     1      43.785   4.189   9.500  0.00  0.00    +0.000 F 
ATOM     29  F   UNL     1      44.981   2.464  10.056  0.00  0.00    +0.000 F 
ENDBRANCH  22  26
ENDBRANCH  17  18
ENDBRANCH   1  17
TORSDOF 5
ENDMDL
