MODEL 1
REMARK VINA RESULT:    -8.007      0.000      0.000
REMARK INTER + INTRA:         -12.364
REMARK INTER:                 -11.283
REMARK INTRA:                  -1.081
REMARK UNBOUND:                -1.081
REMARK  Name = 
REMARK  7 active torsions:
REMARK  status: ('A' for Active; 'I' for Inactive)
REMARK    1  A    between atoms: C_2  and  C_19
REMARK    2  A    between atoms: N_3  and  C_4
REMARK    3  A    between atoms: C_4  and  C_5
REMARK    4  A    between atoms: C_8  and  C_9
REMARK    5  A    between atoms: C_9  and  N_10
REMARK    6  A    between atoms: N_10  and  C_11
REMARK    7  A    between atoms: C_11  and  C_12
REMARK                            x       y       z     vdW  Elec       q    Type
REMARK                         _______ _______ _______ _____ _____    ______ ____
ROOT
ATOM      1  C   UNL     1      47.112   7.268  13.079  0.00  0.00    +0.000 C 
ENDROOT
BRANCH   1   2
ATOM      2  C   UNL     1      46.304   6.206  12.377  0.00  0.00    +0.000 A 
ATOM      3  C   UNL     1      46.013   6.334  11.013  0.00  0.00    +0.000 A 
ATOM      4  C   UNL     1      45.289   5.344  10.339  0.00  0.00    +0.000 A 
ATOM      5  C   UNL     1      44.842   4.199  11.010  0.00  0.00    +0.000 A 
ATOM      6  C   UNL     1      45.099   4.093  12.386  0.00  0.00    +0.000 A 
ATOM      7  C   UNL     1      45.815   5.088  13.065  0.00  0.00    +0.000 A 
BRANCH   5   8
ATOM      8  C   UNL     1      44.051   3.129  10.283  0.00  0.00    +0.000 C 
BRANCH   8   9
ATOM      9  N   UNL     1      44.492   2.956   8.892  0.00  0.00    +0.000 NA
ATOM     10  H   UNL     1      44.779   3.866   8.530  0.00  0.00    +0.000 HD
BRANCH   9  11
ATOM     11  C   UNL     1      45.605   2.005   8.796  0.00  0.00    +0.000 C 
BRANCH  11  12
ATOM     12  C   UNL     1      46.164   1.914   7.370  0.00  0.00    +0.000 C 
ATOM     13  C   UNL     1      46.418   3.276   6.737  0.00  0.00    +0.000 C 
ATOM     14  C   UNL     1      47.327   2.916   5.581  0.00  0.00    +0.000 C 
ATOM     15  N   UNL     1      48.249   1.926   6.146  0.00  0.00    +0.000 NA
ATOM     16  C   UNL     1      47.521   1.222   7.224  0.00  0.00    +0.000 C 
ATOM     17  H   UNL     1      49.039   2.419   6.565  0.00  0.00    +0.000 HD
ENDBRANCH  11  12
ENDBRANCH   9  11
ENDBRANCH   8   9
ENDBRANCH   5   8
ENDBRANCH   1   2
BRANCH   1  20
ATOM     18  O   UNL     1      49.732   6.967  14.095  0.00  0.00    +0.000 OA
ATOM     19  C   UNL     1      48.772   6.809  14.842  0.00  0.00    +0.000 C 
ATOM     20  N   UNL     1      47.472   6.879  14.414  0.00  0.00    +0.000 N 
ATOM     21  H   UNL     1      46.728   6.940  15.101  0.00  0.00    +0.000 HD
BRANCH  19  22
ATOM     22  C   UNL     1      48.948   6.471  16.257  0.00  0.00    +0.000 A 
ATOM     23  C   UNL     1      49.476   7.399  17.146  0.00  0.00    +0.000 A 
ATOM     24  S   UNL     1      49.616   6.802  18.741  0.00  0.00    +0.000 S 
ATOM     25  C   UNL     1      48.937   5.305  18.299  0.00  0.00    +0.000 A 
ATOM     26  N   UNL     1      48.749   4.311  19.219  0.00  0.00    +0.000 NA
ATOM     27  C   UNL     1      48.193   3.251  18.741  0.00  0.00    +0.000 A 
ATOM     28  N   UNL     1      47.810   3.079  17.437  0.00  0.00    +0.000 N 
ATOM     29  C   UNL     1      48.051   4.014  16.466  0.00  0.00    +0.000 A 
ATOM     30  O   UNL     1      47.838   3.759  15.285  0.00  0.00    +0.000 OA
ATOM     31  C   UNL     1      48.632   5.252  16.953  0.00  0.00    +0.000 A 
ATOM     32  H   UNL     1      47.422   2.202  17.116  0.00  0.00    +0.000 HD
ENDBRANCH  19  22
ENDBRANCH   1  20
TORSDOF 7
ENDMDL
MODEL 2
REMARK VINA RESULT:    -7.349      1.897      2.695
REMARK INTER + INTRA:         -11.437
REMARK INTER:                 -10.390
REMARK INTRA:                  -1.047
REMARK UNBOUND:                -1.081
REMARK  Name = 
REMARK  7 active torsions:
REMARK  status: ('A' for Active; 'I' for Inactive)
REMARK    1  A    between atoms: C_2  and  C_19
REMARK    2  A    between atoms: N_3  and  C_4
REMARK    3  A    between atoms: C_4  and  C_5
REMARK    4  A    between atoms: C_8  and  C_9
REMARK    5  A    between atoms: C_9  and  N_10
REMARK    6  A    between atoms: N_10  and  C_11
REMARK    7  A    between atoms: C_11  and  C_12
REMARK                            x       y       z     vdW  Elec       q    Type
REMARK                         _______ _______ _______ _____ _____    ______ ____
ROOT
ATOM      1  C   UNL     1      47.893   7.225  13.543  0.00  0.00    +0.000 C 
ENDROOT
BRANCH   1   2
ATOM      2  C   UNL     1      46.941   6.362  12.756  0.00  0.00    +0.000 A 
ATOM      3  C   UNL     1      46.294   5.285  13.376  0.00  0.00    +0.000 A 
ATOM      4  C   UNL     1      45.385   4.492  12.669  0.00  0.00    +0.000 A 
ATOM      5  C   UNL     1      45.095   4.756  11.325  0.00  0.00    +0.000 A 
ATOM      6  C   UNL     1      45.775   5.809  10.693  0.00  0.00    +0.000 A 
ATOM      7  C   UNL     1      46.694   6.599  11.397  0.00  0.00    +0.000 A 
BRANCH   5   8
ATOM      8  C   UNL     1      44.116   3.891  10.554  0.00  0.00    +0.000 C 
BRANCH   8   9
ATOM      9  N   UNL     1      44.571   3.621   9.183  0.00  0.00    +0.000 NA
ATOM     10  H   UNL     1      45.242   4.342   8.918  0.00  0.00    +0.000 HD
BRANCH   9  11
ATOM     11  C   UNL     1      45.190   2.296   9.074  0.00  0.00    +0.000 C 
BRANCH  11  12
ATOM     12  C   UNL     1      45.901   2.100   7.728  0.00  0.00    +0.000 C 
ATOM     13  C   UNL     1      46.727   3.308   7.305  0.00  0.00    +0.000 C 
ATOM     14  C   UNL     1      47.618   2.713   6.235  0.00  0.00    +0.000 C 
ATOM     15  N   UNL     1      48.018   1.414   6.784  0.00  0.00    +0.000 NA
ATOM     16  C   UNL     1      46.922   0.961   7.668  0.00  0.00    +0.000 C 
ATOM     17  H   UNL     1      48.854   1.545   7.355  0.00  0.00    +0.000 HD
ENDBRANCH  11  12
ENDBRANCH   9  11
ENDBRANCH   8   9
ENDBRANCH   5   8
ENDBRANCH   1   2
BRANCH   1  20
ATOM     18  O   UNL     1      50.119   6.696  15.202  0.00  0.00    +0.000 OA
ATOM     19  C   UNL     1      48.995   6.732  15.693  0.00  0.00    +0.000 C 
ATOM     20  N   UNL     1      47.860   6.924  14.948  0.00  0.00    +0.000 N 
ATOM     21  H   UNL     1      46.990   7.145  15.420  0.00  0.00    +0.000 HD
BRANCH  19  22
ATOM     22  C   UNL     1      48.774   6.514  17.124  0.00  0.00    +0.000 A 
ATOM     23  C   UNL     1      49.040   5.278  17.701  0.00  0.00    +0.000 A 
ATOM     24  S   UNL     1      48.696   5.226  19.374  0.00  0.00    +0.000 S 
ATOM     25  C   UNL     1      48.224   6.860  19.384  0.00  0.00    +0.000 A 
ATOM     26  N   UNL     1      47.817   7.476  20.536  0.00  0.00    +0.000 NA
ATOM     27  C   UNL     1      47.525   8.723  20.391  0.00  0.00    +0.000 A 
ATOM     28  N   UNL     1      47.591   9.418  19.212  0.00  0.00    +0.000 N 
ATOM     29  C   UNL     1      47.915   8.825  18.021  0.00  0.00    +0.000 A 
ATOM     30  O   UNL     1      47.809   9.442  16.966  0.00  0.00    +0.000 OA
ATOM     31  C   UNL     1      48.302   7.430  18.128  0.00  0.00    +0.000 A 
ATOM     32  H   UNL     1      47.301  10.385  19.157  0.00  0.00    +0.000 HD
ENDBRANCH  19  22
ENDBRANCH   1  20
TORSDOF 7
ENDMDL
MODEL 3
REMARK VINA RESULT:    -7.171      1.824      2.244
REMARK INTER + INTRA:         -11.186
REMARK INTER:                 -10.279
REMARK INTRA:                  -0.907
REMARK UNBOUND:                -1.081
REMARK  Name = 
REMARK  7 active torsions:
REMARK  status: ('A' for Active; 'I' for Inactive)
REMARK    1  A    between atoms: C_2  and  C_19
REMARK    2  A    between atoms: N_3  and  C_4
REMARK    3  A    between atoms: C_4  and  C_5
REMARK    4  A    between atoms: C_8  and  C_9
REMARK    5  A    between atoms: C_9  and  N_10
REMARK    6  A    between atoms: N_10  and  C_11
REMARK    7  A    between atoms: C_11  and  C_12
REMARK                            x       y       z     vdW  Elec       q    Type
REMARK                         _______ _______ _______ _____ _____    ______ ____
ROOT
ATOM      1  C   UNL     1      48.411   6.952  13.654  0.00  0.00    +0.000 C 
ENDROOT
BRANCH   1   2
ATOM      2  C   UNL     1      47.104   6.527  13.036  0.00  0.00    +0.000 A 
ATOM      3  C   UNL     1      46.547   7.274  11.990  0.00  0.00    +0.000 A 
ATOM      4  C   UNL     1      45.349   6.878  11.385  0.00  0.00    +0.000 A 
ATOM      5  C   UNL     1      44.680   5.723  11.806  0.00  0.00    +0.000 A 
ATOM      6  C   UNL     1      45.217   4.998  12.882  0.00  0.00    +0.000 A 
ATOM      7  C   UNL     1      46.411   5.399  13.495  0.00  0.00    +0.000 A 
BRANCH   5   8
ATOM      8  C   UNL     1      43.377   5.295  11.157  0.00  0.00    +0.000 C 
BRANCH   8   9
ATOM      9  N   UNL     1      43.579   4.749   9.807  0.00  0.00    +0.000 NA
ATOM     10  H   UNL     1      44.223   5.361   9.306  0.00  0.00    +0.000 HD
BRANCH   9  11
ATOM     11  C   UNL     1      44.117   3.385   9.855  0.00  0.00    +0.000 C 
BRANCH  11  12
ATOM     12  C   UNL     1      44.798   2.988   8.539  0.00  0.00    +0.000 C 
ATOM     13  C   UNL     1      45.793   4.027   8.039  0.00  0.00    +0.000 C 
ATOM     14  C   UNL     1      46.592   3.230   7.030  0.00  0.00    +0.000 C 
ATOM     15  N   UNL     1      46.795   1.931   7.680  0.00  0.00    +0.000 NA
ATOM     16  C   UNL     1      45.641   1.711   8.579  0.00  0.00    +0.000 C 
ATOM     17  H   UNL     1      47.639   1.983   8.253  0.00  0.00    +0.000 HD
ENDBRANCH  11  12
ENDBRANCH   9  11
ENDBRANCH   8   9
ENDBRANCH   5   8
ENDBRANCH   1   2
BRANCH   1  20
ATOM     18  O   UNL     1      49.792   5.942  15.903  0.00  0.00    +0.000 OA
ATOM     19  C   UNL     1      49.003   6.871  16.045  0.00  0.00    +0.000 C 
ATOM     20  N   UNL     1      48.251   7.378  15.017  0.00  0.00    +0.000 N 
ATOM     21  H   UNL     1      47.773   8.263  15.143  0.00  0.00    +0.000 HD
BRANCH  19  22
ATOM     22  C   UNL     1      48.759   7.479  17.356  0.00  0.00    +0.000 A 
ATOM     23  C   UNL     1      49.088   8.808  17.593  0.00  0.00    +0.000 A 
ATOM     24  S   UNL     1      48.742   9.315  19.187  0.00  0.00    +0.000 S 
ATOM     25  C   UNL     1      48.106   7.790  19.594  0.00  0.00    +0.000 A 
ATOM     26  N   UNL     1      47.602   7.538  20.840  0.00  0.00    +0.000 NA
ATOM     27  C   UNL     1      47.125   6.350  20.985  0.00  0.00    +0.000 A 
ATOM     28  N   UNL     1      47.103   5.384  20.014  0.00  0.00    +0.000 N 
ATOM     29  C   UNL     1      47.666   5.564  18.779  0.00  0.00    +0.000 A 
ATOM     30  O   UNL     1      47.768   4.625  17.995  0.00  0.00    +0.000 OA
ATOM     31  C   UNL     1      48.178   6.900  18.539  0.00  0.00    +0.000 A 
ATOM     32  H   UNL     1      46.757   4.454  20.208  0.00  0.00    +0.000 HD
ENDBRANCH  19  22
ENDBRANCH   1  20
TORSDOF 7
ENDMDL
MODEL 4
REMARK VINA RESULT:    -7.066      4.444      8.957
REMARK INTER + INTRA:         -11.039
REMARK INTER:                 -10.097
REMARK INTRA:                  -0.942
REMARK UNBOUND:                -1.081
REMARK  Name = 
REMARK  7 active torsions:
REMARK  status: ('A' for Active; 'I' for Inactive)
REMARK    1  A    between atoms: C_2  and  C_19
REMARK    2  A    between atoms: N_3  and  C_4
REMARK    3  A    between atoms: C_4  and  C_5
REMARK    4  A    between atoms: C_8  and  C_9
REMARK    5  A    between atoms: C_9  and  N_10
REMARK    6  A    between atoms: N_10  and  C_11
REMARK    7  A    between atoms: C_11  and  C_12
REMARK                            x       y       z     vdW  Elec       q    Type
REMARK                         _______ _______ _______ _____ _____    ______ ____
ROOT
ATOM      1  C   UNL     1      47.122   3.434  16.853  0.00  0.00    +0.000 C 
ENDROOT
BRANCH   1   2
ATOM      2  C   UNL     1      48.593   3.411  17.185  0.00  0.00    +0.000 A 
ATOM      3  C   UNL     1      49.339   2.243  16.986  0.00  0.00    +0.000 A 
ATOM      4  C   UNL     1      50.710   2.212  17.260  0.00  0.00    +0.000 A 
ATOM      5  C   UNL     1      51.372   3.350  17.737  0.00  0.00    +0.000 A 
ATOM      6  C   UNL     1      50.615   4.508  17.976  0.00  0.00    +0.000 A 
ATOM      7  C   UNL     1      49.240   4.537  17.711  0.00  0.00    +0.000 A 
BRANCH   5   8
ATOM      8  C   UNL     1      52.858   3.317  18.044  0.00  0.00    +0.000 C 
BRANCH   8   9
ATOM      9  N   UNL     1      53.249   2.105  18.777  0.00  0.00    +0.000 NA
ATOM     10  H   UNL     1      52.833   1.298  18.311  0.00  0.00    +0.000 HD
BRANCH   9  11
ATOM     11  C   UNL     1      54.707   1.956  18.830  0.00  0.00    +0.000 C 
BRANCH  11  12
ATOM     12  C   UNL     1      55.210   0.857  17.884  0.00  0.00    +0.000 C 
ATOM     13  C   UNL     1      54.120  -0.125  17.472  0.00  0.00    +0.000 C 
ATOM     14  C   UNL     1      54.747  -0.793  16.267  0.00  0.00    +0.000 C 
ATOM     15  N   UNL     1      55.382   0.308  15.536  0.00  0.00    +0.000 NA
ATOM     16  C   UNL     1      55.758   1.331  16.536  0.00  0.00    +0.000 C 
ATOM     17  H   UNL     1      54.693   0.720  14.905  0.00  0.00    +0.000 HD
ENDBRANCH  11  12
ENDBRANCH   9  11
ENDBRANCH   8   9
ENDBRANCH   5   8
ENDBRANCH   1   2
BRANCH   1  20
ATOM     18  O   UNL     1      47.263   3.087  14.052  0.00  0.00    +0.000 OA
ATOM     19  C   UNL     1      46.853   4.149  14.510  0.00  0.00    +0.000 C 
ATOM     20  N   UNL     1      46.810   4.418  15.853  0.00  0.00    +0.000 N 
ATOM     21  H   UNL     1      46.282   5.219  16.181  0.00  0.00    +0.000 HD
BRANCH  19  22
ATOM     22  C   UNL     1      46.426   5.247  13.639  0.00  0.00    +0.000 A 
ATOM     23  C   UNL     1      47.269   6.325  13.394  0.00  0.00    +0.000 A 
ATOM     24  S   UNL     1      46.575   7.504  12.370  0.00  0.00    +0.000 S 
ATOM     25  C   UNL     1      45.150   6.592  12.192  0.00  0.00    +0.000 A 
ATOM     26  N   UNL     1      44.119   7.030  11.408  0.00  0.00    +0.000 NA
ATOM     27  C   UNL     1      43.123   6.214  11.344  0.00  0.00    +0.000 A 
ATOM     28  N   UNL     1      43.049   5.006  11.987  0.00  0.00    +0.000 N 
ATOM     29  C   UNL     1      44.021   4.564  12.844  0.00  0.00    +0.000 A 
ATOM     30  O   UNL     1      43.846   3.556  13.521  0.00  0.00    +0.000 OA
ATOM     31  C   UNL     1      45.191   5.419  12.920  0.00  0.00    +0.000 A 
ATOM     32  H   UNL     1      42.217   4.434  11.933  0.00  0.00    +0.000 HD
ENDBRANCH  19  22
ENDBRANCH   1  20
TORSDOF 7
ENDMDL
MODEL 5
REMARK VINA RESULT:    -7.062      1.863      3.483
REMARK INTER + INTRA:         -11.033
REMARK INTER:                  -9.898
REMARK INTRA:                  -1.134
REMARK UNBOUND:                -1.081
REMARK  Name = 
REMARK  7 active torsions:
REMARK  status: ('A' for Active; 'I' for Inactive)
REMARK    1  A    between atoms: C_2  and  C_19
REMARK    2  A    between atoms: N_3  and  C_4
REMARK    3  A    between atoms: C_4  and  C_5
REMARK    4  A    between atoms: C_8  and  C_9
REMARK    5  A    between atoms: C_9  and  N_10
REMARK    6  A    between atoms: N_10  and  C_11
REMARK    7  A    between atoms: C_11  and  C_12
REMARK                            x       y       z     vdW  Elec       q    Type
REMARK                         _______ _______ _______ _____ _____    ______ ____
ROOT
ATOM      1  C   UNL     1      47.126   4.213  14.951  0.00  0.00    +0.000 C 
ENDROOT
BRANCH   1   2
ATOM      2  C   UNL     1      46.364   4.378  13.661  0.00  0.00    +0.000 A 
ATOM      3  C   UNL     1      45.928   3.251  12.954  0.00  0.00    +0.000 A 
ATOM      4  C   UNL     1      45.195   3.385  11.771  0.00  0.00    +0.000 A 
ATOM      5  C   UNL     1      44.874   4.651  11.265  0.00  0.00    +0.000 A 
ATOM      6  C   UNL     1      45.346   5.780  11.952  0.00  0.00    +0.000 A 
ATOM      7  C   UNL     1      46.090   5.647  13.132  0.00  0.00    +0.000 A 
BRANCH   5   8
ATOM      8  C   UNL     1      44.085   4.799   9.978  0.00  0.00    +0.000 C 
BRANCH   8   9
ATOM      9  N   UNL     1      44.955   4.869   8.795  0.00  0.00    +0.000 NA
ATOM     10  H   UNL     1      45.918   4.991   9.111  0.00  0.00    +0.000 HD
BRANCH   9  11
ATOM     11  C   UNL     1      44.847   3.657   7.976  0.00  0.00    +0.000 C 
BRANCH  11  12
ATOM     12  C   UNL     1      46.215   3.014   7.714  0.00  0.00    +0.000 C 
ATOM     13  C   UNL     1      46.254   1.527   8.044  0.00  0.00    +0.000 C 
ATOM     14  C   UNL     1      47.505   1.082   7.317  0.00  0.00    +0.000 C 
ATOM     15  N   UNL     1      47.441   1.784   6.032  0.00  0.00    +0.000 NA
ATOM     16  C   UNL     1      46.703   3.045   6.263  0.00  0.00    +0.000 C 
ATOM     17  H   UNL     1      46.902   1.216   5.377  0.00  0.00    +0.000 HD
ENDBRANCH  11  12
ENDBRANCH   9  11
ENDBRANCH   8   9
ENDBRANCH   5   8
ENDBRANCH   1   2
BRANCH   1  20
ATOM     18  O   UNL     1      49.215   4.586  16.817  0.00  0.00    +0.000 OA
ATOM     19  C   UNL     1      48.659   5.565  16.328  0.00  0.00    +0.000 C 
ATOM     20  N   UNL     1      47.600   5.469  15.463  0.00  0.00    +0.000 N 
ATOM     21  H   UNL     1      47.314   6.289  14.940  0.00  0.00    +0.000 HD
BRANCH  19  22
ATOM     22  C   UNL     1      49.055   6.930  16.683  0.00  0.00    +0.000 A 
ATOM     23  C   UNL     1      48.943   7.382  17.993  0.00  0.00    +0.000 A 
ATOM     24  S   UNL     1      49.437   9.005  18.190  0.00  0.00    +0.000 S 
ATOM     25  C   UNL     1      49.853   9.138  16.546  0.00  0.00    +0.000 A 
ATOM     26  N   UNL     1      50.371  10.295  16.034  0.00  0.00    +0.000 NA
ATOM     27  C   UNL     1      50.668  10.230  14.782  0.00  0.00    +0.000 A 
ATOM     28  N   UNL     1      50.497   9.129  13.985  0.00  0.00    +0.000 N 
ATOM     29  C   UNL     1      49.909   7.976  14.434  0.00  0.00    +0.000 A 
ATOM     30  O   UNL     1      49.629   7.072  13.653  0.00  0.00    +0.000 OA
ATOM     31  C   UNL     1      49.596   7.972  15.851  0.00  0.00    +0.000 A 
ATOM     32  H   UNL     1      50.706   9.159  12.997  0.00  0.00    +0.000 HD
ENDBRANCH  19  22
ENDBRANCH   1  20
TORSDOF 7
ENDMDL
MODEL 6
REMARK VINA RESULT:    -6.778      3.036      8.486
REMARK INTER + INTRA:         -10.633
REMARK INTER:                  -9.199
REMARK INTRA:                  -1.433
REMARK UNBOUND:                -1.081
REMARK  Name = 
REMARK  7 active torsions:
REMARK  status: ('A' for Active; 'I' for Inactive)
REMARK    1  A    between atoms: C_2  and  C_19
REMARK    2  A    between atoms: N_3  and  C_4
REMARK    3  A    between atoms: C_4  and  C_5
REMARK    4  A    between atoms: C_8  and  C_9
REMARK    5  A    between atoms: C_9  and  N_10
REMARK    6  A    between atoms: N_10  and  C_11
REMARK    7  A    between atoms: C_11  and  C_12
REMARK                            x       y       z     vdW  Elec       q    Type
REMARK                         _______ _______ _______ _____ _____    ______ ____
ROOT
ATOM      1  C   UNL     1      47.386   7.805  12.075  0.00  0.00    +0.000 C 
ENDROOT
BRANCH   1   2
ATOM      2  C   UNL     1      48.027   7.893  13.437  0.00  0.00    +0.000 A 
ATOM      3  C   UNL     1      47.674   8.927  14.312  0.00  0.00    +0.000 A 
ATOM      4  C   UNL     1      48.237   9.008  15.590  0.00  0.00    +0.000 A 
ATOM      5  C   UNL     1      49.163   8.054  16.028  0.00  0.00    +0.000 A 
ATOM      6  C   UNL     1      49.547   7.041  15.134  0.00  0.00    +0.000 A 
ATOM      7  C   UNL     1      48.992   6.965  13.851  0.00  0.00    +0.000 A 
BRANCH   5   8
ATOM      8  C   UNL     1      49.781   8.143  17.411  0.00  0.00    +0.000 C 
BRANCH   8   9
ATOM      9  N   UNL     1      50.040   6.818  17.993  0.00  0.00    +0.000 NA
ATOM     10  H   UNL     1      50.796   6.907  18.672  0.00  0.00    +0.000 HD
BRANCH   9  11
ATOM     11  C   UNL     1      48.843   6.275  18.644  0.00  0.00    +0.000 C 
BRANCH  11  12
ATOM     12  C   UNL     1      48.599   4.807  18.269  0.00  0.00    +0.000 C 
ATOM     13  C   UNL     1      47.572   4.633  17.157  0.00  0.00    +0.000 C 
ATOM     14  C   UNL     1      47.839   3.212  16.709  0.00  0.00    +0.000 C 
ATOM     15  N   UNL     1      49.302   3.108  16.698  0.00  0.00    +0.000 NA
ATOM     16  C   UNL     1      49.809   4.043  17.727  0.00  0.00    +0.000 C 
ATOM     17  H   UNL     1      49.644   3.420  15.789  0.00  0.00    +0.000 HD
ENDBRANCH  11  12
ENDBRANCH   9  11
ENDBRANCH   8   9
ENDBRANCH   5   8
ENDBRANCH   1   2
BRANCH   1  20
ATOM     18  O   UNL     1      44.601   7.521  11.686  0.00  0.00    +0.000 OA
ATOM     19  C   UNL     1      45.320   6.527  11.657  0.00  0.00    +0.000 C 
ATOM     20  N   UNL     1      46.669   6.573  11.894  0.00  0.00    +0.000 N 
ATOM     21  H   UNL     1      47.239   5.767  11.661  0.00  0.00    +0.000 HD
BRANCH  19  22
ATOM     22  C   UNL     1      44.772   5.189  11.418  0.00  0.00    +0.000 A 
ATOM     23  C   UNL     1      44.012   4.552  12.391  0.00  0.00    +0.000 A 
ATOM     24  S   UNL     1      43.486   2.995  11.924  0.00  0.00    +0.000 S 
ATOM     25  C   UNL     1      44.220   3.145  10.396  0.00  0.00    +0.000 A 
ATOM     26  N   UNL     1      44.137   2.146   9.466  0.00  0.00    +0.000 NA
ATOM     27  C   UNL     1      44.713   2.420   8.347  0.00  0.00    +0.000 A 
ATOM     28  N   UNL     1      45.369   3.588   8.061  0.00  0.00    +0.000 N 
ATOM     29  C   UNL     1      45.546   4.582   8.986  0.00  0.00    +0.000 A 
ATOM     30  O   UNL     1      46.273   5.540   8.744  0.00  0.00    +0.000 OA
ATOM     31  C   UNL     1      44.877   4.351  10.253  0.00  0.00    +0.000 A 
ATOM     32  H   UNL     1      45.842   3.721   7.177  0.00  0.00    +0.000 HD
ENDBRANCH  19  22
ENDBRANCH   1  20
TORSDOF 7
ENDMDL
MODEL 7
REMARK VINA RESULT:    -6.730      3.444      8.211
REMARK INTER + INTRA:         -10.565
REMARK INTER:                  -9.263
REMARK INTRA:                  -1.303
REMARK UNBOUND:                -1.081
REMARK  Name = 
REMARK  7 active torsions:
REMARK  status: ('A' for Active; 'I' for Inactive)
REMARK    1  A    between atoms: C_2  and  C_19
REMARK    2  A    between atoms: N_3  and  C_4
REMARK    3  A    between atoms: C_4  and  C_5
REMARK    4  A    between atoms: C_8  and  C_9
REMARK    5  A    between atoms: C_9  and  N_10
REMARK    6  A    between atoms: N_10  and  C_11
REMARK    7  A    between atoms: C_11  and  C_12
REMARK                            x       y       z     vdW  Elec       q    Type
REMARK                         _______ _______ _______ _____ _____    ______ ____
ROOT
ATOM      1  C   UNL     1      48.251   7.975  12.249  0.00  0.00    +0.000 C 
ENDROOT
BRANCH   1   2
ATOM      2  C   UNL     1      48.916   7.613  13.553  0.00  0.00    +0.000 A 
ATOM      3  C   UNL     1      48.277   6.749  14.450  0.00  0.00    +0.000 A 
ATOM      4  C   UNL     1      48.892   6.380  15.651  0.00  0.00    +0.000 A 
ATOM      5  C   UNL     1      50.164   6.861  15.984  0.00  0.00    +0.000 A 
ATOM      6  C   UNL     1      50.786   7.760  15.103  0.00  0.00    +0.000 A 
ATOM      7  C   UNL     1      50.167   8.139  13.905  0.00  0.00    +0.000 A 
BRANCH   5   8
ATOM      8  C   UNL     1      50.830   6.468  17.289  0.00  0.00    +0.000 C 
BRANCH   8   9
ATOM      9  N   UNL     1      49.853   6.164  18.344  0.00  0.00    +0.000 NA
ATOM     10  H   UNL     1      48.927   6.111  17.919  0.00  0.00    +0.000 HD
BRANCH   9  11
ATOM     11  C   UNL     1      50.167   4.900  19.019  0.00  0.00    +0.000 C 
BRANCH  11  12
ATOM     12  C   UNL     1      49.273   3.750  18.535  0.00  0.00    +0.000 C 
ATOM     13  C   UNL     1      47.895   4.212  18.081  0.00  0.00    +0.000 C 
ATOM     14  C   UNL     1      47.414   3.015  17.288  0.00  0.00    +0.000 C 
ATOM     15  N   UNL     1      48.593   2.594  16.524  0.00  0.00    +0.000 NA
ATOM     16  C   UNL     1      49.781   2.972  17.319  0.00  0.00    +0.000 C 
ATOM     17  H   UNL     1      48.616   3.119  15.648  0.00  0.00    +0.000 HD
ENDBRANCH  11  12
ENDBRANCH   9  11
ENDBRANCH   8   9
ENDBRANCH   5   8
ENDBRANCH   1   2
BRANCH   1  20
ATOM     18  O   UNL     1      45.478   7.901  11.707  0.00  0.00    +0.000 OA
ATOM     19  C   UNL     1      46.178   6.938  11.410  0.00  0.00    +0.000 C 
ATOM     20  N   UNL     1      47.518   6.871  11.693  0.00  0.00    +0.000 N 
ATOM     21  H   UNL     1      48.081   6.152  11.252  0.00  0.00    +0.000 HD
BRANCH  19  22
ATOM     22  C   UNL     1      45.614   5.745  10.773  0.00  0.00    +0.000 A 
ATOM     23  C   UNL     1      45.841   5.486   9.427  0.00  0.00    +0.000 A 
ATOM     24  S   UNL     1      45.080   4.059   8.877  0.00  0.00    +0.000 S 
ATOM     25  C   UNL     1      44.462   3.724  10.426  0.00  0.00    +0.000 A 
ATOM     26  N   UNL     1      43.711   2.607  10.666  0.00  0.00    +0.000 NA
ATOM     27  C   UNL     1      43.345   2.473  11.894  0.00  0.00    +0.000 A 
ATOM     28  N   UNL     1      43.648   3.343  12.908  0.00  0.00    +0.000 N 
ATOM     29  C   UNL     1      44.328   4.513  12.700  0.00  0.00    +0.000 A 
ATOM     30  O   UNL     1      44.440   5.340  13.600  0.00  0.00    +0.000 OA
ATOM     31  C   UNL     1      44.808   4.697  11.343  0.00  0.00    +0.000 A 
ATOM     32  H   UNL     1      43.288   3.204  13.843  0.00  0.00    +0.000 HD
ENDBRANCH  19  22
ENDBRANCH   1  20
TORSDOF 7
ENDMDL
MODEL 8
REMARK VINA RESULT:    -6.646      3.976      8.730
REMARK INTER + INTRA:         -10.446
REMARK INTER:                  -9.274
REMARK INTRA:                  -1.172
REMARK UNBOUND:                -1.081
REMARK  Name = 
REMARK  7 active torsions:
REMARK  status: ('A' for Active; 'I' for Inactive)
REMARK    1  A    between atoms: C_2  and  C_19
REMARK    2  A    between atoms: N_3  and  C_4
REMARK    3  A    between atoms: C_4  and  C_5
REMARK    4  A    between atoms: C_8  and  C_9
REMARK    5  A    between atoms: C_9  and  N_10
REMARK    6  A    between atoms: N_10  and  C_11
REMARK    7  A    between atoms: C_11  and  C_12
REMARK                            x       y       z     vdW  Elec       q    Type
REMARK                         _______ _______ _______ _____ _____    ______ ____
ROOT
ATOM      1  C   UNL     1      48.928   6.219  16.901  0.00  0.00    +0.000 C 
ENDROOT
BRANCH   1   2
ATOM      2  C   UNL     1      49.538   4.855  17.102  0.00  0.00    +0.000 A 
ATOM      3  C   UNL     1      50.899   4.733  17.405  0.00  0.00    +0.000 A 
ATOM      4  C   UNL     1      51.476   3.478  17.624  0.00  0.00    +0.000 A 
ATOM      5  C   UNL     1      50.704   2.312  17.551  0.00  0.00    +0.000 A 
ATOM      6  C   UNL     1      49.348   2.432  17.208  0.00  0.00    +0.000 A 
ATOM      7  C   UNL     1      48.772   3.688  16.978  0.00  0.00    +0.000 A 
BRANCH   5   8
ATOM      8  C   UNL     1      51.328   0.948  17.781  0.00  0.00    +0.000 C 
BRANCH   8   9
ATOM      9  N   UNL     1      52.606   0.792  17.071  0.00  0.00    +0.000 NA
ATOM     10  H   UNL     1      52.897   1.708  16.728  0.00  0.00    +0.000 HD
BRANCH   9  11
ATOM     11  C   UNL     1      53.642   0.232  17.946  0.00  0.00    +0.000 C 
BRANCH  11  12
ATOM     12  C   UNL     1      54.746   1.251  18.257  0.00  0.00    +0.000 C 
ATOM     13  C   UNL     1      54.866   2.347  17.205  0.00  0.00    +0.000 C 
ATOM     14  C   UNL     1      55.676   3.394  17.941  0.00  0.00    +0.000 C 
ATOM     15  N   UNL     1      55.102   3.408  19.290  0.00  0.00    +0.000 NA
ATOM     16  C   UNL     1      54.578   2.049  19.552  0.00  0.00    +0.000 C 
ATOM     17  H   UNL     1      54.316   4.059  19.303  0.00  0.00    +0.000 HD
ENDBRANCH  11  12
ENDBRANCH   9  11
ENDBRANCH   8   9
ENDBRANCH   5   8
ENDBRANCH   1   2
BRANCH   1  20
ATOM     18  O   UNL     1      49.418   6.703  14.160  0.00  0.00    +0.000 OA
ATOM     19  C   UNL     1      48.284   6.416  14.530  0.00  0.00    +0.000 C 
ATOM     20  N   UNL     1      47.952   6.224  15.846  0.00  0.00    +0.000 N 
ATOM     21  H   UNL     1      47.062   5.797  16.074  0.00  0.00    +0.000 HD
BRANCH  19  22
ATOM     22  C   UNL     1      47.171   6.310  13.583  0.00  0.00    +0.000 A 
ATOM     23  C   UNL     1      46.655   7.444  12.967  0.00  0.00    +0.000 A 
ATOM     24  S   UNL     1      45.351   7.107  11.917  0.00  0.00    +0.000 S 
ATOM     25  C   UNL     1      45.466   5.437  12.220  0.00  0.00    +0.000 A 
ATOM     26  N   UNL     1      44.630   4.544  11.609  0.00  0.00    +0.000 NA
ATOM     27  C   UNL     1      44.862   3.313  11.912  0.00  0.00    +0.000 A 
ATOM     28  N   UNL     1      45.840   2.881  12.768  0.00  0.00    +0.000 N 
ATOM     29  C   UNL     1      46.647   3.742  13.463  0.00  0.00    +0.000 A 
ATOM     30  O   UNL     1      47.401   3.325  14.337  0.00  0.00    +0.000 OA
ATOM     31  C   UNL     1      46.465   5.142  13.127  0.00  0.00    +0.000 A 
ATOM     32  H   UNL     1      45.938   1.903  13.001  0.00  0.00    +0.000 HD
ENDBRANCH  19  22
ENDBRANCH   1  20
TORSDOF 7
ENDMDL
MODEL 9
REMARK VINA RESULT:    -6.526      3.684      8.014
REMARK INTER + INTRA:         -10.278
REMARK INTER:                  -8.096
REMARK INTRA:                  -2.182
REMARK UNBOUND:                -1.081
REMARK  Name = 
REMARK  7 active torsions:
REMARK  status: ('A' for Active; 'I' for Inactive)
REMARK    1  A    between atoms: C_2  and  C_19
REMARK    2  A    between atoms: N_3  and  C_4
REMARK    3  A    between atoms: C_4  and  C_5
REMARK    4  A    between atoms: C_8  and  C_9
REMARK    5  A    between atoms: C_9  and  N_10
REMARK    6  A    between atoms: N_10  and  C_11
REMARK    7  A    between atoms: C_11  and  C_12
REMARK                            x       y       z     vdW  Elec       q    Type
REMARK                         _______ _______ _______ _____ _____    ______ ____
ROOT
ATOM      1  C   UNL     1      48.278   9.077  14.982  0.00  0.00    +0.000 C 
ENDROOT
BRANCH   1   2
ATOM      2  C   UNL     1      49.011   8.322  16.062  0.00  0.00    +0.000 A 
ATOM      3  C   UNL     1      49.922   7.315  15.719  0.00  0.00    +0.000 A 
ATOM      4  C   UNL     1      50.633   6.625  16.706  0.00  0.00    +0.000 A 
ATOM      5  C   UNL     1      50.455   6.927  18.061  0.00  0.00    +0.000 A 
ATOM      6  C   UNL     1      49.511   7.907  18.406  0.00  0.00    +0.000 A 
ATOM      7  C   UNL     1      48.792   8.592  17.419  0.00  0.00    +0.000 A 
BRANCH   5   8
ATOM      8  C   UNL     1      51.219   6.174  19.135  0.00  0.00    +0.000 C 
BRANCH   8   9
ATOM      9  N   UNL     1      50.855   4.751  19.185  0.00  0.00    +0.000 NA
ATOM     10  H   UNL     1      51.531   4.266  19.774  0.00  0.00    +0.000 HD
BRANCH   9  11
ATOM     11  C   UNL     1      49.501   4.561  19.715  0.00  0.00    +0.000 C 
BRANCH  11  12
ATOM     12  C   UNL     1      48.606   3.777  18.746  0.00  0.00    +0.000 C 
ATOM     13  C   UNL     1      47.529   4.635  18.095  0.00  0.00    +0.000 C 
ATOM     14  C   UNL     1      47.105   3.767  16.929  0.00  0.00    +0.000 C 
ATOM     15  N   UNL     1      48.366   3.235  16.402  0.00  0.00    +0.000 NA
ATOM     16  C   UNL     1      49.310   3.153  17.539  0.00  0.00    +0.000 C 
ATOM     17  H   UNL     1      48.742   3.900  15.724  0.00  0.00    +0.000 HD
ENDBRANCH  11  12
ENDBRANCH   9  11
ENDBRANCH   8   9
ENDBRANCH   5   8
ENDBRANCH   1   2
BRANCH   1  20
ATOM     18  O   UNL     1      47.808   8.818  12.207  0.00  0.00    +0.000 OA
ATOM     19  C   UNL     1      47.136   8.164  12.998  0.00  0.00    +0.000 C 
ATOM     20  N   UNL     1      47.261   8.276  14.358  0.00  0.00    +0.000 N 
ATOM     21  H   UNL     1      46.831   7.577  14.954  0.00  0.00    +0.000 HD
BRANCH  19  22
ATOM     22  C   UNL     1      46.093   7.242  12.540  0.00  0.00    +0.000 A 
ATOM     23  C   UNL     1      45.008   7.708  11.807  0.00  0.00    +0.000 A 
ATOM     24  S   UNL     1      43.898   6.478  11.390  0.00  0.00    +0.000 S 
ATOM     25  C   UNL     1      44.854   5.285  12.136  0.00  0.00    +0.000 A 
ATOM     26  N   UNL     1      44.481   3.969  12.132  0.00  0.00    +0.000 NA
ATOM     27  C   UNL     1      45.324   3.181  12.706  0.00  0.00    +0.000 A 
ATOM     28  N   UNL     1      46.500   3.573  13.290  0.00  0.00    +0.000 N 
ATOM     29  C   UNL     1      46.875   4.886  13.389  0.00  0.00    +0.000 A 
ATOM     30  O   UNL     1      47.852   5.209  14.057  0.00  0.00    +0.000 OA
ATOM     31  C   UNL     1      45.988   5.818  12.717  0.00  0.00    +0.000 A 
ATOM     32  H   UNL     1      47.094   2.909  13.767  0.00  0.00    +0.000 HD
ENDBRANCH  19  22
ENDBRANCH   1  20
TORSDOF 7
ENDMDL
