MODEL 1
REMARK VINA RESULT:    -8.483      0.000      0.000
REMARK INTER + INTRA:         -12.937
REMARK INTER:                 -11.954
REMARK INTRA:                  -0.983
REMARK UNBOUND:                -0.983
REMARK  Name = 
REMARK  7 active torsions:
REMARK  status: ('A' for Active; 'I' for Inactive)
REMARK    1  A    between atoms: C_2  and  C_20
REMARK    2  A    between atoms: N_3  and  C_4
REMARK    3  A    between atoms: C_4  and  C_5
REMARK    4  A    between atoms: C_8  and  C_9
REMARK    5  A    between atoms: C_9  and  O_10
REMARK    6  A    between atoms: O_10  and  C_11
REMARK    7  A    between atoms: C_11  and  C_12
REMARK                            x       y       z     vdW  Elec       q    Type
REMARK                         _______ _______ _______ _____ _____    ______ ____
ROOT
ATOM      1  C   UNL     1      48.044   6.936  13.444  0.00  0.00    +0.000 C 
ENDROOT
BRANCH   1   2
ATOM      2  C   UNL     1      46.912   6.187  12.789  0.00  0.00    +0.000 A 
ATOM      3  C   UNL     1      46.492   6.523  11.495  0.00  0.00    +0.000 A 
ATOM      4  C   UNL     1      45.432   5.840  10.891  0.00  0.00    +0.000 A 
ATOM      5  C   UNL     1      44.763   4.814  11.572  0.00  0.00    +0.000 A 
ATOM      6  C   UNL     1      45.166   4.497  12.875  0.00  0.00    +0.000 A 
ATOM      7  C   UNL     1      46.227   5.179  13.480  0.00  0.00    +0.000 A 
BRANCH   5   8
ATOM      8  C   UNL     1      43.622   4.080  10.914  0.00  0.00    +0.000 C 
BRANCH   8   9
ATOM      9  O   UNL     1      44.016   3.724   9.593  0.00  0.00    +0.000 OA
BRANCH   9  10
ATOM     10  C   UNL     1      44.579   2.412   9.537  0.00  0.00    +0.000 C 
BRANCH  10  11
ATOM     11  C   UNL     1      45.593   2.311   8.418  0.00  0.00    +0.000 A 
ATOM     12  C   UNL     1      45.865   3.410   7.603  0.00  0.00    +0.000 A 
ATOM     13  C   UNL     1      46.808   3.287   6.588  0.00  0.00    +0.000 A 
ATOM     14  C   UNL     1      47.467   2.077   6.418  0.00  0.00    +0.000 A 
ATOM     15  C   UNL     1      47.157   1.039   7.281  0.00  0.00    +0.000 A 
ATOM     16  N   UNL     1      46.245   1.128   8.275  0.00  0.00    +0.000 NA
ENDBRANCH  10  11
ENDBRANCH   9  10
ENDBRANCH   8   9
ENDBRANCH   5   8
ENDBRANCH   1   2
BRANCH   1  19
ATOM     17  O   UNL     1      50.143   6.648  15.263  0.00  0.00    +0.000 OA
ATOM     18  C   UNL     1      49.008   6.823  15.697  0.00  0.00    +0.000 C 
ATOM     19  N   UNL     1      47.913   6.903  14.877  0.00  0.00    +0.000 N 
ATOM     20  H   UNL     1      47.041   7.258  15.253  0.00  0.00    +0.000 HD
BRANCH  18  21
ATOM     21  C   UNL     1      48.741   6.910  17.138  0.00  0.00    +0.000 A 
ATOM     22  C   UNL     1      48.366   8.121  17.704  0.00  0.00    +0.000 A 
ATOM     23  S   UNL     1      48.133   8.040  19.393  0.00  0.00    +0.000 S 
ATOM     24  C   UNL     1      48.478   6.373  19.418  0.00  0.00    +0.000 A 
ATOM     25  N   UNL     1      48.432   5.664  20.578  0.00  0.00    +0.000 NA
ATOM     26  C   UNL     1      48.681   4.404  20.443  0.00  0.00    +0.000 A 
ATOM     27  N   UNL     1      48.975   3.789  19.254  0.00  0.00    +0.000 N 
ATOM     28  C   UNL     1      49.067   4.469  18.064  0.00  0.00    +0.000 A 
ATOM     29  O   UNL     1      49.384   3.896  17.029  0.00  0.00    +0.000 OA
ATOM     30  C   UNL     1      48.782   5.889  18.159  0.00  0.00    +0.000 A 
ATOM     31  H   UNL     1      49.172   2.800  19.215  0.00  0.00    +0.000 HD
ENDBRANCH  18  21
ENDBRANCH   1  19
TORSDOF 7
ENDMDL
MODEL 2
REMARK VINA RESULT:    -8.205      0.741      1.181
REMARK INTER + INTRA:         -12.546
REMARK INTER:                 -11.583
REMARK INTRA:                  -0.963
REMARK UNBOUND:                -0.983
REMARK  Name = 
REMARK  7 active torsions:
REMARK  status: ('A' for Active; 'I' for Inactive)
REMARK    1  A    between atoms: C_2  and  C_20
REMARK    2  A    between atoms: N_3  and  C_4
REMARK    3  A    between atoms: C_4  and  C_5
REMARK    4  A    between atoms: C_8  and  C_9
REMARK    5  A    between atoms: C_9  and  O_10
REMARK    6  A    between atoms: O_10  and  C_11
REMARK    7  A    between atoms: C_11  and  C_12
REMARK                            x       y       z     vdW  Elec       q    Type
REMARK                         _______ _______ _______ _____ _____    ______ ____
ROOT
ATOM      1  C   UNL     1      48.305   6.706  13.424  0.00  0.00    +0.000 C 
ENDROOT
BRANCH   1   2
ATOM      2  C   UNL     1      47.085   6.115  12.765  0.00  0.00    +0.000 A 
ATOM      3  C   UNL     1      46.376   5.077  13.383  0.00  0.00    +0.000 A 
ATOM      4  C   UNL     1      45.253   4.516  12.766  0.00  0.00    +0.000 A 
ATOM      5  C   UNL     1      44.823   4.974  11.514  0.00  0.00    +0.000 A 
ATOM      6  C   UNL     1      45.548   5.994  10.885  0.00  0.00    +0.000 A 
ATOM      7  C   UNL     1      46.671   6.556  11.501  0.00  0.00    +0.000 A 
BRANCH   5   8
ATOM      8  C   UNL     1      43.610   4.366  10.856  0.00  0.00    +0.000 C 
BRANCH   8   9
ATOM      9  O   UNL     1      43.990   3.871   9.576  0.00  0.00    +0.000 OA
BRANCH   9  10
ATOM     10  C   UNL     1      44.616   2.589   9.663  0.00  0.00    +0.000 C 
BRANCH  10  11
ATOM     11  C   UNL     1      45.616   2.405   8.542  0.00  0.00    +0.000 A 
ATOM     12  C   UNL     1      46.014   3.488   7.758  0.00  0.00    +0.000 A 
ATOM     13  C   UNL     1      46.941   3.286   6.740  0.00  0.00    +0.000 A 
ATOM     14  C   UNL     1      47.458   2.014   6.537  0.00  0.00    +0.000 A 
ATOM     15  C   UNL     1      47.029   0.994   7.371  0.00  0.00    +0.000 A 
ATOM     16  N   UNL     1      46.129   1.159   8.367  0.00  0.00    +0.000 NA
ENDBRANCH  10  11
ENDBRANCH   9  10
ENDBRANCH   8   9
ENDBRANCH   5   8
ENDBRANCH   1   2
BRANCH   1  19
ATOM     17  O   UNL     1      49.923   6.120  15.623  0.00  0.00    +0.000 OA
ATOM     18  C   UNL     1      48.908   6.787  15.801  0.00  0.00    +0.000 C 
ATOM     19  N   UNL     1      48.022   7.059  14.791  0.00  0.00    +0.000 N 
ATOM     20  H   UNL     1      47.325   7.782  14.929  0.00  0.00    +0.000 HD
BRANCH  18  21
ATOM     21  C   UNL     1      48.548   7.299  17.129  0.00  0.00    +0.000 A 
ATOM     22  C   UNL     1      48.424   8.666  17.337  0.00  0.00    +0.000 A 
ATOM     23  S   UNL     1      48.036   9.078  18.947  0.00  0.00    +0.000 S 
ATOM     24  C   UNL     1      47.972   7.441  19.410  0.00  0.00    +0.000 A 
ATOM     25  N   UNL     1      47.661   7.084  20.685  0.00  0.00    +0.000 NA
ATOM     26  C   UNL     1      47.613   5.808  20.884  0.00  0.00    +0.000 A 
ATOM     27  N   UNL     1      47.853   4.858  19.927  0.00  0.00    +0.000 N 
ATOM     28  C   UNL     1      48.204   5.171  18.636  0.00  0.00    +0.000 A 
ATOM     29  O   UNL     1      48.463   4.295  17.820  0.00  0.00    +0.000 OA
ATOM     30  C   UNL     1      48.258   6.593  18.355  0.00  0.00    +0.000 A 
ATOM     31  H   UNL     1      47.811   3.874  20.149  0.00  0.00    +0.000 HD
ENDBRANCH  18  21
ENDBRANCH   1  19
TORSDOF 7
ENDMDL
MODEL 3
REMARK VINA RESULT:    -8.070      1.581      2.447
REMARK INTER + INTRA:         -12.354
REMARK INTER:                 -11.246
REMARK INTRA:                  -1.109
REMARK UNBOUND:                -0.983
REMARK  Name = 
REMARK  7 active torsions:
REMARK  status: ('A' for Active; 'I' for Inactive)
REMARK    1  A    between atoms: C_2  and  C_20
REMARK    2  A    between atoms: N_3  and  C_4
REMARK    3  A    between atoms: C_4  and  C_5
REMARK    4  A    between atoms: C_8  and  C_9
REMARK    5  A    between atoms: C_9  and  O_10
REMARK    6  A    between atoms: O_10  and  C_11
REMARK    7  A    between atoms: C_11  and  C_12
REMARK                            x       y       z     vdW  Elec       q    Type
REMARK                         _______ _______ _______ _____ _____    ______ ____
ROOT
ATOM      1  C   UNL     1      48.263   6.327  13.887  0.00  0.00    +0.000 C 
ENDROOT
BRANCH   1   2
ATOM      2  C   UNL     1      47.076   5.817  13.112  0.00  0.00    +0.000 A 
ATOM      3  C   UNL     1      46.760   6.358  11.858  0.00  0.00    +0.000 A 
ATOM      4  C   UNL     1      45.650   5.897  11.143  0.00  0.00    +0.000 A 
ATOM      5  C   UNL     1      44.826   4.895  11.672  0.00  0.00    +0.000 A 
ATOM      6  C   UNL     1      45.127   4.373  12.936  0.00  0.00    +0.000 A 
ATOM      7  C   UNL     1      46.238   4.832  13.652  0.00  0.00    +0.000 A 
BRANCH   5   8
ATOM      8  C   UNL     1      43.632   4.401  10.894  0.00  0.00    +0.000 C 
BRANCH   8   9
ATOM      9  O   UNL     1      44.073   3.979   9.608  0.00  0.00    +0.000 OA
BRANCH   9  10
ATOM     10  C   UNL     1      44.568   2.639   9.626  0.00  0.00    +0.000 C 
BRANCH  10  11
ATOM     11  C   UNL     1      45.554   2.418   8.498  0.00  0.00    +0.000 A 
ATOM     12  C   UNL     1      45.892   3.459   7.634  0.00  0.00    +0.000 A 
ATOM     13  C   UNL     1      46.807   3.225   6.612  0.00  0.00    +0.000 A 
ATOM     14  C   UNL     1      47.372   1.964   6.485  0.00  0.00    +0.000 A 
ATOM     15  C   UNL     1      47.002   0.987   7.396  0.00  0.00    +0.000 A 
ATOM     16  N   UNL     1      46.115   1.185   8.397  0.00  0.00    +0.000 NA
ENDBRANCH  10  11
ENDBRANCH   9  10
ENDBRANCH   8   9
ENDBRANCH   5   8
ENDBRANCH   1   2
BRANCH   1  19
ATOM     17  O   UNL     1      49.891   5.784  16.090  0.00  0.00    +0.000 OA
ATOM     18  C   UNL     1      48.801   6.313  16.281  0.00  0.00    +0.000 C 
ATOM     19  N   UNL     1      47.911   6.549  15.266  0.00  0.00    +0.000 N 
ATOM     20  H   UNL     1      47.129   7.174  15.431  0.00  0.00    +0.000 HD
BRANCH  18  21
ATOM     21  C   UNL     1      48.353   6.688  17.629  0.00  0.00    +0.000 A 
ATOM     22  C   UNL     1      48.243   5.721  18.619  0.00  0.00    +0.000 A 
ATOM     23  S   UNL     1      47.676   6.333  20.108  0.00  0.00    +0.000 S 
ATOM     24  C   UNL     1      47.604   7.919  19.494  0.00  0.00    +0.000 A 
ATOM     25  N   UNL     1      47.210   8.958  20.278  0.00  0.00    +0.000 NA
ATOM     26  C   UNL     1      47.239  10.109  19.692  0.00  0.00    +0.000 A 
ATOM     27  N   UNL     1      47.621  10.315  18.393  0.00  0.00    +0.000 N 
ATOM     28  C   UNL     1      47.994   9.293  17.553  0.00  0.00    +0.000 A 
ATOM     29  O   UNL     1      48.280   9.507  16.382  0.00  0.00    +0.000 OA
ATOM     30  C   UNL     1      47.993   7.978  18.167  0.00  0.00    +0.000 A 
ATOM     31  H   UNL     1      47.611  11.239  17.987  0.00  0.00    +0.000 HD
ENDBRANCH  18  21
ENDBRANCH   1  19
TORSDOF 7
ENDMDL
MODEL 4
REMARK VINA RESULT:    -7.494      1.755      2.377
REMARK INTER + INTRA:         -11.544
REMARK INTER:                 -10.664
REMARK INTRA:                  -0.880
REMARK UNBOUND:                -0.983
REMARK  Name = 
REMARK  7 active torsions:
REMARK  status: ('A' for Active; 'I' for Inactive)
REMARK    1  A    between atoms: C_2  and  C_20
REMARK    2  A    between atoms: N_3  and  C_4
REMARK    3  A    between atoms: C_4  and  C_5
REMARK    4  A    between atoms: C_8  and  C_9
REMARK    5  A    between atoms: C_9  and  O_10
REMARK    6  A    between atoms: O_10  and  C_11
REMARK    7  A    between atoms: C_11  and  C_12
REMARK                            x       y       z     vdW  Elec       q    Type
REMARK                         _______ _______ _______ _____ _____    ______ ____
ROOT
ATOM      1  C   UNL     1      47.394   3.305  14.966  0.00  0.00    +0.000 C 
ENDROOT
BRANCH   1   2
ATOM      2  C   UNL     1      46.777   3.920  13.737  0.00  0.00    +0.000 A 
ATOM      3  C   UNL     1      47.052   5.250  13.393  0.00  0.00    +0.000 A 
ATOM      4  C   UNL     1      46.468   5.827  12.261  0.00  0.00    +0.000 A 
ATOM      5  C   UNL     1      45.589   5.091  11.456  0.00  0.00    +0.000 A 
ATOM      6  C   UNL     1      45.294   3.769  11.815  0.00  0.00    +0.000 A 
ATOM      7  C   UNL     1      45.879   3.190  12.947  0.00  0.00    +0.000 A 
BRANCH   5   8
ATOM      8  C   UNL     1      44.965   5.719  10.235  0.00  0.00    +0.000 C 
BRANCH   8   9
ATOM      9  O   UNL     1      45.606   5.191   9.078  0.00  0.00    +0.000 OA
BRANCH   9  10
ATOM     10  C   UNL     1      44.816   4.186   8.441  0.00  0.00    +0.000 C 
BRANCH  10  11
ATOM     11  C   UNL     1      45.700   3.139   7.798  0.00  0.00    +0.000 A 
ATOM     12  C   UNL     1      46.403   3.421   6.627  0.00  0.00    +0.000 A 
ATOM     13  C   UNL     1      47.212   2.438   6.067  0.00  0.00    +0.000 A 
ATOM     14  C   UNL     1      47.313   1.205   6.694  0.00  0.00    +0.000 A 
ATOM     15  C   UNL     1      46.600   1.008   7.865  0.00  0.00    +0.000 A 
ATOM     16  N   UNL     1      45.805   1.942   8.433  0.00  0.00    +0.000 NA
ENDBRANCH  10  11
ENDBRANCH   9  10
ENDBRANCH   8   9
ENDBRANCH   5   8
ENDBRANCH   1   2
BRANCH   1  19
ATOM     17  O   UNL     1      46.705   3.190  17.670  0.00  0.00    +0.000 OA
ATOM     18  C   UNL     1      47.364   4.146  17.271  0.00  0.00    +0.000 C 
ATOM     19  N   UNL     1      47.684   4.316  15.950  0.00  0.00    +0.000 N 
ATOM     20  H   UNL     1      48.400   4.989  15.699  0.00  0.00    +0.000 HD
BRANCH  18  21
ATOM     21  C   UNL     1      47.815   5.203  18.184  0.00  0.00    +0.000 A 
ATOM     22  C   UNL     1      46.906   5.830  19.026  0.00  0.00    +0.000 A 
ATOM     23  S   UNL     1      47.602   7.056  19.988  0.00  0.00    +0.000 S 
ATOM     24  C   UNL     1      49.151   6.758  19.347  0.00  0.00    +0.000 A 
ATOM     25  N   UNL     1      50.234   7.465  19.770  0.00  0.00    +0.000 NA
ATOM     26  C   UNL     1      51.349   7.108  19.226  0.00  0.00    +0.000 A 
ATOM     27  N   UNL     1      51.481   6.112  18.294  0.00  0.00    +0.000 N 
ATOM     28  C   UNL     1      50.412   5.395  17.811  0.00  0.00    +0.000 A 
ATOM     29  O   UNL     1      50.559   4.549  16.939  0.00  0.00    +0.000 OA
ATOM     30  C   UNL     1      49.134   5.748  18.402  0.00  0.00    +0.000 A 
ATOM     31  H   UNL     1      52.380   5.887  17.896  0.00  0.00    +0.000 HD
ENDBRANCH  18  21
ENDBRANCH   1  19
TORSDOF 7
ENDMDL
MODEL 5
REMARK VINA RESULT:    -7.307      2.226      3.686
REMARK INTER + INTRA:         -11.280
REMARK INTER:                 -10.124
REMARK INTRA:                  -1.156
REMARK UNBOUND:                -0.983
REMARK  Name = 
REMARK  7 active torsions:
REMARK  status: ('A' for Active; 'I' for Inactive)
REMARK    1  A    between atoms: C_2  and  C_20
REMARK    2  A    between atoms: N_3  and  C_4
REMARK    3  A    between atoms: C_4  and  C_5
REMARK    4  A    between atoms: C_8  and  C_9
REMARK    5  A    between atoms: C_9  and  O_10
REMARK    6  A    between atoms: O_10  and  C_11
REMARK    7  A    between atoms: C_11  and  C_12
REMARK                            x       y       z     vdW  Elec       q    Type
REMARK                         _______ _______ _______ _____ _____    ______ ____
ROOT
ATOM      1  C   UNL     1      47.133   4.423  14.989  0.00  0.00    +0.000 C 
ENDROOT
BRANCH   1   2
ATOM      2  C   UNL     1      46.226   4.468  13.787  0.00  0.00    +0.000 A 
ATOM      3  C   UNL     1      45.676   5.682  13.355  0.00  0.00    +0.000 A 
ATOM      4  C   UNL     1      44.821   5.724  12.249  0.00  0.00    +0.000 A 
ATOM      5  C   UNL     1      44.490   4.551  11.558  0.00  0.00    +0.000 A 
ATOM      6  C   UNL     1      45.018   3.334  12.006  0.00  0.00    +0.000 A 
ATOM      7  C   UNL     1      45.874   3.291  13.112  0.00  0.00    +0.000 A 
BRANCH   5   8
ATOM      8  C   UNL     1      43.570   4.604  10.365  0.00  0.00    +0.000 C 
BRANCH   8   9
ATOM      9  O   UNL     1      44.067   3.714   9.371  0.00  0.00    +0.000 OA
BRANCH   9  10
ATOM     10  C   UNL     1      45.005   4.352   8.502  0.00  0.00    +0.000 C 
BRANCH  10  11
ATOM     11  C   UNL     1      45.875   3.327   7.808  0.00  0.00    +0.000 A 
ATOM     12  C   UNL     1      46.032   2.048   8.341  0.00  0.00    +0.000 A 
ATOM     13  C   UNL     1      46.833   1.126   7.674  0.00  0.00    +0.000 A 
ATOM     14  C   UNL     1      47.446   1.497   6.486  0.00  0.00    +0.000 A 
ATOM     15  C   UNL     1      47.225   2.779   6.009  0.00  0.00    +0.000 A 
ATOM     16  N   UNL     1      46.454   3.696   6.635  0.00  0.00    +0.000 NA
ENDBRANCH  10  11
ENDBRANCH   9  10
ENDBRANCH   8   9
ENDBRANCH   5   8
ENDBRANCH   1   2
BRANCH   1  19
ATOM     17  O   UNL     1      49.270   4.942  16.710  0.00  0.00    +0.000 OA
ATOM     18  C   UNL     1      48.813   5.867  16.044  0.00  0.00    +0.000 C 
ATOM     19  N   UNL     1      47.721   5.715  15.229  0.00  0.00    +0.000 N 
ATOM     20  H   UNL     1      47.514   6.433  14.544  0.00  0.00    +0.000 HD
BRANCH  18  21
ATOM     21  C   UNL     1      49.380   7.219  16.114  0.00  0.00    +0.000 A 
ATOM     22  C   UNL     1      49.581   7.826  17.347  0.00  0.00    +0.000 A 
ATOM     23  S   UNL     1      50.213   9.407  17.232  0.00  0.00    +0.000 S 
ATOM     24  C   UNL     1      50.286   9.317  15.534  0.00  0.00    +0.000 A 
ATOM     25  N   UNL     1      50.766  10.353  14.795  0.00  0.00    +0.000 NA
ATOM     26  C   UNL     1      50.797  10.131  13.523  0.00  0.00    +0.000 A 
ATOM     27  N   UNL     1      50.388   8.970  12.922  0.00  0.00    +0.000 N 
ATOM     28  C   UNL     1      49.863   7.911  13.623  0.00  0.00    +0.000 A 
ATOM     29  O   UNL     1      49.458   6.909  13.047  0.00  0.00    +0.000 OA
ATOM     30  C   UNL     1      49.820   8.103  15.060  0.00  0.00    +0.000 A 
ATOM     31  H   UNL     1      50.426   8.862  11.919  0.00  0.00    +0.000 HD
ENDBRANCH  18  21
ENDBRANCH   1  19
TORSDOF 7
ENDMDL
MODEL 6
REMARK VINA RESULT:    -7.069      3.363      8.466
REMARK INTER + INTRA:         -10.944
REMARK INTER:                  -9.574
REMARK INTRA:                  -1.370
REMARK UNBOUND:                -0.983
REMARK  Name = 
REMARK  7 active torsions:
REMARK  status: ('A' for Active; 'I' for Inactive)
REMARK    1  A    between atoms: C_2  and  C_20
REMARK    2  A    between atoms: N_3  and  C_4
REMARK    3  A    between atoms: C_4  and  C_5
REMARK    4  A    between atoms: C_8  and  C_9
REMARK    5  A    between atoms: C_9  and  O_10
REMARK    6  A    between atoms: O_10  and  C_11
REMARK    7  A    between atoms: C_11  and  C_12
REMARK                            x       y       z     vdW  Elec       q    Type
REMARK                         _______ _______ _______ _____ _____    ______ ____
ROOT
ATOM      1  C   UNL     1      47.938   8.199  12.280  0.00  0.00    +0.000 C 
ENDROOT
BRANCH   1   2
ATOM      2  C   UNL     1      48.200   8.057  13.756  0.00  0.00    +0.000 A 
ATOM      3  C   UNL     1      48.102   9.167  14.606  0.00  0.00    +0.000 A 
ATOM      4  C   UNL     1      48.360   9.041  15.975  0.00  0.00    +0.000 A 
ATOM      5  C   UNL     1      48.733   7.806  16.520  0.00  0.00    +0.000 A 
ATOM      6  C   UNL     1      48.857   6.702  15.666  0.00  0.00    +0.000 A 
ATOM      7  C   UNL     1      48.598   6.827  14.297  0.00  0.00    +0.000 A 
BRANCH   5   8
ATOM      8  C   UNL     1      49.008   7.676  17.997  0.00  0.00    +0.000 C 
BRANCH   8   9
ATOM      9  O   UNL     1      47.828   7.200  18.636  0.00  0.00    +0.000 OA
BRANCH   9  10
ATOM     10  C   UNL     1      48.072   6.014  19.395  0.00  0.00    +0.000 C 
BRANCH  10  11
ATOM     11  C   UNL     1      48.183   4.810  18.485  0.00  0.00    +0.000 A 
ATOM     12  C   UNL     1      49.378   4.098  18.389  0.00  0.00    +0.000 A 
ATOM     13  C   UNL     1      49.444   2.991  17.549  0.00  0.00    +0.000 A 
ATOM     14  C   UNL     1      48.315   2.613  16.837  0.00  0.00    +0.000 A 
ATOM     15  C   UNL     1      47.159   3.358  17.001  0.00  0.00    +0.000 A 
ATOM     16  N   UNL     1      47.065   4.438  17.809  0.00  0.00    +0.000 NA
ENDBRANCH  10  11
ENDBRANCH   9  10
ENDBRANCH   8   9
ENDBRANCH   5   8
ENDBRANCH   1   2
BRANCH   1  19
ATOM     17  O   UNL     1      45.245   7.966  11.579  0.00  0.00    +0.000 OA
ATOM     18  C   UNL     1      45.989   7.010  11.381  0.00  0.00    +0.000 C 
ATOM     19  N   UNL     1      47.306   7.014  11.760  0.00  0.00    +0.000 N 
ATOM     20  H   UNL     1      47.927   6.304  11.389  0.00  0.00    +0.000 HD
BRANCH  18  21
ATOM     21  C   UNL     1      45.501   5.770  10.764  0.00  0.00    +0.000 A 
ATOM     22  C   UNL     1      45.792   5.492   9.436  0.00  0.00    +0.000 A 
ATOM     23  S   UNL     1      45.113   4.028   8.881  0.00  0.00    +0.000 S 
ATOM     24  C   UNL     1      44.446   3.692  10.411  0.00  0.00    +0.000 A 
ATOM     25  N   UNL     1      43.742   2.550  10.634  0.00  0.00    +0.000 NA
ATOM     26  C   UNL     1      43.327   2.409  11.850  0.00  0.00    +0.000 A 
ATOM     27  N   UNL     1      43.549   3.306  12.860  0.00  0.00    +0.000 N 
ATOM     28  C   UNL     1      44.225   4.489  12.675  0.00  0.00    +0.000 A 
ATOM     29  O   UNL     1      44.359   5.292  13.589  0.00  0.00    +0.000 OA
ATOM     30  C   UNL     1      44.725   4.690  11.328  0.00  0.00    +0.000 A 
ATOM     31  H   UNL     1      43.188   3.144  13.789  0.00  0.00    +0.000 HD
ENDBRANCH  18  21
ENDBRANCH   1  19
TORSDOF 7
ENDMDL
MODEL 7
REMARK VINA RESULT:    -7.055      4.371      9.390
REMARK INTER + INTRA:         -10.924
REMARK INTER:                  -9.959
REMARK INTRA:                  -0.965
REMARK UNBOUND:                -0.983
REMARK  Name = 
REMARK  7 active torsions:
REMARK  status: ('A' for Active; 'I' for Inactive)
REMARK    1  A    between atoms: C_2  and  C_20
REMARK    2  A    between atoms: N_3  and  C_4
REMARK    3  A    between atoms: C_4  and  C_5
REMARK    4  A    between atoms: C_8  and  C_9
REMARK    5  A    between atoms: C_9  and  O_10
REMARK    6  A    between atoms: O_10  and  C_11
REMARK    7  A    between atoms: C_11  and  C_12
REMARK                            x       y       z     vdW  Elec       q    Type
REMARK                         _______ _______ _______ _____ _____    ______ ____
ROOT
ATOM      1  C   UNL     1      47.195   3.537  16.715  0.00  0.00    +0.000 C 
ENDROOT
BRANCH   1   2
ATOM      2  C   UNL     1      48.644   3.748  17.069  0.00  0.00    +0.000 A 
ATOM      3  C   UNL     1      49.508   2.654  17.208  0.00  0.00    +0.000 A 
ATOM      4  C   UNL     1      50.850   2.846  17.551  0.00  0.00    +0.000 A 
ATOM      5  C   UNL     1      51.353   4.134  17.773  0.00  0.00    +0.000 A 
ATOM      6  C   UNL     1      50.483   5.226  17.659  0.00  0.00    +0.000 A 
ATOM      7  C   UNL     1      49.140   5.035  17.315  0.00  0.00    +0.000 A 
BRANCH   5   8
ATOM      8  C   UNL     1      52.802   4.334  18.140  0.00  0.00    +0.000 C 
BRANCH   8   9
ATOM      9  O   UNL     1      53.145   3.395  19.154  0.00  0.00    +0.000 OA
BRANCH   9  10
ATOM     10  C   UNL     1      54.490   2.931  19.020  0.00  0.00    +0.000 C 
BRANCH  10  11
ATOM     11  C   UNL     1      54.537   1.656  18.205  0.00  0.00    +0.000 A 
ATOM     12  C   UNL     1      55.139   1.638  16.947  0.00  0.00    +0.000 A 
ATOM     13  C   UNL     1      55.173   0.448  16.227  0.00  0.00    +0.000 A 
ATOM     14  C   UNL     1      54.619  -0.697  16.784  0.00  0.00    +0.000 A 
ATOM     15  C   UNL     1      54.059  -0.603  18.047  0.00  0.00    +0.000 A 
ATOM     16  N   UNL     1      54.010   0.539  18.770  0.00  0.00    +0.000 NA
ENDBRANCH  10  11
ENDBRANCH   9  10
ENDBRANCH   8   9
ENDBRANCH   5   8
ENDBRANCH   1   2
BRANCH   1  19
ATOM     17  O   UNL     1      47.217   3.131  13.953  0.00  0.00    +0.000 OA
ATOM     18  C   UNL     1      46.754   4.181  14.389  0.00  0.00    +0.000 C 
ATOM     19  N   UNL     1      46.770   4.491  15.723  0.00  0.00    +0.000 N 
ATOM     20  H   UNL     1      46.193   5.255  16.059  0.00  0.00    +0.000 HD
BRANCH  18  21
ATOM     21  C   UNL     1      46.194   5.204  13.497  0.00  0.00    +0.000 A 
ATOM     22  C   UNL     1      46.937   6.332  13.179  0.00  0.00    +0.000 A 
ATOM     23  S   UNL     1      46.112   7.426  12.161  0.00  0.00    +0.000 S 
ATOM     24  C   UNL     1      44.752   6.406  12.072  0.00  0.00    +0.000 A 
ATOM     25  N   UNL     1      43.668   6.746  11.324  0.00  0.00    +0.000 NA
ATOM     26  C   UNL     1      42.726   5.862  11.319  0.00  0.00    +0.000 A 
ATOM     27  N   UNL     1      42.768   4.672  11.996  0.00  0.00    +0.000 N 
ATOM     28  C   UNL     1      43.826   4.301  12.791  0.00  0.00    +0.000 A 
ATOM     29  O   UNL     1      43.806   3.254  13.424  0.00  0.00    +0.000 OA
ATOM     30  C   UNL     1      44.919   5.255  12.820  0.00  0.00    +0.000 A 
ATOM     31  H   UNL     1      41.993   4.027  11.962  0.00  0.00    +0.000 HD
ENDBRANCH  18  21
ENDBRANCH   1  19
TORSDOF 7
ENDMDL
MODEL 8
REMARK VINA RESULT:    -6.865      2.833      8.928
REMARK INTER + INTRA:         -10.657
REMARK INTER:                  -9.392
REMARK INTRA:                  -1.265
REMARK UNBOUND:                -0.983
REMARK  Name = 
REMARK  7 active torsions:
REMARK  status: ('A' for Active; 'I' for Inactive)
REMARK    1  A    between atoms: C_2  and  C_20
REMARK    2  A    between atoms: N_3  and  C_4
REMARK    3  A    between atoms: C_4  and  C_5
REMARK    4  A    between atoms: C_8  and  C_9
REMARK    5  A    between atoms: C_9  and  O_10
REMARK    6  A    between atoms: O_10  and  C_11
REMARK    7  A    between atoms: C_11  and  C_12
REMARK                            x       y       z     vdW  Elec       q    Type
REMARK                         _______ _______ _______ _____ _____    ______ ____
ROOT
ATOM      1  C   UNL     1      47.235   7.900  12.217  0.00  0.00    +0.000 C 
ENDROOT
BRANCH   1   2
ATOM      2  C   UNL     1      47.963   7.931  13.536  0.00  0.00    +0.000 A 
ATOM      3  C   UNL     1      48.957   6.986  13.822  0.00  0.00    +0.000 A 
ATOM      4  C   UNL     1      49.623   7.003  15.052  0.00  0.00    +0.000 A 
ATOM      5  C   UNL     1      49.300   7.958  16.026  0.00  0.00    +0.000 A 
ATOM      6  C   UNL     1      48.287   8.886  15.749  0.00  0.00    +0.000 A 
ATOM      7  C   UNL     1      47.622   8.870  14.519  0.00  0.00    +0.000 A 
BRANCH   5   8
ATOM      8  C   UNL     1      50.023   7.973  17.349  0.00  0.00    +0.000 C 
BRANCH   8   9
ATOM      9  O   UNL     1      49.140   7.482  18.352  0.00  0.00    +0.000 OA
BRANCH   9  10
ATOM     10  C   UNL     1      49.621   6.273  18.943  0.00  0.00    +0.000 C 
BRANCH  10  11
ATOM     11  C   UNL     1      49.031   5.066  18.246  0.00  0.00    +0.000 A 
ATOM     12  C   UNL     1      47.697   5.060  17.837  0.00  0.00    +0.000 A 
ATOM     13  C   UNL     1      47.189   3.938  17.192  0.00  0.00    +0.000 A 
ATOM     14  C   UNL     1      48.025   2.855  16.957  0.00  0.00    +0.000 A 
ATOM     15  C   UNL     1      49.343   2.945  17.373  0.00  0.00    +0.000 A 
ATOM     16  N   UNL     1      49.865   4.021  18.003  0.00  0.00    +0.000 NA
ENDBRANCH  10  11
ENDBRANCH   9  10
ENDBRANCH   8   9
ENDBRANCH   5   8
ENDBRANCH   1   2
BRANCH   1  19
ATOM     17  O   UNL     1      44.580   7.594  11.411  0.00  0.00    +0.000 OA
ATOM     18  C   UNL     1      45.262   6.588  11.581  0.00  0.00    +0.000 C 
ATOM     19  N   UNL     1      46.551   6.645  12.044  0.00  0.00    +0.000 N 
ATOM     20  H   UNL     1      47.140   5.824  11.964  0.00  0.00    +0.000 HD
BRANCH  18  21
ATOM     21  C   UNL     1      44.722   5.243  11.344  0.00  0.00    +0.000 A 
ATOM     22  C   UNL     1      43.914   4.640  12.298  0.00  0.00    +0.000 A 
ATOM     23  S   UNL     1      43.410   3.067  11.868  0.00  0.00    +0.000 S 
ATOM     24  C   UNL     1      44.216   3.157  10.371  0.00  0.00    +0.000 A 
ATOM     25  N   UNL     1      44.167   2.126   9.485  0.00  0.00    +0.000 NA
ATOM     26  C   UNL     1      44.793   2.347   8.376  0.00  0.00    +0.000 A 
ATOM     27  N   UNL     1      45.466   3.501   8.075  0.00  0.00    +0.000 N 
ATOM     28  C   UNL     1      45.571   4.555   8.951  0.00  0.00    +0.000 A 
ATOM     29  O   UNL     1      46.225   5.551   8.669  0.00  0.00    +0.000 OA
ATOM     30  C   UNL     1      44.872   4.364  10.208  0.00  0.00    +0.000 A 
ATOM     31  H   UNL     1      45.946   3.609   7.194  0.00  0.00    +0.000 HD
ENDBRANCH  18  21
ENDBRANCH   1  19
TORSDOF 7
ENDMDL
MODEL 9
REMARK VINA RESULT:    -6.575      3.584      8.522
REMARK INTER + INTRA:         -10.248
REMARK INTER:                  -8.630
REMARK INTRA:                  -1.619
REMARK UNBOUND:                -0.983
REMARK  Name = 
REMARK  7 active torsions:
REMARK  status: ('A' for Active; 'I' for Inactive)
REMARK    1  A    between atoms: C_2  and  C_20
REMARK    2  A    between atoms: N_3  and  C_4
REMARK    3  A    between atoms: C_4  and  C_5
REMARK    4  A    between atoms: C_8  and  C_9
REMARK    5  A    between atoms: C_9  and  O_10
REMARK    6  A    between atoms: O_10  and  C_11
REMARK    7  A    between atoms: C_11  and  C_12
REMARK                            x       y       z     vdW  Elec       q    Type
REMARK                         _______ _______ _______ _____ _____    ______ ____
ROOT
ATOM      1  C   UNL     1      48.404   8.700  14.460  0.00  0.00    +0.000 C 
ENDROOT
BRANCH   1   2
ATOM      2  C   UNL     1      48.786   8.389  15.884  0.00  0.00    +0.000 A 
ATOM      3  C   UNL     1      49.865   7.539  16.161  0.00  0.00    +0.000 A 
ATOM      4  C   UNL     1      50.211   7.237  17.482  0.00  0.00    +0.000 A 
ATOM      5  C   UNL     1      49.481   7.770  18.552  0.00  0.00    +0.000 A 
ATOM      6  C   UNL     1      48.387   8.599  18.274  0.00  0.00    +0.000 A 
ATOM      7  C   UNL     1      48.039   8.902  16.953  0.00  0.00    +0.000 A 
BRANCH   5   8
ATOM      8  C   UNL     1      49.862   7.442  19.974  0.00  0.00    +0.000 C 
BRANCH   8   9
ATOM      9  O   UNL     1      49.817   6.028  20.140  0.00  0.00    +0.000 OA
BRANCH   9  10
ATOM     10  C   UNL     1      48.484   5.521  20.046  0.00  0.00    +0.000 C 
BRANCH  10  11
ATOM     11  C   UNL     1      48.330   4.647  18.819  0.00  0.00    +0.000 A 
ATOM     12  C   UNL     1      47.217   4.775  17.989  0.00  0.00    +0.000 A 
ATOM     13  C   UNL     1      47.110   3.962  16.866  0.00  0.00    +0.000 A 
ATOM     14  C   UNL     1      48.119   3.051  16.590  0.00  0.00    +0.000 A 
ATOM     15  C   UNL     1      49.203   2.997  17.451  0.00  0.00    +0.000 A 
ATOM     16  N   UNL     1      49.335   3.774  18.550  0.00  0.00    +0.000 NA
ENDBRANCH  10  11
ENDBRANCH   9  10
ENDBRANCH   8   9
ENDBRANCH   5   8
ENDBRANCH   1   2
BRANCH   1  19
ATOM     17  O   UNL     1      48.925   6.466  12.868  0.00  0.00    +0.000 OA
ATOM     18  C   UNL     1      47.777   6.656  13.257  0.00  0.00    +0.000 C 
ATOM     19  N   UNL     1      47.421   7.763  13.982  0.00  0.00    +0.000 N 
ATOM     20  H   UNL     1      46.527   7.773  14.460  0.00  0.00    +0.000 HD
BRANCH  18  21
ATOM     21  C   UNL     1      46.690   5.725  12.928  0.00  0.00    +0.000 A 
ATOM     22  C   UNL     1      46.806   4.379  13.247  0.00  0.00    +0.000 A 
ATOM     23  S   UNL     1      45.464   3.445  12.758  0.00  0.00    +0.000 S 
ATOM     24  C   UNL     1      44.661   4.816  12.146  0.00  0.00    +0.000 A 
ATOM     25  N   UNL     1      43.422   4.715  11.594  0.00  0.00    +0.000 NA
ATOM     26  C   UNL     1      42.918   5.840  11.206  0.00  0.00    +0.000 A 
ATOM     27  N   UNL     1      43.542   7.055  11.316  0.00  0.00    +0.000 N 
ATOM     28  C   UNL     1      44.807   7.201  11.835  0.00  0.00    +0.000 A 
ATOM     29  O   UNL     1      45.354   8.295  11.869  0.00  0.00    +0.000 OA
ATOM     30  C   UNL     1      45.412   5.967  12.300  0.00  0.00    +0.000 A 
ATOM     31  H   UNL     1      43.100   7.898  10.983  0.00  0.00    +0.000 HD
ENDBRANCH  18  21
ENDBRANCH   1  19
TORSDOF 7
ENDMDL
