MODEL 1
REMARK VINA RESULT:    -9.363      0.000      0.000
REMARK INTER + INTRA:         -13.071
REMARK INTER:                 -12.100
REMARK INTRA:                  -0.971
REMARK UNBOUND:                -0.971
REMARK  Name = 
REMARK  6 active torsions:
REMARK  status: ('A' for Active; 'I' for Inactive)
REMARK    1  A    between atoms: C_1  and  O_2
REMARK    2  A    between atoms: O_2  and  C_3
REMARK    3  A    between atoms: C_7  and  C_8
REMARK    4  A    between atoms: C_12  and  C_13
REMARK    5  A    between atoms: C_13  and  N_14
REMARK    6  A    between atoms: C_18  and  C_19
REMARK                            x       y       z     vdW  Elec       q    Type
REMARK                         _______ _______ _______ _____ _____    ______ ____
ROOT
ATOM      1  C   UNL     1      43.912   5.089  11.129  0.00  0.00    +0.000 C 
ATOM      2  C   UNL     1      42.626   5.756  11.598  0.00  0.00    +0.000 C 
ATOM      3  C   UNL     1      42.746   4.271  11.659  0.00  0.00    +0.000 C 
ENDROOT
BRANCH   1   4
ATOM      4  N   UNL     1      44.212   5.109   9.683  0.00  0.00    +0.000 N 
ATOM      5  C   UNL     1      45.017   4.155   9.043  0.00  0.00    +0.000 A 
ATOM      6  C   UNL     1      45.010   2.803   9.373  0.00  0.00    +0.000 A 
ATOM      7  C   UNL     1      45.771   1.900   8.627  0.00  0.00    +0.000 A 
ATOM      8  C   UNL     1      46.531   2.361   7.556  0.00  0.00    +0.000 A 
ATOM      9  C   UNL     1      46.503   3.723   7.303  0.00  0.00    +0.000 A 
ATOM     10  N   UNL     1      45.759   4.615   8.011  0.00  0.00    +0.000 NA
ATOM     11  H   UNL     1      44.495   6.008   9.299  0.00  0.00    +0.000 HD
BRANCH   8  12
ATOM     12  C   UNL     1      47.346   1.407   6.772  0.00  0.00    +0.000 C 
ATOM     13  N   UNL     1      48.407   1.903   6.067  0.00  0.00    +0.000 N 
ATOM     14  O   UNL     1      47.059   0.217   6.727  0.00  0.00    +0.000 OA
ATOM     15  H   UNL     1      48.543   2.887   5.876  0.00  0.00    +0.000 HD
ATOM     16  H   UNL     1      48.883   1.247   5.460  0.00  0.00    +0.000 HD
ENDBRANCH   8  12
ENDBRANCH   1   4
BRANCH   1  21
ATOM     17  C   UNL     1      47.193   6.605  12.508  0.00  0.00    +0.000 A 
ATOM     18  C   UNL     1      47.386   5.820  13.650  0.00  0.00    +0.000 A 
ATOM     19  C   UNL     1      46.489   4.801  13.979  0.00  0.00    +0.000 A 
ATOM     20  C   UNL     1      45.374   4.560  13.175  0.00  0.00    +0.000 A 
ATOM     21  C   UNL     1      45.138   5.313  12.013  0.00  0.00    +0.000 A 
ATOM     22  C   UNL     1      46.071   6.311  11.701  0.00  0.00    +0.000 A 
BRANCH  17  27
ATOM     23  C   UNL     1      50.326   8.515  11.550  0.00  0.00    +0.000 A 
ATOM     24  C   UNL     1      49.801   9.798  11.547  0.00  0.00    +0.000 A 
ATOM     25  N   UNL     1      48.501  10.090  11.782  0.00  0.00    +0.000 NA
ATOM     26  C   UNL     1      47.689   9.043  12.070  0.00  0.00    +0.000 A 
ATOM     27  C   UNL     1      48.099   7.710  12.134  0.00  0.00    +0.000 A 
ATOM     28  C   UNL     1      49.455   7.470  11.845  0.00  0.00    +0.000 A 
BRANCH  23  30
ATOM     29  C   UNL     1      52.023   7.465  10.284  0.00  0.00    +0.000 C 
ATOM     30  O   UNL     1      51.664   8.386  11.312  0.00  0.00    +0.000 OA
ENDBRANCH  23  30
ENDBRANCH  17  27
ENDBRANCH   1  21
TORSDOF 5
ENDMDL
MODEL 2
REMARK VINA RESULT:    -9.233      2.732      4.109
REMARK INTER + INTRA:         -12.902
REMARK INTER:                 -12.024
REMARK INTRA:                  -0.878
REMARK UNBOUND:                -0.971
REMARK  Name = 
REMARK  6 active torsions:
REMARK  status: ('A' for Active; 'I' for Inactive)
REMARK    1  A    between atoms: C_1  and  O_2
REMARK    2  A    between atoms: O_2  and  C_3
REMARK    3  A    between atoms: C_7  and  C_8
REMARK    4  A    between atoms: C_12  and  C_13
REMARK    5  A    between atoms: C_13  and  N_14
REMARK    6  A    between atoms: C_18  and  C_19
REMARK                            x       y       z     vdW  Elec       q    Type
REMARK                         _______ _______ _______ _____ _____    ______ ____
ROOT
ATOM      1  C   UNL     1      43.919   5.147  11.154  0.00  0.00    +0.000 C 
ATOM      2  C   UNL     1      42.535   5.536  11.654  0.00  0.00    +0.000 C 
ATOM      3  C   UNL     1      43.007   4.132  11.822  0.00  0.00    +0.000 C 
ENDROOT
BRANCH   1   4
ATOM      4  N   UNL     1      44.138   5.104   9.694  0.00  0.00    +0.000 N 
ATOM      5  C   UNL     1      44.949   4.152   9.057  0.00  0.00    +0.000 A 
ATOM      6  C   UNL     1      45.020   2.820   9.455  0.00  0.00    +0.000 A 
ATOM      7  C   UNL     1      45.779   1.911   8.712  0.00  0.00    +0.000 A 
ATOM      8  C   UNL     1      46.458   2.348   7.579  0.00  0.00    +0.000 A 
ATOM      9  C   UNL     1      46.356   3.692   7.260  0.00  0.00    +0.000 A 
ATOM     10  N   UNL     1      45.612   4.588   7.963  0.00  0.00    +0.000 NA
ATOM     11  H   UNL     1      44.359   5.993   9.250  0.00  0.00    +0.000 HD
BRANCH   8  12
ATOM     12  C   UNL     1      47.271   1.388   6.798  0.00  0.00    +0.000 C 
ATOM     13  N   UNL     1      48.276   1.891   6.018  0.00  0.00    +0.000 N 
ATOM     14  O   UNL     1      47.030   0.188   6.821  0.00  0.00    +0.000 OA
ATOM     15  H   UNL     1      48.362   2.868   5.776  0.00  0.00    +0.000 HD
ATOM     16  H   UNL     1      48.746   1.225   5.418  0.00  0.00    +0.000 HD
ENDBRANCH   8  12
ENDBRANCH   1   4
BRANCH   1  21
ATOM     17  C   UNL     1      46.772   5.489  13.744  0.00  0.00    +0.000 A 
ATOM     18  C   UNL     1      47.319   6.722  13.371  0.00  0.00    +0.000 A 
ATOM     19  C   UNL     1      46.779   7.455  12.311  0.00  0.00    +0.000 A 
ATOM     20  C   UNL     1      45.688   6.957  11.597  0.00  0.00    +0.000 A 
ATOM     21  C   UNL     1      45.096   5.729  11.934  0.00  0.00    +0.000 A 
ATOM     22  C   UNL     1      45.649   5.032  13.018  0.00  0.00    +0.000 A 
BRANCH  17  27
ATOM     23  C   UNL     1      48.341   4.494  17.049  0.00  0.00    +0.000 A 
ATOM     24  C   UNL     1      48.458   3.131  16.828  0.00  0.00    +0.000 A 
ATOM     25  N   UNL     1      48.025   2.499  15.712  0.00  0.00    +0.000 NA
ATOM     26  C   UNL     1      47.475   3.282  14.750  0.00  0.00    +0.000 A 
ATOM     27  C   UNL     1      47.325   4.666  14.838  0.00  0.00    +0.000 A 
ATOM     28  C   UNL     1      47.764   5.257  16.039  0.00  0.00    +0.000 A 
BRANCH  23  30
ATOM     29  C   UNL     1      50.124   4.483  18.599  0.00  0.00    +0.000 C 
ATOM     30  O   UNL     1      48.844   4.982  18.221  0.00  0.00    +0.000 OA
ENDBRANCH  23  30
ENDBRANCH  17  27
ENDBRANCH   1  21
TORSDOF 5
ENDMDL
MODEL 3
REMARK VINA RESULT:    -8.705      2.793      3.783
REMARK INTER + INTRA:         -12.220
REMARK INTER:                 -11.493
REMARK INTRA:                  -0.727
REMARK UNBOUND:                -0.971
REMARK  Name = 
REMARK  6 active torsions:
REMARK  status: ('A' for Active; 'I' for Inactive)
REMARK    1  A    between atoms: C_1  and  O_2
REMARK    2  A    between atoms: O_2  and  C_3
REMARK    3  A    between atoms: C_7  and  C_8
REMARK    4  A    between atoms: C_12  and  C_13
REMARK    5  A    between atoms: C_13  and  N_14
REMARK    6  A    between atoms: C_18  and  C_19
REMARK                            x       y       z     vdW  Elec       q    Type
REMARK                         _______ _______ _______ _____ _____    ______ ____
ROOT
ATOM      1  C   UNL     1      43.723   5.309  11.185  0.00  0.00    +0.000 C 
ATOM      2  C   UNL     1      42.293   5.468  11.682  0.00  0.00    +0.000 C 
ATOM      3  C   UNL     1      43.057   4.235  12.029  0.00  0.00    +0.000 C 
ENDROOT
BRANCH   1   4
ATOM      4  N   UNL     1      43.930   5.097   9.738  0.00  0.00    +0.000 N 
ATOM      5  C   UNL     1      44.734   4.075   9.209  0.00  0.00    +0.000 A 
ATOM      6  C   UNL     1      44.806   2.798   9.758  0.00  0.00    +0.000 A 
ATOM      7  C   UNL     1      45.557   1.808   9.120  0.00  0.00    +0.000 A 
ATOM      8  C   UNL     1      46.228   2.108   7.938  0.00  0.00    +0.000 A 
ATOM      9  C   UNL     1      46.126   3.407   7.467  0.00  0.00    +0.000 A 
ATOM     10  N   UNL     1      45.389   4.380   8.067  0.00  0.00    +0.000 NA
ATOM     11  H   UNL     1      44.149   5.928   9.192  0.00  0.00    +0.000 HD
BRANCH   8  12
ATOM     12  C   UNL     1      47.033   1.063   7.267  0.00  0.00    +0.000 C 
ATOM     13  N   UNL     1      46.797  -0.240   7.606  0.00  0.00    +0.000 N 
ATOM     14  O   UNL     1      47.908   1.357   6.462  0.00  0.00    +0.000 OA
ATOM     15  H   UNL     1      46.270  -0.521   8.422  0.00  0.00    +0.000 HD
ATOM     16  H   UNL     1      47.431  -0.924   7.211  0.00  0.00    +0.000 HD
ENDBRANCH   8  12
ENDBRANCH   1   4
BRANCH   1  21
ATOM     17  C   UNL     1      46.590   6.569  13.456  0.00  0.00    +0.000 A 
ATOM     18  C   UNL     1      46.733   7.882  12.995  0.00  0.00    +0.000 A 
ATOM     19  C   UNL     1      45.914   8.378  11.977  0.00  0.00    +0.000 A 
ATOM     20  C   UNL     1      44.946   7.559  11.393  0.00  0.00    +0.000 A 
ATOM     21  C   UNL     1      44.755   6.236  11.823  0.00  0.00    +0.000 A 
ATOM     22  C   UNL     1      45.579   5.780  12.863  0.00  0.00    +0.000 A 
BRANCH  17  27
ATOM     23  C   UNL     1      47.919   4.227  16.126  0.00  0.00    +0.000 A 
ATOM     24  C   UNL     1      48.999   4.983  16.554  0.00  0.00    +0.000 A 
ATOM     25  N   UNL     1      49.362   6.169  16.012  0.00  0.00    +0.000 NA
ATOM     26  C   UNL     1      48.579   6.641  15.011  0.00  0.00    +0.000 A 
ATOM     27  C   UNL     1      47.449   5.993  14.510  0.00  0.00    +0.000 A 
ATOM     28  C   UNL     1      47.147   4.747  15.091  0.00  0.00    +0.000 A 
BRANCH  23  30
ATOM     29  C   UNL     1      48.822   2.285  17.122  0.00  0.00    +0.000 C 
ATOM     30  O   UNL     1      47.673   3.058  16.787  0.00  0.00    +0.000 OA
ENDBRANCH  23  30
ENDBRANCH  17  27
ENDBRANCH   1  21
TORSDOF 5
ENDMDL
MODEL 4
REMARK VINA RESULT:    -7.724      1.863      2.467
REMARK INTER + INTRA:         -10.952
REMARK INTER:                 -10.589
REMARK INTRA:                  -0.363
REMARK UNBOUND:                -0.971
REMARK  Name = 
REMARK  6 active torsions:
REMARK  status: ('A' for Active; 'I' for Inactive)
REMARK    1  A    between atoms: C_1  and  O_2
REMARK    2  A    between atoms: O_2  and  C_3
REMARK    3  A    between atoms: C_7  and  C_8
REMARK    4  A    between atoms: C_12  and  C_13
REMARK    5  A    between atoms: C_13  and  N_14
REMARK    6  A    between atoms: C_18  and  C_19
REMARK                            x       y       z     vdW  Elec       q    Type
REMARK                         _______ _______ _______ _____ _____    ______ ____
ROOT
ATOM      1  C   UNL     1      43.974   5.251  11.162  0.00  0.00    +0.000 C 
ATOM      2  C   UNL     1      42.658   4.891  11.839  0.00  0.00    +0.000 C 
ATOM      3  C   UNL     1      43.858   4.038  12.070  0.00  0.00    +0.000 C 
ENDROOT
BRANCH   1   4
ATOM      4  N   UNL     1      44.066   5.079   9.699  0.00  0.00    +0.000 N 
ATOM      5  C   UNL     1      44.903   4.140   9.077  0.00  0.00    +0.000 A 
ATOM      6  C   UNL     1      45.134   2.865   9.587  0.00  0.00    +0.000 A 
ATOM      7  C   UNL     1      45.906   1.954   8.861  0.00  0.00    +0.000 A 
ATOM      8  C   UNL     1      46.438   2.330   7.632  0.00  0.00    +0.000 A 
ATOM      9  C   UNL     1      46.182   3.622   7.202  0.00  0.00    +0.000 A 
ATOM     10  N   UNL     1      45.422   4.518   7.888  0.00  0.00    +0.000 NA
ATOM     11  H   UNL     1      44.162   5.934   9.154  0.00  0.00    +0.000 HD
BRANCH   8  12
ATOM     12  C   UNL     1      47.265   1.369   6.868  0.00  0.00    +0.000 C 
ATOM     13  N   UNL     1      48.313   1.866   6.143  0.00  0.00    +0.000 N 
ATOM     14  O   UNL     1      46.999   0.174   6.856  0.00  0.00    +0.000 OA
ATOM     15  H   UNL     1      48.430   2.846   5.924  0.00  0.00    +0.000 HD
ATOM     16  H   UNL     1      48.796   1.202   5.550  0.00  0.00    +0.000 HD
ENDBRANCH   8  12
ENDBRANCH   1   4
BRANCH   1  21
ATOM     17  C   UNL     1      46.522   7.552  12.944  0.00  0.00    +0.000 A 
ATOM     18  C   UNL     1      46.024   8.813  12.599  0.00  0.00    +0.000 A 
ATOM     19  C   UNL     1      44.873   8.939  11.816  0.00  0.00    +0.000 A 
ATOM     20  C   UNL     1      44.210   7.802  11.354  0.00  0.00    +0.000 A 
ATOM     21  C   UNL     1      44.663   6.513  11.677  0.00  0.00    +0.000 A 
ATOM     22  C   UNL     1      45.807   6.424  12.484  0.00  0.00    +0.000 A 
BRANCH  17  27
ATOM     23  C   UNL     1      50.035   8.018  14.294  0.00  0.00    +0.000 A 
ATOM     24  C   UNL     1      50.071   6.944  15.169  0.00  0.00    +0.000 A 
ATOM     25  N   UNL     1      49.031   6.108  15.394  0.00  0.00    +0.000 NA
ATOM     26  C   UNL     1      47.903   6.341  14.678  0.00  0.00    +0.000 A 
ATOM     27  C   UNL     1      47.749   7.368  13.745  0.00  0.00    +0.000 A 
ATOM     28  C   UNL     1      48.856   8.222  13.584  0.00  0.00    +0.000 A 
BRANCH  23  30
ATOM     29  C   UNL     1      51.019  10.029  13.538  0.00  0.00    +0.000 C 
ATOM     30  O   UNL     1      51.175   8.758  14.164  0.00  0.00    +0.000 OA
ENDBRANCH  23  30
ENDBRANCH  17  27
ENDBRANCH   1  21
TORSDOF 5
ENDMDL
MODEL 5
REMARK VINA RESULT:    -7.069      5.144      8.344
REMARK INTER + INTRA:         -10.106
REMARK INTER:                  -9.167
REMARK INTRA:                  -0.938
REMARK UNBOUND:                -0.971
REMARK  Name = 
REMARK  6 active torsions:
REMARK  status: ('A' for Active; 'I' for Inactive)
REMARK    1  A    between atoms: C_1  and  O_2
REMARK    2  A    between atoms: O_2  and  C_3
REMARK    3  A    between atoms: C_7  and  C_8
REMARK    4  A    between atoms: C_12  and  C_13
REMARK    5  A    between atoms: C_13  and  N_14
REMARK    6  A    between atoms: C_18  and  C_19
REMARK                            x       y       z     vdW  Elec       q    Type
REMARK                         _______ _______ _______ _____ _____    ______ ____
ROOT
ATOM      1  C   UNL     1      49.044   7.191  16.699  0.00  0.00    +0.000 C 
ATOM      2  C   UNL     1      48.424   8.421  17.348  0.00  0.00    +0.000 C 
ATOM      3  C   UNL     1      49.896   8.203  17.445  0.00  0.00    +0.000 C 
ENDROOT
BRANCH   1   4
ATOM      4  N   UNL     1      48.755   5.874  17.302  0.00  0.00    +0.000 N 
ATOM      5  C   UNL     1      49.674   4.814  17.334  0.00  0.00    +0.000 A 
ATOM      6  C   UNL     1      51.040   4.992  17.538  0.00  0.00    +0.000 A 
ATOM      7  C   UNL     1      51.878   3.880  17.650  0.00  0.00    +0.000 A 
ATOM      8  C   UNL     1      51.339   2.601  17.557  0.00  0.00    +0.000 A 
ATOM      9  C   UNL     1      49.975   2.505  17.332  0.00  0.00    +0.000 A 
ATOM     10  N   UNL     1      49.142   3.576  17.233  0.00  0.00    +0.000 NA
ATOM     11  H   UNL     1      47.862   5.454  17.049  0.00  0.00    +0.000 HD
BRANCH   8  12
ATOM     12  C   UNL     1      52.228   1.422  17.664  0.00  0.00    +0.000 C 
ATOM     13  N   UNL     1      51.675   0.241  18.073  0.00  0.00    +0.000 N 
ATOM     14  O   UNL     1      53.427   1.510  17.429  0.00  0.00    +0.000 OA
ATOM     15  H   UNL     1      50.764   0.168  18.505  0.00  0.00    +0.000 HD
ATOM     16  H   UNL     1      52.323  -0.520  18.237  0.00  0.00    +0.000 HD
ENDBRANCH   8  12
ENDBRANCH   1   4
BRANCH   1  21
ATOM     17  C   UNL     1      47.940   6.563  13.045  0.00  0.00    +0.000 A 
ATOM     18  C   UNL     1      48.981   7.184  12.346  0.00  0.00    +0.000 A 
ATOM     19  C   UNL     1      50.042   7.788  13.026  0.00  0.00    +0.000 A 
ATOM     20  C   UNL     1      50.069   7.793  14.421  0.00  0.00    +0.000 A 
ATOM     21  C   UNL     1      49.054   7.178  15.172  0.00  0.00    +0.000 A 
ATOM     22  C   UNL     1      48.018   6.560  14.456  0.00  0.00    +0.000 A 
BRANCH  17  27
ATOM     23  C   UNL     1      45.037   4.235  12.314  0.00  0.00    +0.000 A 
ATOM     24  C   UNL     1      44.705   4.699  11.051  0.00  0.00    +0.000 A 
ATOM     25  N   UNL     1      45.315   5.739  10.436  0.00  0.00    +0.000 NA
ATOM     26  C   UNL     1      46.336   6.325  11.109  0.00  0.00    +0.000 A 
ATOM     27  C   UNL     1      46.786   5.935  12.371  0.00  0.00    +0.000 A 
ATOM     28  C   UNL     1      46.087   4.870  12.971  0.00  0.00    +0.000 A 
BRANCH  23  30
ATOM     29  C   UNL     1      43.386   2.599  11.893  0.00  0.00    +0.000 C 
ATOM     30  O   UNL     1      44.339   3.164  12.791  0.00  0.00    +0.000 OA
ENDBRANCH  23  30
ENDBRANCH  17  27
ENDBRANCH   1  21
TORSDOF 5
ENDMDL
MODEL 6
REMARK VINA RESULT:    -6.878      3.411      8.122
REMARK INTER + INTRA:          -9.859
REMARK INTER:                  -8.879
REMARK INTRA:                  -0.980
REMARK UNBOUND:                -0.971
REMARK  Name = 
REMARK  6 active torsions:
REMARK  status: ('A' for Active; 'I' for Inactive)
REMARK    1  A    between atoms: C_1  and  O_2
REMARK    2  A    between atoms: O_2  and  C_3
REMARK    3  A    between atoms: C_7  and  C_8
REMARK    4  A    between atoms: C_12  and  C_13
REMARK    5  A    between atoms: C_13  and  N_14
REMARK    6  A    between atoms: C_18  and  C_19
REMARK                            x       y       z     vdW  Elec       q    Type
REMARK                         _______ _______ _______ _____ _____    ______ ____
ROOT
ATOM      1  C   UNL     1      49.093   8.433  12.648  0.00  0.00    +0.000 C 
ATOM      2  C   UNL     1      49.844   9.181  11.556  0.00  0.00    +0.000 C 
ATOM      3  C   UNL     1      50.131   7.736  11.785  0.00  0.00    +0.000 C 
ENDROOT
BRANCH   1   4
ATOM      4  N   UNL     1      49.399   8.772  14.053  0.00  0.00    +0.000 N 
ATOM      5  C   UNL     1      48.999   7.990  15.147  0.00  0.00    +0.000 A 
ATOM      6  C   UNL     1      48.981   6.598  15.126  0.00  0.00    +0.000 A 
ATOM      7  C   UNL     1      48.659   5.889  16.286  0.00  0.00    +0.000 A 
ATOM      8  C   UNL     1      48.359   6.582  17.455  0.00  0.00    +0.000 A 
ATOM      9  C   UNL     1      48.377   7.966  17.390  0.00  0.00    +0.000 A 
ATOM     10  N   UNL     1      48.700   8.673  16.274  0.00  0.00    +0.000 NA
ATOM     11  H   UNL     1      49.224   9.737  14.327  0.00  0.00    +0.000 HD
BRANCH   8  12
ATOM     12  C   UNL     1      48.007   5.831  18.681  0.00  0.00    +0.000 C 
ATOM     13  N   UNL     1      46.687   5.553  18.901  0.00  0.00    +0.000 N 
ATOM     14  O   UNL     1      48.866   5.502  19.490  0.00  0.00    +0.000 OA
ATOM     15  H   UNL     1      45.928   6.000  18.404  0.00  0.00    +0.000 HD
ATOM     16  H   UNL     1      46.465   5.131  19.795  0.00  0.00    +0.000 HD
ENDBRANCH   8  12
ENDBRANCH   1   4
BRANCH   1  21
ATOM     17  C   UNL     1      45.822   6.711  11.509  0.00  0.00    +0.000 A 
ATOM     18  C   UNL     1      44.871   7.644  11.936  0.00  0.00    +0.000 A 
ATOM     19  C   UNL     1      45.261   8.826  12.572  0.00  0.00    +0.000 A 
ATOM     20  C   UNL     1      46.612   9.086  12.802  0.00  0.00    +0.000 A 
ATOM     21  C   UNL     1      47.608   8.188  12.386  0.00  0.00    +0.000 A 
ATOM     22  C   UNL     1      47.182   7.023  11.730  0.00  0.00    +0.000 A 
BRANCH  17  27
ATOM     23  C   UNL     1      45.262   4.068   8.848  0.00  0.00    +0.000 A 
ATOM     24  C   UNL     1      44.665   3.096   9.636  0.00  0.00    +0.000 A 
ATOM     25  N   UNL     1      44.475   3.208  10.971  0.00  0.00    +0.000 NA
ATOM     26  C   UNL     1      44.871   4.372  11.543  0.00  0.00    +0.000 A 
ATOM     27  C   UNL     1      45.456   5.437  10.857  0.00  0.00    +0.000 A 
ATOM     28  C   UNL     1      45.659   5.244   9.478  0.00  0.00    +0.000 A 
BRANCH  23  30
ATOM     29  C   UNL     1      46.674   3.484   7.046  0.00  0.00    +0.000 C 
ATOM     30  O   UNL     1      45.367   3.812   7.511  0.00  0.00    +0.000 OA
ENDBRANCH  23  30
ENDBRANCH  17  27
ENDBRANCH   1  21
TORSDOF 5
ENDMDL
MODEL 7
REMARK VINA RESULT:    -6.652      2.319      3.234
REMARK INTER + INTRA:          -9.567
REMARK INTER:                  -9.270
REMARK INTRA:                  -0.297
REMARK UNBOUND:                -0.971
REMARK  Name = 
REMARK  6 active torsions:
REMARK  status: ('A' for Active; 'I' for Inactive)
REMARK    1  A    between atoms: C_1  and  O_2
REMARK    2  A    between atoms: O_2  and  C_3
REMARK    3  A    between atoms: C_7  and  C_8
REMARK    4  A    between atoms: C_12  and  C_13
REMARK    5  A    between atoms: C_13  and  N_14
REMARK    6  A    between atoms: C_18  and  C_19
REMARK                            x       y       z     vdW  Elec       q    Type
REMARK                         _______ _______ _______ _____ _____    ______ ____
ROOT
ATOM      1  C   UNL     1      43.960   5.237  11.986  0.00  0.00    +0.000 C 
ATOM      2  C   UNL     1      42.588   5.460  11.365  0.00  0.00    +0.000 C 
ATOM      3  C   UNL     1      42.691   5.124  12.814  0.00  0.00    +0.000 C 
ENDROOT
BRANCH   1   4
ATOM      4  N   UNL     1      44.705   4.022  11.597  0.00  0.00    +0.000 N 
ATOM      5  C   UNL     1      45.143   3.764  10.289  0.00  0.00    +0.000 A 
ATOM      6  C   UNL     1      45.628   4.752   9.437  0.00  0.00    +0.000 A 
ATOM      7  C   UNL     1      46.133   4.403   8.182  0.00  0.00    +0.000 A 
ATOM      8  C   UNL     1      46.148   3.066   7.795  0.00  0.00    +0.000 A 
ATOM      9  C   UNL     1      45.629   2.145   8.689  0.00  0.00    +0.000 A 
ATOM     10  N   UNL     1      45.144   2.464   9.919  0.00  0.00    +0.000 NA
ATOM     11  H   UNL     1      44.329   3.140  11.938  0.00  0.00    +0.000 HD
BRANCH   8  12
ATOM     12  C   UNL     1      46.673   2.696   6.461  0.00  0.00    +0.000 C 
ATOM     13  N   UNL     1      46.809   3.689   5.531  0.00  0.00    +0.000 N 
ATOM     14  O   UNL     1      46.942   1.533   6.187  0.00  0.00    +0.000 OA
ATOM     15  H   UNL     1      46.383   4.602   5.619  0.00  0.00    +0.000 HD
ATOM     16  H   UNL     1      47.070   3.392   4.599  0.00  0.00    +0.000 HD
ENDBRANCH   8  12
ENDBRANCH   1   4
BRANCH   1  21
ATOM     17  C   UNL     1      46.880   7.547  13.034  0.00  0.00    +0.000 A 
ATOM     18  C   UNL     1      46.543   8.722  12.353  0.00  0.00    +0.000 A 
ATOM     19  C   UNL     1      45.386   8.792  11.573  0.00  0.00    +0.000 A 
ATOM     20  C   UNL     1      44.552   7.679  11.453  0.00  0.00    +0.000 A 
ATOM     21  C   UNL     1      44.839   6.478  12.121  0.00  0.00    +0.000 A 
ATOM     22  C   UNL     1      45.996   6.452  12.914  0.00  0.00    +0.000 A 
BRANCH  17  27
ATOM     23  C   UNL     1      49.349   6.327  15.641  0.00  0.00    +0.000 A 
ATOM     24  C   UNL     1      50.355   7.258  15.434  0.00  0.00    +0.000 A 
ATOM     25  N   UNL     1      50.319   8.221  14.483  0.00  0.00    +0.000 NA
ATOM     26  C   UNL     1      49.199   8.275  13.720  0.00  0.00    +0.000 A 
ATOM     27  C   UNL     1      48.106   7.417  13.847  0.00  0.00    +0.000 A 
ATOM     28  C   UNL     1      48.221   6.417  14.831  0.00  0.00    +0.000 A 
BRANCH  23  30
ATOM     29  C   UNL     1      48.429   4.556  16.905  0.00  0.00    +0.000 C 
ATOM     30  O   UNL     1      49.527   5.429  16.654  0.00  0.00    +0.000 OA
ENDBRANCH  23  30
ENDBRANCH  17  27
ENDBRANCH   1  21
TORSDOF 5
ENDMDL
