MODEL 1
REMARK VINA RESULT:    -7.946      0.000      0.000
REMARK INTER + INTRA:         -12.370
REMARK INTER:                 -11.661
REMARK INTRA:                  -0.709
REMARK UNBOUND:                -0.709
REMARK  Name = 
REMARK  9 active torsions:
REMARK  status: ('A' for Active; 'I' for Inactive)
REMARK    1  A    between atoms: C_1  and  C_2
REMARK    2  A    between atoms: C_2  and  N_3
REMARK    3  A    between atoms: C_2  and  C_19
REMARK    4  A    between atoms: N_3  and  C_4
REMARK    5  A    between atoms: C_4  and  C_5
REMARK    6  A    between atoms: C_8  and  C_9
REMARK    7  A    between atoms: C_9  and  N_10
REMARK    8  A    between atoms: N_10  and  C_11
REMARK    9  A    between atoms: C_11  and  C_12
REMARK                            x       y       z     vdW  Elec       q    Type
REMARK                         _______ _______ _______ _____ _____    ______ ____
ROOT
ATOM      1  C   UNL     1      47.655   5.450  14.710  0.00  0.00    +0.000 C 
ENDROOT
BRANCH   1   2
ATOM      2  C   UNL     1      46.675   5.039  13.629  0.00  0.00    +0.000 A 
ATOM      3  C   UNL     1      46.401   3.683  13.390  0.00  0.00    +0.000 A 
ATOM      4  C   UNL     1      45.550   3.299  12.351  0.00  0.00    +0.000 A 
ATOM      5  C   UNL     1      44.930   4.260  11.542  0.00  0.00    +0.000 A 
ATOM      6  C   UNL     1      45.173   5.615  11.802  0.00  0.00    +0.000 A 
ATOM      7  C   UNL     1      46.040   6.000  12.830  0.00  0.00    +0.000 A 
BRANCH   5   8
ATOM      8  C   UNL     1      44.040   3.839  10.395  0.00  0.00    +0.000 C 
BRANCH   8   9
ATOM      9  N   UNL     1      44.826   3.623   9.179  0.00  0.00    +0.000 NA
ATOM     10  H   UNL     1      45.744   4.045   9.326  0.00  0.00    +0.000 HD
BRANCH   9  11
ATOM     11  C   UNL     1      45.009   2.198   8.918  0.00  0.00    +0.000 C 
BRANCH  11  12
ATOM     12  C   UNL     1      46.188   2.014   8.037  0.00  0.00    +0.000 A 
ATOM     13  C   UNL     1      46.874   0.897   7.613  0.00  0.00    +0.000 A 
ATOM     14  N   UNL     1      47.918   1.244   6.792  0.00  0.00    +0.000 NA
ATOM     15  C   UNL     1      47.873   2.555   6.709  0.00  0.00    +0.000 A 
ATOM     16  N   UNL     1      46.837   3.063   7.432  0.00  0.00    +0.000 N 
ATOM     17  H   UNL     1      46.593   4.038   7.553  0.00  0.00    +0.000 HD
ENDBRANCH  11  12
ENDBRANCH   9  11
ENDBRANCH   8   9
ENDBRANCH   5   8
ENDBRANCH   1   2
BRANCH   1  18
ATOM     18  N   UNL     1      47.196   4.977  16.013  0.00  0.00    +0.000 NA
ATOM     19  H   UNL     1      47.296   5.738  16.681  0.00  0.00    +0.000 HD
BRANCH  18  21
ATOM     20  C   UNL     1      47.033   2.917  17.410  0.00  0.00    +0.000 C 
ATOM     21  C   UNL     1      47.923   3.818  16.548  0.00  0.00    +0.000 C 
BRANCH  21  22
ATOM     22  C   UNL     1      49.072   4.379  17.380  0.00  0.00    +0.000 A 
ATOM     23  C   UNL     1      49.058   5.627  17.989  0.00  0.00    +0.000 A 
ATOM     24  S   UNL     1      50.487   5.988  18.845  0.00  0.00    +0.000 S 
ATOM     25  C   UNL     1      51.163   4.473  18.468  0.00  0.00    +0.000 A 
ATOM     26  N   UNL     1      52.395   4.123  18.925  0.00  0.00    +0.000 NA
ATOM     27  C   UNL     1      52.766   2.932  18.587  0.00  0.00    +0.000 A 
ATOM     28  N   UNL     1      52.023   2.066  17.825  0.00  0.00    +0.000 N 
ATOM     29  C   UNL     1      50.792   2.392  17.299  0.00  0.00    +0.000 A 
ATOM     30  O   UNL     1      50.177   1.618  16.572  0.00  0.00    +0.000 OA
ATOM     31  C   UNL     1      50.317   3.710  17.681  0.00  0.00    +0.000 A 
ATOM     32  H   UNL     1      52.381   1.152  17.591  0.00  0.00    +0.000 HD
ENDBRANCH  21  22
ENDBRANCH  18  21
ENDBRANCH   1  18
TORSDOF 8
ENDMDL
MODEL 2
REMARK VINA RESULT:    -7.463      2.191      2.617
REMARK INTER + INTRA:         -11.662
REMARK INTER:                 -10.792
REMARK INTRA:                  -0.870
REMARK UNBOUND:                -0.709
REMARK  Name = 
REMARK  9 active torsions:
REMARK  status: ('A' for Active; 'I' for Inactive)
REMARK    1  A    between atoms: C_1  and  C_2
REMARK    2  A    between atoms: C_2  and  N_3
REMARK    3  A    between atoms: C_2  and  C_19
REMARK    4  A    between atoms: N_3  and  C_4
REMARK    5  A    between atoms: C_4  and  C_5
REMARK    6  A    between atoms: C_8  and  C_9
REMARK    7  A    between atoms: C_9  and  N_10
REMARK    8  A    between atoms: N_10  and  C_11
REMARK    9  A    between atoms: C_11  and  C_12
REMARK                            x       y       z     vdW  Elec       q    Type
REMARK                         _______ _______ _______ _____ _____    ______ ____
ROOT
ATOM      1  C   UNL     1      47.618   5.617  14.338  0.00  0.00    +0.000 C 
ENDROOT
BRANCH   1   2
ATOM      2  C   UNL     1      46.718   5.188  13.196  0.00  0.00    +0.000 A 
ATOM      3  C   UNL     1      46.441   6.065  12.136  0.00  0.00    +0.000 A 
ATOM      4  C   UNL     1      45.558   5.698  11.117  0.00  0.00    +0.000 A 
ATOM      5  C   UNL     1      44.951   4.435  11.118  0.00  0.00    +0.000 A 
ATOM      6  C   UNL     1      45.255   3.544  12.155  0.00  0.00    +0.000 A 
ATOM      7  C   UNL     1      46.124   3.919  13.186  0.00  0.00    +0.000 A 
BRANCH   5   8
ATOM      8  C   UNL     1      43.968   4.056  10.034  0.00  0.00    +0.000 C 
BRANCH   8   9
ATOM      9  N   UNL     1      44.667   3.679   8.806  0.00  0.00    +0.000 NA
ATOM     10  H   UNL     1      45.540   4.206   8.774  0.00  0.00    +0.000 HD
BRANCH   9  11
ATOM     11  C   UNL     1      44.988   2.254   8.800  0.00  0.00    +0.000 C 
BRANCH  11  12
ATOM     12  C   UNL     1      46.199   2.032   7.972  0.00  0.00    +0.000 A 
ATOM     13  C   UNL     1      46.886   0.896   7.604  0.00  0.00    +0.000 A 
ATOM     14  N   UNL     1      47.967   1.210   6.818  0.00  0.00    +0.000 NA
ATOM     15  C   UNL     1      47.943   2.518   6.701  0.00  0.00    +0.000 A 
ATOM     16  N   UNL     1      46.886   3.058   7.368  0.00  0.00    +0.000 N 
ATOM     17  H   UNL     1      46.650   4.038   7.455  0.00  0.00    +0.000 HD
ENDBRANCH  11  12
ENDBRANCH   9  11
ENDBRANCH   8   9
ENDBRANCH   5   8
ENDBRANCH   1   2
BRANCH   1  18
ATOM     18  N   UNL     1      47.085   5.132  15.608  0.00  0.00    +0.000 NA
ATOM     19  H   UNL     1      46.657   5.918  16.095  0.00  0.00    +0.000 HD
BRANCH  18  21
ATOM     20  C   UNL     1      47.666   3.138  16.989  0.00  0.00    +0.000 C 
ATOM     21  C   UNL     1      48.075   4.536  16.515  0.00  0.00    +0.000 C 
BRANCH  21  22
ATOM     22  C   UNL     1      48.197   5.484  17.703  0.00  0.00    +0.000 A 
ATOM     23  C   UNL     1      47.303   5.521  18.766  0.00  0.00    +0.000 A 
ATOM     24  S   UNL     1      47.688   6.690  19.944  0.00  0.00    +0.000 S 
ATOM     25  C   UNL     1      49.086   7.165  19.099  0.00  0.00    +0.000 A 
ATOM     26  N   UNL     1      49.904   8.135  19.588  0.00  0.00    +0.000 NA
ATOM     27  C   UNL     1      50.944   8.369  18.855  0.00  0.00    +0.000 A 
ATOM     28  N   UNL     1      51.231   7.729  17.676  0.00  0.00    +0.000 N 
ATOM     29  C   UNL     1      50.410   6.775  17.116  0.00  0.00    +0.000 A 
ATOM     30  O   UNL     1      50.664   6.263  16.030  0.00  0.00    +0.000 OA
ATOM     31  C   UNL     1      49.245   6.454  17.921  0.00  0.00    +0.000 A 
ATOM     32  H   UNL     1      52.058   7.971  17.150  0.00  0.00    +0.000 HD
ENDBRANCH  21  22
ENDBRANCH  18  21
ENDBRANCH   1  18
TORSDOF 8
ENDMDL
MODEL 3
REMARK VINA RESULT:    -7.356      2.628      3.413
REMARK INTER + INTRA:         -11.505
REMARK INTER:                 -10.790
REMARK INTRA:                  -0.715
REMARK UNBOUND:                -0.709
REMARK  Name = 
REMARK  9 active torsions:
REMARK  status: ('A' for Active; 'I' for Inactive)
REMARK    1  A    between atoms: C_1  and  C_2
REMARK    2  A    between atoms: C_2  and  N_3
REMARK    3  A    between atoms: C_2  and  C_19
REMARK    4  A    between atoms: N_3  and  C_4
REMARK    5  A    between atoms: C_4  and  C_5
REMARK    6  A    between atoms: C_8  and  C_9
REMARK    7  A    between atoms: C_9  and  N_10
REMARK    8  A    between atoms: N_10  and  C_11
REMARK    9  A    between atoms: C_11  and  C_12
REMARK                            x       y       z     vdW  Elec       q    Type
REMARK                         _______ _______ _______ _____ _____    ______ ____
ROOT
ATOM      1  C   UNL     1      47.950   6.761  13.489  0.00  0.00    +0.000 C 
ENDROOT
BRANCH   1   2
ATOM      2  C   UNL     1      46.928   5.890  12.786  0.00  0.00    +0.000 A 
ATOM      3  C   UNL     1      46.549   4.652  13.329  0.00  0.00    +0.000 A 
ATOM      4  C   UNL     1      45.660   3.817  12.650  0.00  0.00    +0.000 A 
ATOM      5  C   UNL     1      45.104   4.209  11.424  0.00  0.00    +0.000 A 
ATOM      6  C   UNL     1      45.452   5.460  10.899  0.00  0.00    +0.000 A 
ATOM      7  C   UNL     1      46.359   6.289  11.569  0.00  0.00    +0.000 A 
BRANCH   5   8
ATOM      8  C   UNL     1      44.171   3.286  10.674  0.00  0.00    +0.000 C 
BRANCH   8   9
ATOM      9  N   UNL     1      44.919   2.416   9.767  0.00  0.00    +0.000 NA
ATOM     10  H   UNL     1      44.402   1.539   9.686  0.00  0.00    +0.000 HD
BRANCH   9  11
ATOM     11  C   UNL     1      45.027   3.012   8.438  0.00  0.00    +0.000 C 
BRANCH  11  12
ATOM     12  C   UNL     1      46.252   2.501   7.775  0.00  0.00    +0.000 A 
ATOM     13  C   UNL     1      46.816   1.247   7.689  0.00  0.00    +0.000 A 
ATOM     14  N   UNL     1      47.975   1.280   6.955  0.00  0.00    +0.000 NA
ATOM     15  C   UNL     1      48.121   2.534   6.592  0.00  0.00    +0.000 A 
ATOM     16  N   UNL     1      47.098   3.307   7.052  0.00  0.00    +0.000 N 
ATOM     17  H   UNL     1      46.981   4.304   6.931  0.00  0.00    +0.000 HD
ENDBRANCH  11  12
ENDBRANCH   9  11
ENDBRANCH   8   9
ENDBRANCH   5   8
ENDBRANCH   1   2
BRANCH   1  18
ATOM     18  N   UNL     1      48.536   6.040  14.617  0.00  0.00    +0.000 NA
ATOM     19  H   UNL     1      47.865   5.341  14.930  0.00  0.00    +0.000 HD
BRANCH  18  21
ATOM     20  C   UNL     1      50.328   7.383  15.715  0.00  0.00    +0.000 C 
ATOM     21  C   UNL     1      48.886   6.871  15.776  0.00  0.00    +0.000 C 
BRANCH  21  22
ATOM     22  C   UNL     1      48.686   5.995  17.009  0.00  0.00    +0.000 A 
ATOM     23  C   UNL     1      48.924   4.627  17.040  0.00  0.00    +0.000 A 
ATOM     24  S   UNL     1      48.604   3.910  18.552  0.00  0.00    +0.000 S 
ATOM     25  C   UNL     1      48.173   5.407  19.235  0.00  0.00    +0.000 A 
ATOM     26  N   UNL     1      47.808   5.502  20.541  0.00  0.00    +0.000 NA
ATOM     27  C   UNL     1      47.538   6.706  20.930  0.00  0.00    +0.000 A 
ATOM     28  N   UNL     1      47.591   7.818  20.128  0.00  0.00    +0.000 N 
ATOM     29  C   UNL     1      47.909   7.767  18.789  0.00  0.00    +0.000 A 
ATOM     30  O   UNL     1      47.890   8.771  18.083  0.00  0.00    +0.000 OA
ATOM     31  C   UNL     1      48.253   6.438  18.314  0.00  0.00    +0.000 A 
ATOM     32  H   UNL     1      47.358   8.727  20.497  0.00  0.00    +0.000 HD
ENDBRANCH  21  22
ENDBRANCH  18  21
ENDBRANCH   1  18
TORSDOF 8
ENDMDL
MODEL 4
REMARK VINA RESULT:    -7.340      1.774      2.339
REMARK INTER + INTRA:         -11.481
REMARK INTER:                 -10.397
REMARK INTRA:                  -1.085
REMARK UNBOUND:                -0.709
REMARK  Name = 
REMARK  9 active torsions:
REMARK  status: ('A' for Active; 'I' for Inactive)
REMARK    1  A    between atoms: C_1  and  C_2
REMARK    2  A    between atoms: C_2  and  N_3
REMARK    3  A    between atoms: C_2  and  C_19
REMARK    4  A    between atoms: N_3  and  C_4
REMARK    5  A    between atoms: C_4  and  C_5
REMARK    6  A    between atoms: C_8  and  C_9
REMARK    7  A    between atoms: C_9  and  N_10
REMARK    8  A    between atoms: N_10  and  C_11
REMARK    9  A    between atoms: C_11  and  C_12
REMARK                            x       y       z     vdW  Elec       q    Type
REMARK                         _______ _______ _______ _____ _____    ______ ____
ROOT
ATOM      1  C   UNL     1      48.334   6.467  13.763  0.00  0.00    +0.000 C 
ENDROOT
BRANCH   1   2
ATOM      2  C   UNL     1      47.165   5.986  12.926  0.00  0.00    +0.000 A 
ATOM      3  C   UNL     1      46.883   6.578  11.684  0.00  0.00    +0.000 A 
ATOM      4  C   UNL     1      45.767   6.184  10.942  0.00  0.00    +0.000 A 
ATOM      5  C   UNL     1      44.920   5.169  11.409  0.00  0.00    +0.000 A 
ATOM      6  C   UNL     1      45.220   4.553  12.630  0.00  0.00    +0.000 A 
ATOM      7  C   UNL     1      46.326   4.960  13.383  0.00  0.00    +0.000 A 
BRANCH   5   8
ATOM      8  C   UNL     1      43.692   4.772  10.621  0.00  0.00    +0.000 C 
BRANCH   8   9
ATOM      9  N   UNL     1      44.061   4.291   9.290  0.00  0.00    +0.000 NA
ATOM     10  H   UNL     1      44.879   4.821   8.986  0.00  0.00    +0.000 HD
BRANCH   9  11
ATOM     11  C   UNL     1      44.416   2.875   9.323  0.00  0.00    +0.000 C 
BRANCH  11  12
ATOM     12  C   UNL     1      45.550   2.637   8.396  0.00  0.00    +0.000 A 
ATOM     13  C   UNL     1      46.249   3.461   7.542  0.00  0.00    +0.000 A 
ATOM     14  N   UNL     1      47.229   2.764   6.880  0.00  0.00    +0.000 NA
ATOM     15  C   UNL     1      47.137   1.531   7.322  0.00  0.00    +0.000 A 
ATOM     16  N   UNL     1      46.147   1.408   8.249  0.00  0.00    +0.000 N 
ATOM     17  H   UNL     1      45.855   0.565   8.728  0.00  0.00    +0.000 HD
ENDBRANCH  11  12
ENDBRANCH   9  11
ENDBRANCH   8   9
ENDBRANCH   5   8
ENDBRANCH   1   2
BRANCH   1  18
ATOM     18  N   UNL     1      48.197   5.992  15.137  0.00  0.00    +0.000 NA
ATOM     19  H   UNL     1      47.209   5.828  15.321  0.00  0.00    +0.000 HD
BRANCH  18  21
ATOM     20  C   UNL     1      48.592   8.380  15.739  0.00  0.00    +0.000 C 
ATOM     21  C   UNL     1      48.693   6.913  16.168  0.00  0.00    +0.000 C 
BRANCH  21  22
ATOM     22  C   UNL     1      50.149   6.533  16.420  0.00  0.00    +0.000 A 
ATOM     23  C   UNL     1      51.235   7.318  16.051  0.00  0.00    +0.000 A 
ATOM     24  S   UNL     1      52.742   6.633  16.452  0.00  0.00    +0.000 S 
ATOM     25  C   UNL     1      52.001   5.281  17.172  0.00  0.00    +0.000 A 
ATOM     26  N   UNL     1      52.745   4.297  17.745  0.00  0.00    +0.000 NA
ATOM     27  C   UNL     1      52.046   3.349  18.279  0.00  0.00    +0.000 A 
ATOM     28  N   UNL     1      50.675   3.292  18.281  0.00  0.00    +0.000 N 
ATOM     29  C   UNL     1      49.881   4.238  17.673  0.00  0.00    +0.000 A 
ATOM     30  O   UNL     1      48.658   4.128  17.640  0.00  0.00    +0.000 OA
ATOM     31  C   UNL     1      50.621   5.342  17.087  0.00  0.00    +0.000 A 
ATOM     32  H   UNL     1      50.196   2.514  18.710  0.00  0.00    +0.000 HD
ENDBRANCH  21  22
ENDBRANCH  18  21
ENDBRANCH   1  18
TORSDOF 8
ENDMDL
MODEL 5
REMARK VINA RESULT:    -7.225      3.204      9.110
REMARK INTER + INTRA:         -11.313
REMARK INTER:                 -10.387
REMARK INTRA:                  -0.925
REMARK UNBOUND:                -0.709
REMARK  Name = 
REMARK  9 active torsions:
REMARK  status: ('A' for Active; 'I' for Inactive)
REMARK    1  A    between atoms: C_1  and  C_2
REMARK    2  A    between atoms: C_2  and  N_3
REMARK    3  A    between atoms: C_2  and  C_19
REMARK    4  A    between atoms: N_3  and  C_4
REMARK    5  A    between atoms: C_4  and  C_5
REMARK    6  A    between atoms: C_8  and  C_9
REMARK    7  A    between atoms: C_9  and  N_10
REMARK    8  A    between atoms: N_10  and  C_11
REMARK    9  A    between atoms: C_11  and  C_12
REMARK                            x       y       z     vdW  Elec       q    Type
REMARK                         _______ _______ _______ _____ _____    ______ ____
ROOT
ATOM      1  C   UNL     1      47.480   6.758  13.519  0.00  0.00    +0.000 C 
ENDROOT
BRANCH   1   2
ATOM      2  C   UNL     1      47.756   5.905  14.742  0.00  0.00    +0.000 A 
ATOM      3  C   UNL     1      48.661   6.336  15.724  0.00  0.00    +0.000 A 
ATOM      4  C   UNL     1      48.969   5.522  16.817  0.00  0.00    +0.000 A 
ATOM      5  C   UNL     1      48.360   4.270  16.971  0.00  0.00    +0.000 A 
ATOM      6  C   UNL     1      47.429   3.854  16.011  0.00  0.00    +0.000 A 
ATOM      7  C   UNL     1      47.135   4.660  14.905  0.00  0.00    +0.000 A 
BRANCH   5   8
ATOM      8  C   UNL     1      48.724   3.377  18.134  0.00  0.00    +0.000 C 
BRANCH   8   9
ATOM      9  N   UNL     1      50.169   3.154  18.187  0.00  0.00    +0.000 NA
ATOM     10  H   UNL     1      50.397   2.834  19.129  0.00  0.00    +0.000 HD
BRANCH   9  11
ATOM     11  C   UNL     1      50.577   2.122  17.238  0.00  0.00    +0.000 C 
BRANCH  11  12
ATOM     12  C   UNL     1      51.929   1.634  17.603  0.00  0.00    +0.000 A 
ATOM     13  C   UNL     1      53.067   2.273  18.045  0.00  0.00    +0.000 A 
ATOM     14  N   UNL     1      54.086   1.375  18.248  0.00  0.00    +0.000 NA
ATOM     15  C   UNL     1      53.582   0.202  17.940  0.00  0.00    +0.000 A 
ATOM     16  N   UNL     1      52.279   0.305  17.558  0.00  0.00    +0.000 N 
ATOM     17  H   UNL     1      51.668  -0.441  17.252  0.00  0.00    +0.000 HD
ENDBRANCH  11  12
ENDBRANCH   9  11
ENDBRANCH   8   9
ENDBRANCH   5   8
ENDBRANCH   1   2
BRANCH   1  18
ATOM     18  N   UNL     1      46.043   6.827  13.268  0.00  0.00    +0.000 NA
ATOM     19  H   UNL     1      45.593   6.073  13.784  0.00  0.00    +0.000 HD
BRANCH  18  21
ATOM     20  C   UNL     1      44.696   7.813  11.415  0.00  0.00    +0.000 C 
ATOM     21  C   UNL     1      45.648   6.698  11.859  0.00  0.00    +0.000 C 
BRANCH  21  22
ATOM     22  C   UNL     1      44.971   5.338  11.726  0.00  0.00    +0.000 A 
ATOM     23  C   UNL     1      44.242   4.727  12.738  0.00  0.00    +0.000 A 
ATOM     24  S   UNL     1      43.610   3.205  12.304  0.00  0.00    +0.000 S 
ATOM     25  C   UNL     1      44.251   3.323  10.733  0.00  0.00    +0.000 A 
ATOM     26  N   UNL     1      44.048   2.337   9.819  0.00  0.00    +0.000 NA
ATOM     27  C   UNL     1      44.567   2.577   8.658  0.00  0.00    +0.000 A 
ATOM     28  N   UNL     1      45.277   3.706   8.336  0.00  0.00    +0.000 N 
ATOM     29  C   UNL     1      45.548   4.709   9.239  0.00  0.00    +0.000 A 
ATOM     30  O   UNL     1      46.237   5.680   8.937  0.00  0.00    +0.000 OA
ATOM     31  C   UNL     1      44.957   4.500  10.549  0.00  0.00    +0.000 A 
ATOM     32  H   UNL     1      45.661   3.822   7.410  0.00  0.00    +0.000 HD
ENDBRANCH  21  22
ENDBRANCH  18  21
ENDBRANCH   1  18
TORSDOF 8
ENDMDL
MODEL 6
REMARK VINA RESULT:    -7.052      2.580      3.847
REMARK INTER + INTRA:         -11.058
REMARK INTER:                  -9.789
REMARK INTRA:                  -1.269
REMARK UNBOUND:                -0.709
REMARK  Name = 
REMARK  9 active torsions:
REMARK  status: ('A' for Active; 'I' for Inactive)
REMARK    1  A    between atoms: C_1  and  C_2
REMARK    2  A    between atoms: C_2  and  N_3
REMARK    3  A    between atoms: C_2  and  C_19
REMARK    4  A    between atoms: N_3  and  C_4
REMARK    5  A    between atoms: C_4  and  C_5
REMARK    6  A    between atoms: C_8  and  C_9
REMARK    7  A    between atoms: C_9  and  N_10
REMARK    8  A    between atoms: N_10  and  C_11
REMARK    9  A    between atoms: C_11  and  C_12
REMARK                            x       y       z     vdW  Elec       q    Type
REMARK                         _______ _______ _______ _____ _____    ______ ____
ROOT
ATOM      1  C   UNL     1      49.770   7.743  13.631  0.00  0.00    +0.000 C 
ENDROOT
BRANCH   1   2
ATOM      2  C   UNL     1      48.347   7.573  13.136  0.00  0.00    +0.000 A 
ATOM      3  C   UNL     1      48.002   6.492  12.311  0.00  0.00    +0.000 A 
ATOM      4  C   UNL     1      46.708   6.371  11.797  0.00  0.00    +0.000 A 
ATOM      5  C   UNL     1      45.720   7.312  12.117  0.00  0.00    +0.000 A 
ATOM      6  C   UNL     1      46.054   8.371  12.970  0.00  0.00    +0.000 A 
ATOM      7  C   UNL     1      47.354   8.505  13.469  0.00  0.00    +0.000 A 
BRANCH   5   8
ATOM      8  C   UNL     1      44.333   7.198  11.529  0.00  0.00    +0.000 C 
BRANCH   8   9
ATOM      9  N   UNL     1      43.539   6.208  12.256  0.00  0.00    +0.000 NA
ATOM     10  H   UNL     1      42.907   6.715  12.877  0.00  0.00    +0.000 HD
BRANCH   9  11
ATOM     11  C   UNL     1      42.736   5.402  11.340  0.00  0.00    +0.000 C 
BRANCH  11  12
ATOM     12  C   UNL     1      43.625   4.464  10.611  0.00  0.00    +0.000 A 
ATOM     13  C   UNL     1      44.347   3.360  11.008  0.00  0.00    +0.000 A 
ATOM     14  N   UNL     1      45.032   2.816   9.950  0.00  0.00    +0.000 NA
ATOM     15  C   UNL     1      44.733   3.571   8.918  0.00  0.00    +0.000 A 
ATOM     16  N   UNL     1      43.876   4.571   9.264  0.00  0.00    +0.000 N 
ATOM     17  H   UNL     1      43.508   5.299   8.666  0.00  0.00    +0.000 HD
ENDBRANCH  11  12
ENDBRANCH   9  11
ENDBRANCH   8   9
ENDBRANCH   5   8
ENDBRANCH   1   2
BRANCH   1  18
ATOM     18  N   UNL     1      49.982   6.944  14.836  0.00  0.00    +0.000 NA
ATOM     19  H   UNL     1      49.640   6.001  14.657  0.00  0.00    +0.000 HD
BRANCH  18  21
ATOM     20  C   UNL     1      49.916   8.746  16.560  0.00  0.00    +0.000 C 
ATOM     21  C   UNL     1      49.305   7.440  16.041  0.00  0.00    +0.000 C 
BRANCH  21  22
ATOM     22  C   UNL     1      49.435   6.340  17.091  0.00  0.00    +0.000 A 
ATOM     23  C   UNL     1      50.284   6.407  18.188  0.00  0.00    +0.000 A 
ATOM     24  S   UNL     1      50.224   5.026  19.185  0.00  0.00    +0.000 S 
ATOM     25  C   UNL     1      49.032   4.303  18.210  0.00  0.00    +0.000 A 
ATOM     26  N   UNL     1      48.512   3.087  18.525  0.00  0.00    +0.000 NA
ATOM     27  C   UNL     1      47.593   2.678  17.712  0.00  0.00    +0.000 A 
ATOM     28  N   UNL     1      47.157   3.369  16.610  0.00  0.00    +0.000 N 
ATOM     29  C   UNL     1      47.686   4.581  16.223  0.00  0.00    +0.000 A 
ATOM     30  O   UNL     1      47.316   5.147  15.198  0.00  0.00    +0.000 OA
ATOM     31  C   UNL     1      48.699   5.098  17.125  0.00  0.00    +0.000 A 
ATOM     32  H   UNL     1      46.441   2.982  16.013  0.00  0.00    +0.000 HD
ENDBRANCH  21  22
ENDBRANCH  18  21
ENDBRANCH   1  18
TORSDOF 8
ENDMDL
MODEL 7
REMARK VINA RESULT:    -6.993      2.288      3.327
REMARK INTER + INTRA:         -10.972
REMARK INTER:                  -9.929
REMARK INTRA:                  -1.043
REMARK UNBOUND:                -0.709
REMARK  Name = 
REMARK  9 active torsions:
REMARK  status: ('A' for Active; 'I' for Inactive)
REMARK    1  A    between atoms: C_1  and  C_2
REMARK    2  A    between atoms: C_2  and  N_3
REMARK    3  A    between atoms: C_2  and  C_19
REMARK    4  A    between atoms: N_3  and  C_4
REMARK    5  A    between atoms: C_4  and  C_5
REMARK    6  A    between atoms: C_8  and  C_9
REMARK    7  A    between atoms: C_9  and  N_10
REMARK    8  A    between atoms: N_10  and  C_11
REMARK    9  A    between atoms: C_11  and  C_12
REMARK                            x       y       z     vdW  Elec       q    Type
REMARK                         _______ _______ _______ _____ _____    ______ ____
ROOT
ATOM      1  C   UNL     1      49.550   7.190  15.314  0.00  0.00    +0.000 C 
ENDROOT
BRANCH   1   2
ATOM      2  C   UNL     1      48.295   7.207  14.463  0.00  0.00    +0.000 A 
ATOM      3  C   UNL     1      47.707   6.008  14.032  0.00  0.00    +0.000 A 
ATOM      4  C   UNL     1      46.590   6.021  13.192  0.00  0.00    +0.000 A 
ATOM      5  C   UNL     1      46.017   7.233  12.785  0.00  0.00    +0.000 A 
ATOM      6  C   UNL     1      46.580   8.430  13.243  0.00  0.00    +0.000 A 
ATOM      7  C   UNL     1      47.710   8.418  14.068  0.00  0.00    +0.000 A 
BRANCH   5   8
ATOM      8  C   UNL     1      44.832   7.243  11.845  0.00  0.00    +0.000 C 
BRANCH   8   9
ATOM      9  N   UNL     1      43.797   6.317  12.303  0.00  0.00    +0.000 NA
ATOM     10  H   UNL     1      43.212   6.816  12.975  0.00  0.00    +0.000 HD
BRANCH   9  11
ATOM     11  C   UNL     1      42.953   5.882  11.194  0.00  0.00    +0.000 C 
BRANCH  11  12
ATOM     12  C   UNL     1      43.582   4.710  10.536  0.00  0.00    +0.000 A 
ATOM     13  C   UNL     1      43.771   3.404  10.932  0.00  0.00    +0.000 A 
ATOM     14  N   UNL     1      44.420   2.685   9.959  0.00  0.00    +0.000 NA
ATOM     15  C   UNL     1      44.624   3.535   8.978  0.00  0.00    +0.000 A 
ATOM     16  N   UNL     1      44.123   4.766   9.274  0.00  0.00    +0.000 N 
ATOM     17  H   UNL     1      44.166   5.600   8.702  0.00  0.00    +0.000 HD
ENDBRANCH  11  12
ENDBRANCH   9  11
ENDBRANCH   8   9
ENDBRANCH   5   8
ENDBRANCH   1   2
BRANCH   1  18
ATOM     18  N   UNL     1      49.735   5.870  15.911  0.00  0.00    +0.000 NA
ATOM     19  H   UNL     1      48.967   5.273  15.608  0.00  0.00    +0.000 HD
BRANCH  18  21
ATOM     20  C   UNL     1      49.821   7.252  17.985  0.00  0.00    +0.000 C 
ATOM     21  C   UNL     1      49.762   5.847  17.379  0.00  0.00    +0.000 C 
BRANCH  21  22
ATOM     22  C   UNL     1      51.000   5.048  17.773  0.00  0.00    +0.000 A 
ATOM     23  C   UNL     1      52.125   5.599  18.374  0.00  0.00    +0.000 A 
ATOM     24  S   UNL     1      53.357   4.465  18.690  0.00  0.00    +0.000 S 
ATOM     25  C   UNL     1      52.419   3.187  18.074  0.00  0.00    +0.000 A 
ATOM     26  N   UNL     1      52.888   1.911  18.072  0.00  0.00    +0.000 NA
ATOM     27  C   UNL     1      52.054   1.041  17.603  0.00  0.00    +0.000 A 
ATOM     28  N   UNL     1      50.801   1.334  17.128  0.00  0.00    +0.000 N 
ATOM     29  C   UNL     1      50.299   2.615  17.066  0.00  0.00    +0.000 A 
ATOM     30  O   UNL     1      49.197   2.852  16.581  0.00  0.00    +0.000 OA
ATOM     31  C   UNL     1      51.188   3.624  17.613  0.00  0.00    +0.000 A 
ATOM     32  H   UNL     1      50.206   0.603  16.768  0.00  0.00    +0.000 HD
ENDBRANCH  21  22
ENDBRANCH  18  21
ENDBRANCH   1  18
TORSDOF 8
ENDMDL
MODEL 8
REMARK VINA RESULT:    -6.938      3.221      9.113
REMARK INTER + INTRA:         -10.891
REMARK INTER:                  -9.849
REMARK INTRA:                  -1.042
REMARK UNBOUND:                -0.709
REMARK  Name = 
REMARK  9 active torsions:
REMARK  status: ('A' for Active; 'I' for Inactive)
REMARK    1  A    between atoms: C_1  and  C_2
REMARK    2  A    between atoms: C_2  and  N_3
REMARK    3  A    between atoms: C_2  and  C_19
REMARK    4  A    between atoms: N_3  and  C_4
REMARK    5  A    between atoms: C_4  and  C_5
REMARK    6  A    between atoms: C_8  and  C_9
REMARK    7  A    between atoms: C_9  and  N_10
REMARK    8  A    between atoms: N_10  and  C_11
REMARK    9  A    between atoms: C_11  and  C_12
REMARK                            x       y       z     vdW  Elec       q    Type
REMARK                         _______ _______ _______ _____ _____    ______ ____
ROOT
ATOM      1  C   UNL     1      48.480   5.841  16.893  0.00  0.00    +0.000 C 
ENDROOT
BRANCH   1   2
ATOM      2  C   UNL     1      49.329   4.607  17.124  0.00  0.00    +0.000 A 
ATOM      3  C   UNL     1      50.686   4.725  17.464  0.00  0.00    +0.000 A 
ATOM      4  C   UNL     1      51.487   3.591  17.611  0.00  0.00    +0.000 A 
ATOM      5  C   UNL     1      50.947   2.308  17.449  0.00  0.00    +0.000 A 
ATOM      6  C   UNL     1      49.585   2.186  17.145  0.00  0.00    +0.000 A 
ATOM      7  C   UNL     1      48.786   3.322  16.979  0.00  0.00    +0.000 A 
BRANCH   5   8
ATOM      8  C   UNL     1      51.826   1.084  17.571  0.00  0.00    +0.000 C 
BRANCH   8   9
ATOM      9  N   UNL     1      52.937   1.331  18.489  0.00  0.00    +0.000 NA
ATOM     10  H   UNL     1      52.821   0.707  19.289  0.00  0.00    +0.000 HD
BRANCH   9  11
ATOM     11  C   UNL     1      54.219   1.035  17.855  0.00  0.00    +0.000 C 
BRANCH  11  12
ATOM     12  C   UNL     1      54.504  -0.415  17.990  0.00  0.00    +0.000 A 
ATOM     13  C   UNL     1      54.706  -1.231  19.082  0.00  0.00    +0.000 A 
ATOM     14  N   UNL     1      54.943  -2.525  18.690  0.00  0.00    +0.000 NA
ATOM     15  C   UNL     1      54.883  -2.507  17.378  0.00  0.00    +0.000 A 
ATOM     16  N   UNL     1      54.608  -1.258  16.910  0.00  0.00    +0.000 N 
ATOM     17  H   UNL     1      54.529  -0.967  15.944  0.00  0.00    +0.000 HD
ENDBRANCH  11  12
ENDBRANCH   9  11
ENDBRANCH   8   9
ENDBRANCH   5   8
ENDBRANCH   1   2
BRANCH   1  18
ATOM     18  N   UNL     1      47.611   5.645  15.736  0.00  0.00    +0.000 NA
ATOM     19  H   UNL     1      47.458   4.644  15.618  0.00  0.00    +0.000 HD
BRANCH  18  21
ATOM     20  C   UNL     1      48.745   7.562  14.615  0.00  0.00    +0.000 C 
ATOM     21  C   UNL     1      48.133   6.165  14.466  0.00  0.00    +0.000 C 
BRANCH  21  22
ATOM     22  C   UNL     1      46.954   6.204  13.499  0.00  0.00    +0.000 A 
ATOM     23  C   UNL     1      46.437   7.369  12.946  0.00  0.00    +0.000 A 
ATOM     24  S   UNL     1      45.112   7.104  11.907  0.00  0.00    +0.000 S 
ATOM     25  C   UNL     1      45.205   5.419  12.124  0.00  0.00    +0.000 A 
ATOM     26  N   UNL     1      44.349   4.582  11.481  0.00  0.00    +0.000 NA
ATOM     27  C   UNL     1      44.557   3.327  11.717  0.00  0.00    +0.000 A 
ATOM     28  N   UNL     1      45.536   2.838  12.545  0.00  0.00    +0.000 N 
ATOM     29  C   UNL     1      46.396   3.647  13.255  0.00  0.00    +0.000 A 
ATOM     30  O   UNL     1      47.223   3.181  14.033  0.00  0.00    +0.000 OA
ATOM     31  C   UNL     1      46.221   5.065  12.996  0.00  0.00    +0.000 A 
ATOM     32  H   UNL     1      45.635   1.844  12.689  0.00  0.00    +0.000 HD
ENDBRANCH  21  22
ENDBRANCH  18  21
ENDBRANCH   1  18
TORSDOF 8
ENDMDL
MODEL 9
REMARK VINA RESULT:    -6.850      3.289      8.790
REMARK INTER + INTRA:         -10.762
REMARK INTER:                  -9.606
REMARK INTRA:                  -1.156
REMARK UNBOUND:                -0.709
REMARK  Name = 
REMARK  9 active torsions:
REMARK  status: ('A' for Active; 'I' for Inactive)
REMARK    1  A    between atoms: C_1  and  C_2
REMARK    2  A    between atoms: C_2  and  N_3
REMARK    3  A    between atoms: C_2  and  C_19
REMARK    4  A    between atoms: N_3  and  C_4
REMARK    5  A    between atoms: C_4  and  C_5
REMARK    6  A    between atoms: C_8  and  C_9
REMARK    7  A    between atoms: C_9  and  N_10
REMARK    8  A    between atoms: N_10  and  C_11
REMARK    9  A    between atoms: C_11  and  C_12
REMARK                            x       y       z     vdW  Elec       q    Type
REMARK                         _______ _______ _______ _____ _____    ______ ____
ROOT
ATOM      1  C   UNL     1      48.140   7.887  12.522  0.00  0.00    +0.000 C 
ENDROOT
BRANCH   1   2
ATOM      2  C   UNL     1      48.855   7.571  13.821  0.00  0.00    +0.000 A 
ATOM      3  C   UNL     1      50.233   7.804  13.954  0.00  0.00    +0.000 A 
ATOM      4  C   UNL     1      50.907   7.449  15.126  0.00  0.00    +0.000 A 
ATOM      5  C   UNL     1      50.216   6.880  16.204  0.00  0.00    +0.000 A 
ATOM      6  C   UNL     1      48.835   6.680  16.087  0.00  0.00    +0.000 A 
ATOM      7  C   UNL     1      48.162   7.016  14.907  0.00  0.00    +0.000 A 
BRANCH   5   8
ATOM      8  C   UNL     1      50.956   6.463  17.455  0.00  0.00    +0.000 C 
BRANCH   8   9
ATOM      9  N   UNL     1      50.108   5.631  18.308  0.00  0.00    +0.000 NA
ATOM     10  H   UNL     1      49.225   5.485  17.817  0.00  0.00    +0.000 HD
BRANCH   9  11
ATOM     11  C   UNL     1      50.722   4.328  18.549  0.00  0.00    +0.000 C 
BRANCH  11  12
ATOM     12  C   UNL     1      50.113   3.328  17.638  0.00  0.00    +0.000 A 
ATOM     13  C   UNL     1      50.610   2.202  17.019  0.00  0.00    +0.000 A 
ATOM     14  N   UNL     1      49.643   1.595  16.256  0.00  0.00    +0.000 NA
ATOM     15  C   UNL     1      48.567   2.334  16.407  0.00  0.00    +0.000 A 
ATOM     16  N   UNL     1      48.798   3.384  17.243  0.00  0.00    +0.000 N 
ATOM     17  H   UNL     1      48.147   4.111  17.510  0.00  0.00    +0.000 HD
ENDBRANCH  11  12
ENDBRANCH   9  11
ENDBRANCH   8   9
ENDBRANCH   5   8
ENDBRANCH   1   2
BRANCH   1  18
ATOM     18  N   UNL     1      47.380   6.725  12.070  0.00  0.00    +0.000 NA
ATOM     19  H   UNL     1      47.889   6.291  11.302  0.00  0.00    +0.000 HD
BRANCH  18  21
ATOM     20  C   UNL     1      45.343   8.127  12.400  0.00  0.00    +0.000 C 
ATOM     21  C   UNL     1      46.021   7.015  11.593  0.00  0.00    +0.000 C 
BRANCH  21  22
ATOM     22  C   UNL     1      45.235   5.714  11.720  0.00  0.00    +0.000 A 
ATOM     23  C   UNL     1      44.561   5.318  12.869  0.00  0.00    +0.000 A 
ATOM     24  S   UNL     1      43.779   3.812  12.720  0.00  0.00    +0.000 S 
ATOM     25  C   UNL     1      44.276   3.649  11.101  0.00  0.00    +0.000 A 
ATOM     26  N   UNL     1      43.915   2.565  10.363  0.00  0.00    +0.000 NA
ATOM     27  C   UNL     1      44.338   2.592   9.141  0.00  0.00    +0.000 A 
ATOM     28  N   UNL     1      45.097   3.598   8.597  0.00  0.00    +0.000 N 
ATOM     29  C   UNL     1      45.526   4.691   9.316  0.00  0.00    +0.000 A 
ATOM     30  O   UNL     1      46.253   5.545   8.817  0.00  0.00    +0.000 OA
ATOM     31  C   UNL     1      45.047   4.722  10.687  0.00  0.00    +0.000 A 
ATOM     32  H   UNL     1      45.400   3.548   7.636  0.00  0.00    +0.000 HD
ENDBRANCH  21  22
ENDBRANCH  18  21
ENDBRANCH   1  18
TORSDOF 8
ENDMDL
