MODEL 1
REMARK VINA RESULT:    -7.653      0.000      0.000
REMARK INTER + INTRA:         -14.409
REMARK INTER:                 -13.022
REMARK INTRA:                  -1.387
REMARK UNBOUND:                -1.387
REMARK  Name = 
REMARK  13 active torsions:
REMARK  status: ('A' for Active; 'I' for Inactive)
REMARK    1  A    between atoms: N_1  and  CA_2
REMARK    2  A    between atoms: CA_2  and  C_3
REMARK    3  A    between atoms: CA_2  and  C_5
REMARK    4  A    between atoms: C_3  and  O_4
REMARK    5  A    between atoms: C_5  and  C_6
REMARK    6  A    between atoms: C_6  and  N_7
REMARK    7  A    between atoms: C_6  and  C_24
REMARK    8  A    between atoms: N_7  and  C_8
REMARK    9  A    between atoms: C_8  and  C_9
REMARK   10  A    between atoms: C_12  and  C_13
REMARK   11  A    between atoms: C_13  and  N_14
REMARK   12  A    between atoms: N_14  and  C_15
REMARK   13  A    between atoms: C_15  and  C_16
REMARK                            x       y       z     vdW  Elec       q    Type
REMARK                         _______ _______ _______ _____ _____    ______ ____
ROOT
ATOM      1  C   UNL     1      48.377   6.030  16.467  0.00  0.00    +0.000 C 
ENDROOT
BRANCH   1   2
ATOM      2  C   UNL     1      49.661   6.838  16.611  0.00  0.00    +0.000 A 
ATOM      3  C   UNL     1      50.922   6.254  16.608  0.00  0.00    +0.000 A 
ATOM      4  S   UNL     1      52.099   7.218  17.394  0.00  0.00    +0.000 S 
ATOM      5  C   UNL     1      50.995   8.499  17.589  0.00  0.00    +0.000 A 
ATOM      6  N   UNL     1      51.325   9.621  18.285  0.00  0.00    +0.000 NA
ATOM      7  C   UNL     1      50.422  10.546  18.251  0.00  0.00    +0.000 A 
ATOM      8  N   UNL     1      49.242  10.463  17.560  0.00  0.00    +0.000 N 
ATOM      9  C   UNL     1      48.875   9.354  16.828  0.00  0.00    +0.000 A 
ATOM     10  O   UNL     1      47.911   9.390  16.072  0.00  0.00    +0.000 OA
ATOM     11  C   UNL     1      49.798   8.239  16.943  0.00  0.00    +0.000 A 
ATOM     12  H   UNL     1      48.644  11.269  17.462  0.00  0.00    +0.000 HD
ENDBRANCH   1   2
BRANCH   1  13
ATOM     13  N   UNL     1      48.419   5.515  15.074  0.00  0.00    +0.000 NA
ATOM     14  H   UNL     1      49.379   5.256  14.843  0.00  0.00    +0.000 HD
BRANCH  13  15
ATOM     15  C   UNL     1      47.969   6.485  14.074  0.00  0.00    +0.000 C 
BRANCH  15  16
ATOM     16  C   UNL     1      46.899   5.947  13.146  0.00  0.00    +0.000 A 
ATOM     17  C   UNL     1      45.925   5.047  13.610  0.00  0.00    +0.000 A 
ATOM     18  C   UNL     1      44.839   4.679  12.800  0.00  0.00    +0.000 A 
ATOM     19  C   UNL     1      44.708   5.215  11.513  0.00  0.00    +0.000 A 
ATOM     20  C   UNL     1      45.694   6.091  11.037  0.00  0.00    +0.000 A 
ATOM     21  C   UNL     1      46.777   6.456  11.847  0.00  0.00    +0.000 A 
BRANCH  19  22
ATOM     22  C   UNL     1      43.512   4.857  10.643  0.00  0.00    +0.000 C 
BRANCH  22  23
ATOM     23  N   UNL     1      43.926   4.346   9.339  0.00  0.00    +0.000 NA
ATOM     24  H   UNL     1      44.660   4.940   8.951  0.00  0.00    +0.000 HD
BRANCH  23  25
ATOM     25  C   UNL     1      44.473   2.978   9.447  0.00  0.00    +0.000 C 
BRANCH  25  26
ATOM     26  C   UNL     1      45.567   2.689   8.426  0.00  0.00    +0.000 A 
ATOM     27  N   UNL     1      45.965   3.707   7.629  0.00  0.00    +0.000 NA
ATOM     28  C   UNL     1      46.908   3.415   6.714  0.00  0.00    +0.000 A 
ATOM     29  C   UNL     1      47.475   2.171   6.572  0.00  0.00    +0.000 A 
ATOM     30  C   UNL     1      47.020   1.212   7.444  0.00  0.00    +0.000 A 
ATOM     31  N   UNL     1      46.079   1.440   8.379  0.00  0.00    +0.000 NA
ENDBRANCH  25  26
ENDBRANCH  23  25
ENDBRANCH  22  23
ENDBRANCH  19  22
ENDBRANCH  15  16
ENDBRANCH  13  15
ENDBRANCH   1  13
BRANCH   1  32
ATOM     32  C   UNL     1      48.127   4.883  17.458  0.00  0.00    +0.000 C 
BRANCH  32  33
ATOM     33  CA  UNL     1      47.896   3.475  16.901  0.00  0.00    +0.000 C 
BRANCH  33  34
ATOM     34  N   UNL     1      46.732   2.883  17.610  0.00  0.00    +0.000 NA
ATOM     35  H1  UNL     1      45.891   3.391  17.324  0.00  0.00    +0.000 HD
ATOM     36  H2  UNL     1      46.816   3.082  18.612  0.00  0.00    +0.000 HD
ENDBRANCH  33  34
BRANCH  33  37
ATOM     37  C   UNL     1      49.092   2.522  17.102  0.00  0.00    +0.000 C 
BRANCH  37  38
ATOM     38  O   UNL     1      49.311   1.756  15.914  0.00  0.00    +0.000 OA
ATOM     39  H   UNL     1      48.561   1.128  15.870  0.00  0.00    +0.000 HD
ENDBRANCH  37  38
ENDBRANCH  33  37
ENDBRANCH  32  33
ENDBRANCH   1  32
TORSDOF 13
ENDMDL
MODEL 2
REMARK VINA RESULT:    -7.638      1.557      2.170
REMARK INTER + INTRA:         -14.382
REMARK INTER:                 -13.072
REMARK INTRA:                  -1.310
REMARK UNBOUND:                -1.387
REMARK  Name = 
REMARK  13 active torsions:
REMARK  status: ('A' for Active; 'I' for Inactive)
REMARK    1  A    between atoms: N_1  and  CA_2
REMARK    2  A    between atoms: CA_2  and  C_3
REMARK    3  A    between atoms: CA_2  and  C_5
REMARK    4  A    between atoms: C_3  and  O_4
REMARK    5  A    between atoms: C_5  and  C_6
REMARK    6  A    between atoms: C_6  and  N_7
REMARK    7  A    between atoms: C_6  and  C_24
REMARK    8  A    between atoms: N_7  and  C_8
REMARK    9  A    between atoms: C_8  and  C_9
REMARK   10  A    between atoms: C_12  and  C_13
REMARK   11  A    between atoms: C_13  and  N_14
REMARK   12  A    between atoms: N_14  and  C_15
REMARK   13  A    between atoms: C_15  and  C_16
REMARK                            x       y       z     vdW  Elec       q    Type
REMARK                         _______ _______ _______ _____ _____    ______ ____
ROOT
ATOM      1  C   UNL     1      48.211   6.234  16.369  0.00  0.00    +0.000 C 
ENDROOT
BRANCH   1   2
ATOM      2  C   UNL     1      49.144   7.413  16.615  0.00  0.00    +0.000 A 
ATOM      3  C   UNL     1      48.684   8.681  16.951  0.00  0.00    +0.000 A 
ATOM      4  S   UNL     1      49.801   9.916  16.554  0.00  0.00    +0.000 S 
ATOM      5  C   UNL     1      50.980   8.776  16.098  0.00  0.00    +0.000 A 
ATOM      6  N   UNL     1      52.168   9.162  15.558  0.00  0.00    +0.000 NA
ATOM      7  C   UNL     1      52.999   8.189  15.366  0.00  0.00    +0.000 A 
ATOM      8  N   UNL     1      52.762   6.880  15.698  0.00  0.00    +0.000 N 
ATOM      9  C   UNL     1      51.582   6.450  16.264  0.00  0.00    +0.000 A 
ATOM     10  O   UNL     1      51.481   5.317  16.721  0.00  0.00    +0.000 OA
ATOM     11  C   UNL     1      50.569   7.483  16.377  0.00  0.00    +0.000 A 
ATOM     12  H   UNL     1      53.501   6.196  15.650  0.00  0.00    +0.000 HD
ENDBRANCH   1   2
BRANCH   1  13
ATOM     13  N   UNL     1      48.541   5.782  14.993  0.00  0.00    +0.000 NA
ATOM     14  H   UNL     1      49.555   5.698  14.904  0.00  0.00    +0.000 HD
BRANCH  13  15
ATOM     15  C   UNL     1      48.080   6.696  13.946  0.00  0.00    +0.000 C 
BRANCH  15  16
ATOM     16  C   UNL     1      47.014   6.101  13.048  0.00  0.00    +0.000 A 
ATOM     17  C   UNL     1      46.099   5.156  13.542  0.00  0.00    +0.000 A 
ATOM     18  C   UNL     1      45.012   4.731  12.761  0.00  0.00    +0.000 A 
ATOM     19  C   UNL     1      44.820   5.253  11.477  0.00  0.00    +0.000 A 
ATOM     20  C   UNL     1      45.749   6.174  10.971  0.00  0.00    +0.000 A 
ATOM     21  C   UNL     1      46.834   6.597  11.752  0.00  0.00    +0.000 A 
BRANCH  19  22
ATOM     22  C   UNL     1      43.621   4.832  10.640  0.00  0.00    +0.000 C 
BRANCH  22  23
ATOM     23  N   UNL     1      44.028   4.305   9.340  0.00  0.00    +0.000 NA
ATOM     24  H   UNL     1      44.811   4.849   8.975  0.00  0.00    +0.000 HD
BRANCH  23  25
ATOM     25  C   UNL     1      44.474   2.901   9.445  0.00  0.00    +0.000 C 
BRANCH  25  26
ATOM     26  C   UNL     1      45.533   2.529   8.413  0.00  0.00    +0.000 A 
ATOM     27  N   UNL     1      45.989   1.256   8.415  0.00  0.00    +0.000 NA
ATOM     28  C   UNL     1      46.948   0.963   7.516  0.00  0.00    +0.000 A 
ATOM     29  C   UNL     1      47.453   1.872   6.618  0.00  0.00    +0.000 A 
ATOM     30  C   UNL     1      46.909   3.132   6.681  0.00  0.00    +0.000 A 
ATOM     31  N   UNL     1      45.950   3.487   7.557  0.00  0.00    +0.000 NA
ENDBRANCH  25  26
ENDBRANCH  23  25
ENDBRANCH  22  23
ENDBRANCH  19  22
ENDBRANCH  15  16
ENDBRANCH  13  15
ENDBRANCH   1  13
BRANCH   1  32
ATOM     32  C   UNL     1      48.261   5.052  17.350  0.00  0.00    +0.000 C 
BRANCH  32  33
ATOM     33  CA  UNL     1      47.959   3.649  16.818  0.00  0.00    +0.000 C 
BRANCH  33  34
ATOM     34  N   UNL     1      46.707   3.170  17.459  0.00  0.00    +0.000 NA
ATOM     35  H1  UNL     1      45.918   3.648  17.016  0.00  0.00    +0.000 HD
ATOM     36  H2  UNL     1      46.685   3.497  18.430  0.00  0.00    +0.000 HD
ENDBRANCH  33  34
BRANCH  33  37
ATOM     37  C   UNL     1      49.061   2.615  17.128  0.00  0.00    +0.000 C 
BRANCH  37  38
ATOM     38  O   UNL     1      49.256   1.755  16.002  0.00  0.00    +0.000 OA
ATOM     39  H   UNL     1      49.394   0.862  16.378  0.00  0.00    +0.000 HD
ENDBRANCH  37  38
ENDBRANCH  33  37
ENDBRANCH  32  33
ENDBRANCH   1  32
TORSDOF 13
ENDMDL
MODEL 3
REMARK VINA RESULT:    -7.293      1.678      3.868
REMARK INTER + INTRA:         -13.797
REMARK INTER:                 -12.038
REMARK INTRA:                  -1.759
REMARK UNBOUND:                -1.387
REMARK  Name = 
REMARK  13 active torsions:
REMARK  status: ('A' for Active; 'I' for Inactive)
REMARK    1  A    between atoms: N_1  and  CA_2
REMARK    2  A    between atoms: CA_2  and  C_3
REMARK    3  A    between atoms: CA_2  and  C_5
REMARK    4  A    between atoms: C_3  and  O_4
REMARK    5  A    between atoms: C_5  and  C_6
REMARK    6  A    between atoms: C_6  and  N_7
REMARK    7  A    between atoms: C_6  and  C_24
REMARK    8  A    between atoms: N_7  and  C_8
REMARK    9  A    between atoms: C_8  and  C_9
REMARK   10  A    between atoms: C_12  and  C_13
REMARK   11  A    between atoms: C_13  and  N_14
REMARK   12  A    between atoms: N_14  and  C_15
REMARK   13  A    between atoms: C_15  and  C_16
REMARK                            x       y       z     vdW  Elec       q    Type
REMARK                         _______ _______ _______ _____ _____    ______ ____
ROOT
ATOM      1  C   UNL     1      49.743   7.553  15.803  0.00  0.00    +0.000 C 
ENDROOT
BRANCH   1   2
ATOM      2  C   UNL     1      50.477   6.587  16.726  0.00  0.00    +0.000 A 
ATOM      3  C   UNL     1      51.770   6.816  17.181  0.00  0.00    +0.000 A 
ATOM      4  S   UNL     1      52.575   5.375  17.636  0.00  0.00    +0.000 S 
ATOM      5  C   UNL     1      51.164   4.452  17.406  0.00  0.00    +0.000 A 
ATOM      6  N   UNL     1      51.174   3.096  17.529  0.00  0.00    +0.000 NA
ATOM      7  C   UNL     1      50.006   2.550  17.433  0.00  0.00    +0.000 A 
ATOM      8  N   UNL     1      48.832   3.237  17.262  0.00  0.00    +0.000 N 
ATOM      9  C   UNL     1      48.774   4.610  17.152  0.00  0.00    +0.000 A 
ATOM     10  O   UNL     1      47.699   5.198  17.194  0.00  0.00    +0.000 OA
ATOM     11  C   UNL     1      50.072   5.256  17.122  0.00  0.00    +0.000 A 
ATOM     12  H   UNL     1      47.944   2.765  17.333  0.00  0.00    +0.000 HD
ENDBRANCH   1   2
BRANCH   1  13
ATOM     13  N   UNL     1      49.297   6.709  14.665  0.00  0.00    +0.000 NA
ATOM     14  H   UNL     1      50.080   6.572  14.024  0.00  0.00    +0.000 HD
BRANCH  13  15
ATOM     15  C   UNL     1      48.194   7.290  13.898  0.00  0.00    +0.000 C 
BRANCH  15  16
ATOM     16  C   UNL     1      47.312   6.257  13.226  0.00  0.00    +0.000 A 
ATOM     17  C   UNL     1      47.152   4.975  13.777  0.00  0.00    +0.000 A 
ATOM     18  C   UNL     1      46.210   4.077  13.251  0.00  0.00    +0.000 A 
ATOM     19  C   UNL     1      45.407   4.454  12.168  0.00  0.00    +0.000 A 
ATOM     20  C   UNL     1      45.585   5.722  11.598  0.00  0.00    +0.000 A 
ATOM     21  C   UNL     1      46.527   6.617  12.124  0.00  0.00    +0.000 A 
BRANCH  19  22
ATOM     22  C   UNL     1      44.352   3.505  11.618  0.00  0.00    +0.000 C 
BRANCH  22  23
ATOM     23  N   UNL     1      44.935   2.516  10.714  0.00  0.00    +0.000 NA
ATOM     24  H   UNL     1      44.638   1.578  10.987  0.00  0.00    +0.000 HD
BRANCH  23  25
ATOM     25  C   UNL     1      44.493   2.734   9.322  0.00  0.00    +0.000 C 
BRANCH  25  26
ATOM     26  C   UNL     1      45.587   2.462   8.296  0.00  0.00    +0.000 A 
ATOM     27  N   UNL     1      46.139   1.226   8.283  0.00  0.00    +0.000 NA
ATOM     28  C   UNL     1      47.126   1.023   7.390  0.00  0.00    +0.000 A 
ATOM     29  C   UNL     1      47.571   1.983   6.513  0.00  0.00    +0.000 A 
ATOM     30  C   UNL     1      46.931   3.196   6.590  0.00  0.00    +0.000 A 
ATOM     31  N   UNL     1      45.940   3.463   7.461  0.00  0.00    +0.000 NA
ENDBRANCH  25  26
ENDBRANCH  23  25
ENDBRANCH  22  23
ENDBRANCH  19  22
ENDBRANCH  15  16
ENDBRANCH  13  15
ENDBRANCH   1  13
BRANCH   1  32
ATOM     32  C   UNL     1      48.562   8.350  16.378  0.00  0.00    +0.000 C 
BRANCH  32  33
ATOM     33  CA  UNL     1      48.523   8.615  17.885  0.00  0.00    +0.000 C 
BRANCH  33  34
ATOM     34  N   UNL     1      47.303   7.971  18.437  0.00  0.00    +0.000 NA
ATOM     35  H1  UNL     1      47.462   6.960  18.470  0.00  0.00    +0.000 HD
ATOM     36  H2  UNL     1      46.536   8.082  17.767  0.00  0.00    +0.000 HD
ENDBRANCH  33  34
BRANCH  33  37
ATOM     37  C   UNL     1      48.462  10.111  18.254  0.00  0.00    +0.000 C 
BRANCH  37  38
ATOM     38  O   UNL     1      47.632  10.810  17.321  0.00  0.00    +0.000 OA
ATOM     39  H   UNL     1      48.251  11.233  16.691  0.00  0.00    +0.000 HD
ENDBRANCH  37  38
ENDBRANCH  33  37
ENDBRANCH  32  33
ENDBRANCH   1  32
TORSDOF 13
ENDMDL
MODEL 4
REMARK VINA RESULT:    -7.237      2.162      3.975
REMARK INTER + INTRA:         -13.701
REMARK INTER:                 -12.171
REMARK INTRA:                  -1.530
REMARK UNBOUND:                -1.387
REMARK  Name = 
REMARK  13 active torsions:
REMARK  status: ('A' for Active; 'I' for Inactive)
REMARK    1  A    between atoms: N_1  and  CA_2
REMARK    2  A    between atoms: CA_2  and  C_3
REMARK    3  A    between atoms: CA_2  and  C_5
REMARK    4  A    between atoms: C_3  and  O_4
REMARK    5  A    between atoms: C_5  and  C_6
REMARK    6  A    between atoms: C_6  and  N_7
REMARK    7  A    between atoms: C_6  and  C_24
REMARK    8  A    between atoms: N_7  and  C_8
REMARK    9  A    between atoms: C_8  and  C_9
REMARK   10  A    between atoms: C_12  and  C_13
REMARK   11  A    between atoms: C_13  and  N_14
REMARK   12  A    between atoms: N_14  and  C_15
REMARK   13  A    between atoms: C_15  and  C_16
REMARK                            x       y       z     vdW  Elec       q    Type
REMARK                         _______ _______ _______ _____ _____    ______ ____
ROOT
ATOM      1  C   UNL     1      49.622   6.385  17.218  0.00  0.00    +0.000 C 
ENDROOT
BRANCH   1   2
ATOM      2  C   UNL     1      50.501   5.378  17.950  0.00  0.00    +0.000 A 
ATOM      3  C   UNL     1      51.558   5.756  18.769  0.00  0.00    +0.000 A 
ATOM      4  S   UNL     1      52.733   4.523  18.944  0.00  0.00    +0.000 S 
ATOM      5  C   UNL     1      51.771   3.412  18.085  0.00  0.00    +0.000 A 
ATOM      6  N   UNL     1      52.226   2.167  17.779  0.00  0.00    +0.000 NA
ATOM      7  C   UNL     1      51.342   1.405  17.222  0.00  0.00    +0.000 A 
ATOM      8  N   UNL     1      50.042   1.764  16.978  0.00  0.00    +0.000 N 
ATOM      9  C   UNL     1      49.534   3.007  17.289  0.00  0.00    +0.000 A 
ATOM     10  O   UNL     1      48.329   3.225  17.235  0.00  0.00    +0.000 OA
ATOM     11  C   UNL     1      50.524   3.940  17.795  0.00  0.00    +0.000 A 
ATOM     12  H   UNL     1      49.368   1.080  16.669  0.00  0.00    +0.000 HD
ENDBRANCH   1   2
BRANCH   1  13
ATOM     13  N   UNL     1      49.398   5.776  15.881  0.00  0.00    +0.000 NA
ATOM     14  H   UNL     1      50.260   5.323  15.572  0.00  0.00    +0.000 HD
BRANCH  13  15
ATOM     15  C   UNL     1      49.012   6.741  14.851  0.00  0.00    +0.000 C 
BRANCH  15  16
ATOM     16  C   UNL     1      47.787   6.327  14.060  0.00  0.00    +0.000 A 
ATOM     17  C   UNL     1      47.374   7.057  12.933  0.00  0.00    +0.000 A 
ATOM     18  C   UNL     1      46.344   6.581  12.105  0.00  0.00    +0.000 A 
ATOM     19  C   UNL     1      45.719   5.362  12.390  0.00  0.00    +0.000 A 
ATOM     20  C   UNL     1      46.110   4.646  13.530  0.00  0.00    +0.000 A 
ATOM     21  C   UNL     1      47.137   5.122  14.356  0.00  0.00    +0.000 A 
BRANCH  19  22
ATOM     22  C   UNL     1      44.633   4.816  11.474  0.00  0.00    +0.000 C 
BRANCH  22  23
ATOM     23  N   UNL     1      45.061   4.804  10.077  0.00  0.00    +0.000 NA
ATOM     24  H   UNL     1      46.079   4.755  10.027  0.00  0.00    +0.000 HD
BRANCH  23  25
ATOM     25  C   UNL     1      44.523   3.629   9.361  0.00  0.00    +0.000 C 
BRANCH  25  26
ATOM     26  C   UNL     1      45.509   3.035   8.361  0.00  0.00    +0.000 A 
ATOM     27  N   UNL     1      45.926   3.828   7.347  0.00  0.00    +0.000 NA
ATOM     28  C   UNL     1      46.769   3.269   6.459  0.00  0.00    +0.000 A 
ATOM     29  C   UNL     1      47.219   1.974   6.547  0.00  0.00    +0.000 A 
ATOM     30  C   UNL     1      46.756   1.258   7.624  0.00  0.00    +0.000 A 
ATOM     31  N   UNL     1      45.911   1.759   8.544  0.00  0.00    +0.000 NA
ENDBRANCH  25  26
ENDBRANCH  23  25
ENDBRANCH  22  23
ENDBRANCH  19  22
ENDBRANCH  15  16
ENDBRANCH  13  15
ENDBRANCH   1  13
BRANCH   1  32
ATOM     32  C   UNL     1      48.284   6.782  17.859  0.00  0.00    +0.000 C 
BRANCH  32  33
ATOM     33  CA  UNL     1      47.787   5.982  19.066  0.00  0.00    +0.000 C 
BRANCH  33  34
ATOM     34  N   UNL     1      46.482   5.368  18.709  0.00  0.00    +0.000 NA
ATOM     35  H1  UNL     1      45.748   5.849  19.237  0.00  0.00    +0.000 HD
ATOM     36  H2  UNL     1      46.458   4.407  19.066  0.00  0.00    +0.000 HD
ENDBRANCH  33  34
BRANCH  33  37
ATOM     37  C   UNL     1      47.564   6.837  20.331  0.00  0.00    +0.000 C 
BRANCH  37  38
ATOM     38  O   UNL     1      48.551   7.870  20.403  0.00  0.00    +0.000 OA
ATOM     39  H   UNL     1      48.185   8.614  19.882  0.00  0.00    +0.000 HD
ENDBRANCH  37  38
ENDBRANCH  33  37
ENDBRANCH  32  33
ENDBRANCH   1  32
TORSDOF 13
ENDMDL
MODEL 5
REMARK VINA RESULT:    -6.965      2.268      3.960
REMARK INTER + INTRA:         -13.238
REMARK INTER:                 -11.431
REMARK INTRA:                  -1.807
REMARK UNBOUND:                -1.387
REMARK  Name = 
REMARK  13 active torsions:
REMARK  status: ('A' for Active; 'I' for Inactive)
REMARK    1  A    between atoms: N_1  and  CA_2
REMARK    2  A    between atoms: CA_2  and  C_3
REMARK    3  A    between atoms: CA_2  and  C_5
REMARK    4  A    between atoms: C_3  and  O_4
REMARK    5  A    between atoms: C_5  and  C_6
REMARK    6  A    between atoms: C_6  and  N_7
REMARK    7  A    between atoms: C_6  and  C_24
REMARK    8  A    between atoms: N_7  and  C_8
REMARK    9  A    between atoms: C_8  and  C_9
REMARK   10  A    between atoms: C_12  and  C_13
REMARK   11  A    between atoms: C_13  and  N_14
REMARK   12  A    between atoms: N_14  and  C_15
REMARK   13  A    between atoms: C_15  and  C_16
REMARK                            x       y       z     vdW  Elec       q    Type
REMARK                         _______ _______ _______ _____ _____    ______ ____
ROOT
ATOM      1  C   UNL     1      49.814   7.185  15.190  0.00  0.00    +0.000 C 
ENDROOT
BRANCH   1   2
ATOM      2  C   UNL     1      48.990   7.272  16.469  0.00  0.00    +0.000 A 
ATOM      3  C   UNL     1      48.527   8.476  16.986  0.00  0.00    +0.000 A 
ATOM      4  S   UNL     1      48.213   8.396  18.667  0.00  0.00    +0.000 S 
ATOM      5  C   UNL     1      48.514   6.721  18.697  0.00  0.00    +0.000 A 
ATOM      6  N   UNL     1      48.515   6.021  19.864  0.00  0.00    +0.000 NA
ATOM      7  C   UNL     1      48.651   4.744  19.711  0.00  0.00    +0.000 A 
ATOM      8  N   UNL     1      48.748   4.106  18.502  0.00  0.00    +0.000 N 
ATOM      9  C   UNL     1      48.732   4.774  17.296  0.00  0.00    +0.000 A 
ATOM     10  O   UNL     1      48.627   4.160  16.240  0.00  0.00    +0.000 OA
ATOM     11  C   UNL     1      48.714   6.219  17.422  0.00  0.00    +0.000 A 
ATOM     12  H   UNL     1      48.713   3.100  18.446  0.00  0.00    +0.000 HD
ENDBRANCH   1   2
BRANCH   1  13
ATOM     13  N   UNL     1      48.956   6.420  14.249  0.00  0.00    +0.000 NA
ATOM     14  H   UNL     1      49.541   6.014  13.517  0.00  0.00    +0.000 HD
BRANCH  13  15
ATOM     15  C   UNL     1      47.929   7.233  13.594  0.00  0.00    +0.000 C 
BRANCH  15  16
ATOM     16  C   UNL     1      46.680   6.456  13.231  0.00  0.00    +0.000 A 
ATOM     17  C   UNL     1      45.609   7.079  12.570  0.00  0.00    +0.000 A 
ATOM     18  C   UNL     1      44.526   6.327  12.086  0.00  0.00    +0.000 A 
ATOM     19  C   UNL     1      44.505   4.937  12.251  0.00  0.00    +0.000 A 
ATOM     20  C   UNL     1      45.559   4.317  12.937  0.00  0.00    +0.000 A 
ATOM     21  C   UNL     1      46.638   5.069  13.420  0.00  0.00    +0.000 A 
BRANCH  19  22
ATOM     22  C   UNL     1      43.358   4.107  11.692  0.00  0.00    +0.000 C 
BRANCH  22  23
ATOM     23  N   UNL     1      43.809   3.208  10.633  0.00  0.00    +0.000 NA
ATOM     24  H   UNL     1      43.065   2.550  10.396  0.00  0.00    +0.000 HD
BRANCH  23  25
ATOM     25  C   UNL     1      44.150   3.954   9.404  0.00  0.00    +0.000 C 
BRANCH  25  26
ATOM     26  C   UNL     1      45.222   3.268   8.565  0.00  0.00    +0.000 A 
ATOM     27  N   UNL     1      45.865   4.015   7.639  0.00  0.00    +0.000 NA
ATOM     28  C   UNL     1      46.783   3.377   6.889  0.00  0.00    +0.000 A 
ATOM     29  C   UNL     1      47.092   2.045   7.031  0.00  0.00    +0.000 A 
ATOM     30  C   UNL     1      46.400   1.380   8.014  0.00  0.00    +0.000 A 
ATOM     31  N   UNL     1      45.470   1.960   8.795  0.00  0.00    +0.000 NA
ENDBRANCH  25  26
ENDBRANCH  23  25
ENDBRANCH  22  23
ENDBRANCH  19  22
ENDBRANCH  15  16
ENDBRANCH  13  15
ENDBRANCH   1  13
BRANCH   1  32
ATOM     32  C   UNL     1      50.288   8.495  14.541  0.00  0.00    +0.000 C 
BRANCH  32  33
ATOM     33  CA  UNL     1      51.621   8.497  13.789  0.00  0.00    +0.000 C 
BRANCH  33  34
ATOM     34  N   UNL     1      52.400   9.683  14.231  0.00  0.00    +0.000 NA
ATOM     35  H1  UNL     1      53.336   9.620  13.821  0.00  0.00    +0.000 HD
ATOM     36  H2  UNL     1      52.564   9.615  15.241  0.00  0.00    +0.000 HD
ENDBRANCH  33  34
BRANCH  33  37
ATOM     37  C   UNL     1      51.472   8.590  12.256  0.00  0.00    +0.000 C 
BRANCH  37  38
ATOM     38  O   UNL     1      50.877   7.391  11.750  0.00  0.00    +0.000 OA
ATOM     39  H   UNL     1      51.364   6.659  12.181  0.00  0.00    +0.000 HD
ENDBRANCH  37  38
ENDBRANCH  33  37
ENDBRANCH  32  33
ENDBRANCH   1  32
TORSDOF 13
ENDMDL
MODEL 6
REMARK VINA RESULT:    -6.923      1.611      1.969
REMARK INTER + INTRA:         -13.166
REMARK INTER:                 -11.633
REMARK INTRA:                  -1.533
REMARK UNBOUND:                -1.387
REMARK  Name = 
REMARK  13 active torsions:
REMARK  status: ('A' for Active; 'I' for Inactive)
REMARK    1  A    between atoms: N_1  and  CA_2
REMARK    2  A    between atoms: CA_2  and  C_3
REMARK    3  A    between atoms: CA_2  and  C_5
REMARK    4  A    between atoms: C_3  and  O_4
REMARK    5  A    between atoms: C_5  and  C_6
REMARK    6  A    between atoms: C_6  and  N_7
REMARK    7  A    between atoms: C_6  and  C_24
REMARK    8  A    between atoms: N_7  and  C_8
REMARK    9  A    between atoms: C_8  and  C_9
REMARK   10  A    between atoms: C_12  and  C_13
REMARK   11  A    between atoms: C_13  and  N_14
REMARK   12  A    between atoms: N_14  and  C_15
REMARK   13  A    between atoms: C_15  and  C_16
REMARK                            x       y       z     vdW  Elec       q    Type
REMARK                         _______ _______ _______ _____ _____    ______ ____
ROOT
ATOM      1  C   UNL     1      48.138   6.893  16.519  0.00  0.00    +0.000 C 
ENDROOT
BRANCH   1   2
ATOM      2  C   UNL     1      49.025   7.934  17.192  0.00  0.00    +0.000 A 
ATOM      3  C   UNL     1      49.791   8.847  16.476  0.00  0.00    +0.000 A 
ATOM      4  S   UNL     1      51.123   9.439  17.373  0.00  0.00    +0.000 S 
ATOM      5  C   UNL     1      50.602   8.634  18.779  0.00  0.00    +0.000 A 
ATOM      6  N   UNL     1      51.348   8.637  19.917  0.00  0.00    +0.000 NA
ATOM      7  C   UNL     1      50.769   8.076  20.928  0.00  0.00    +0.000 A 
ATOM      8  N   UNL     1      49.504   7.548  20.912  0.00  0.00    +0.000 N 
ATOM      9  C   UNL     1      48.707   7.541  19.787  0.00  0.00    +0.000 A 
ATOM     10  O   UNL     1      47.521   7.238  19.860  0.00  0.00    +0.000 OA
ATOM     11  C   UNL     1      49.364   8.041  18.594  0.00  0.00    +0.000 A 
ATOM     12  H   UNL     1      49.060   7.250  21.766  0.00  0.00    +0.000 HD
ENDBRANCH   1   2
BRANCH   1  13
ATOM     13  N   UNL     1      48.075   7.325  15.099  0.00  0.00    +0.000 NA
ATOM     14  H   UNL     1      47.142   7.692  14.903  0.00  0.00    +0.000 HD
BRANCH  13  15
ATOM     15  C   UNL     1      48.336   6.247  14.143  0.00  0.00    +0.000 C 
BRANCH  15  16
ATOM     16  C   UNL     1      47.147   5.914  13.264  0.00  0.00    +0.000 A 
ATOM     17  C   UNL     1      46.158   5.016  13.697  0.00  0.00    +0.000 A 
ATOM     18  C   UNL     1      44.977   4.835  12.959  0.00  0.00    +0.000 A 
ATOM     19  C   UNL     1      44.766   5.559  11.780  0.00  0.00    +0.000 A 
ATOM     20  C   UNL     1      45.765   6.435  11.331  0.00  0.00    +0.000 A 
ATOM     21  C   UNL     1      46.943   6.614  12.069  0.00  0.00    +0.000 A 
BRANCH  19  22
ATOM     22  C   UNL     1      43.471   5.404  10.996  0.00  0.00    +0.000 C 
BRANCH  22  23
ATOM     23  N   UNL     1      43.708   4.844   9.667  0.00  0.00    +0.000 NA
ATOM     24  H   UNL     1      44.451   5.365   9.200  0.00  0.00    +0.000 HD
BRANCH  23  25
ATOM     25  C   UNL     1      44.136   3.433   9.747  0.00  0.00    +0.000 C 
BRANCH  25  26
ATOM     26  C   UNL     1      45.215   3.076   8.731  0.00  0.00    +0.000 A 
ATOM     27  N   UNL     1      45.634   1.790   8.689  0.00  0.00    +0.000 NA
ATOM     28  C   UNL     1      46.611   1.510   7.806  0.00  0.00    +0.000 A 
ATOM     29  C   UNL     1      47.170   2.441   6.965  0.00  0.00    +0.000 A 
ATOM     30  C   UNL     1      46.659   3.713   7.068  0.00  0.00    +0.000 A 
ATOM     31  N   UNL     1      45.685   4.057   7.931  0.00  0.00    +0.000 NA
ENDBRANCH  25  26
ENDBRANCH  23  25
ENDBRANCH  22  23
ENDBRANCH  19  22
ENDBRANCH  15  16
ENDBRANCH  13  15
ENDBRANCH   1  13
BRANCH   1  32
ATOM     32  C   UNL     1      48.552   5.416  16.615  0.00  0.00    +0.000 C 
BRANCH  32  33
ATOM     33  CA  UNL     1      47.472   4.373  16.914  0.00  0.00    +0.000 C 
BRANCH  33  34
ATOM     34  N   UNL     1      46.973   4.607  18.294  0.00  0.00    +0.000 NA
ATOM     35  H1  UNL     1      47.712   4.339  18.950  0.00  0.00    +0.000 HD
ATOM     36  H2  UNL     1      46.214   3.948  18.489  0.00  0.00    +0.000 HD
ENDBRANCH  33  34
BRANCH  33  37
ATOM     37  C   UNL     1      47.977   2.917  16.847  0.00  0.00    +0.000 C 
BRANCH  37  38
ATOM     38  O   UNL     1      48.325   2.582  15.500  0.00  0.00    +0.000 OA
ATOM     39  H   UNL     1      48.854   1.761  15.567  0.00  0.00    +0.000 HD
ENDBRANCH  37  38
ENDBRANCH  33  37
ENDBRANCH  32  33
ENDBRANCH   1  32
TORSDOF 13
ENDMDL
MODEL 7
REMARK VINA RESULT:    -6.533      3.239      8.686
REMARK INTER + INTRA:         -12.504
REMARK INTER:                 -10.686
REMARK INTRA:                  -1.818
REMARK UNBOUND:                -1.387
REMARK  Name = 
REMARK  13 active torsions:
REMARK  status: ('A' for Active; 'I' for Inactive)
REMARK    1  A    between atoms: N_1  and  CA_2
REMARK    2  A    between atoms: CA_2  and  C_3
REMARK    3  A    between atoms: CA_2  and  C_5
REMARK    4  A    between atoms: C_3  and  O_4
REMARK    5  A    between atoms: C_5  and  C_6
REMARK    6  A    between atoms: C_6  and  N_7
REMARK    7  A    between atoms: C_6  and  C_24
REMARK    8  A    between atoms: N_7  and  C_8
REMARK    9  A    between atoms: C_8  and  C_9
REMARK   10  A    between atoms: C_12  and  C_13
REMARK   11  A    between atoms: C_13  and  N_14
REMARK   12  A    between atoms: N_14  and  C_15
REMARK   13  A    between atoms: C_15  and  C_16
REMARK                            x       y       z     vdW  Elec       q    Type
REMARK                         _______ _______ _______ _____ _____    ______ ____
ROOT
ATOM      1  C   UNL     1      45.442   5.560  12.464  0.00  0.00    +0.000 C 
ENDROOT
BRANCH   1   2
ATOM      2  C   UNL     1      44.614   4.547  11.682  0.00  0.00    +0.000 A 
ATOM      3  C   UNL     1      43.576   3.822  12.255  0.00  0.00    +0.000 A 
ATOM      4  S   UNL     1      43.247   2.365  11.416  0.00  0.00    +0.000 S 
ATOM      5  C   UNL     1      44.351   2.764  10.184  0.00  0.00    +0.000 A 
ATOM      6  N   UNL     1      44.638   1.893   9.179  0.00  0.00    +0.000 NA
ATOM      7  C   UNL     1      45.409   2.381   8.263  0.00  0.00    +0.000 A 
ATOM      8  N   UNL     1      45.887   3.666   8.245  0.00  0.00    +0.000 N 
ATOM      9  C   UNL     1      45.607   4.586   9.232  0.00  0.00    +0.000 A 
ATOM     10  O   UNL     1      45.889   5.770   9.085  0.00  0.00    +0.000 OA
ATOM     11  C   UNL     1      44.852   4.045  10.347  0.00  0.00    +0.000 A 
ATOM     12  H   UNL     1      46.369   4.024   7.435  0.00  0.00    +0.000 HD
ENDBRANCH   1   2
BRANCH   1  13
ATOM     13  N   UNL     1      44.663   6.822  12.374  0.00  0.00    +0.000 NA
ATOM     14  H   UNL     1      43.843   6.667  11.785  0.00  0.00    +0.000 HD
BRANCH  13  15
ATOM     15  C   UNL     1      45.415   7.940  11.802  0.00  0.00    +0.000 C 
BRANCH  15  16
ATOM     16  C   UNL     1      46.768   8.156  12.448  0.00  0.00    +0.000 A 
ATOM     17  C   UNL     1      46.879   8.784  13.700  0.00  0.00    +0.000 A 
ATOM     18  C   UNL     1      48.110   8.835  14.374  0.00  0.00    +0.000 A 
ATOM     19  C   UNL     1      49.247   8.248  13.806  0.00  0.00    +0.000 A 
ATOM     20  C   UNL     1      49.145   7.647  12.544  0.00  0.00    +0.000 A 
ATOM     21  C   UNL     1      47.916   7.598  11.873  0.00  0.00    +0.000 A 
BRANCH  19  22
ATOM     22  C   UNL     1      50.576   8.259  14.548  0.00  0.00    +0.000 C 
BRANCH  22  23
ATOM     23  N   UNL     1      51.002   6.910  14.911  0.00  0.00    +0.000 NA
ATOM     24  H   UNL     1      51.726   6.590  14.267  0.00  0.00    +0.000 HD
BRANCH  23  25
ATOM     25  C   UNL     1      51.572   6.875  16.274  0.00  0.00    +0.000 C 
BRANCH  25  26
ATOM     26  C   UNL     1      50.799   5.966  17.223  0.00  0.00    +0.000 A 
ATOM     27  N   UNL     1      49.909   6.547  18.060  0.00  0.00    +0.000 NA
ATOM     28  C   UNL     1      49.265   5.725  18.910  0.00  0.00    +0.000 A 
ATOM     29  C   UNL     1      49.458   4.366  18.951  0.00  0.00    +0.000 A 
ATOM     30  C   UNL     1      50.365   3.870  18.045  0.00  0.00    +0.000 A 
ATOM     31  N   UNL     1      51.042   4.638  17.171  0.00  0.00    +0.000 NA
ENDBRANCH  25  26
ENDBRANCH  23  25
ENDBRANCH  22  23
ENDBRANCH  19  22
ENDBRANCH  15  16
ENDBRANCH  13  15
ENDBRANCH   1  13
BRANCH   1  32
ATOM     32  C   UNL     1      45.785   5.242  13.928  0.00  0.00    +0.000 C 
BRANCH  32  33
ATOM     33  CA  UNL     1      47.172   4.679  14.247  0.00  0.00    +0.000 C 
BRANCH  33  34
ATOM     34  N   UNL     1      47.188   3.243  13.864  0.00  0.00    +0.000 NA
ATOM     35  H1  UNL     1      47.362   2.690  14.707  0.00  0.00    +0.000 HD
ATOM     36  H2  UNL     1      48.007   3.065  13.273  0.00  0.00    +0.000 HD
ENDBRANCH  33  34
BRANCH  33  37
ATOM     37  C   UNL     1      47.550   4.761  15.740  0.00  0.00    +0.000 C 
BRANCH  37  38
ATOM     38  O   UNL     1      46.506   4.198  16.540  0.00  0.00    +0.000 OA
ATOM     39  H   UNL     1      46.877   4.135  17.443  0.00  0.00    +0.000 HD
ENDBRANCH  37  38
ENDBRANCH  33  37
ENDBRANCH  32  33
ENDBRANCH   1  32
TORSDOF 13
ENDMDL
MODEL 8
REMARK VINA RESULT:    -6.457      2.477      3.507
REMARK INTER + INTRA:         -12.374
REMARK INTER:                 -11.230
REMARK INTRA:                  -1.144
REMARK UNBOUND:                -1.387
REMARK  Name = 
REMARK  13 active torsions:
REMARK  status: ('A' for Active; 'I' for Inactive)
REMARK    1  A    between atoms: N_1  and  CA_2
REMARK    2  A    between atoms: CA_2  and  C_3
REMARK    3  A    between atoms: CA_2  and  C_5
REMARK    4  A    between atoms: C_3  and  O_4
REMARK    5  A    between atoms: C_5  and  C_6
REMARK    6  A    between atoms: C_6  and  N_7
REMARK    7  A    between atoms: C_6  and  C_24
REMARK    8  A    between atoms: N_7  and  C_8
REMARK    9  A    between atoms: C_8  and  C_9
REMARK   10  A    between atoms: C_12  and  C_13
REMARK   11  A    between atoms: C_13  and  N_14
REMARK   12  A    between atoms: N_14  and  C_15
REMARK   13  A    between atoms: C_15  and  C_16
REMARK                            x       y       z     vdW  Elec       q    Type
REMARK                         _______ _______ _______ _____ _____    ______ ____
ROOT
ATOM      1  C   UNL     1      48.115   5.066  17.329  0.00  0.00    +0.000 C 
ENDROOT
BRANCH   1   2
ATOM      2  C   UNL     1      49.317   4.148  17.144  0.00  0.00    +0.000 A 
ATOM      3  C   UNL     1      49.193   2.778  16.945  0.00  0.00    +0.000 A 
ATOM      4  S   UNL     1      50.603   1.916  17.395  0.00  0.00    +0.000 S 
ATOM      5  C   UNL     1      51.456   3.359  17.688  0.00  0.00    +0.000 A 
ATOM      6  N   UNL     1      52.716   3.347  18.201  0.00  0.00    +0.000 NA
ATOM      7  C   UNL     1      53.271   4.514  18.263  0.00  0.00    +0.000 A 
ATOM      8  N   UNL     1      52.694   5.679  17.828  0.00  0.00    +0.000 N 
ATOM      9  C   UNL     1      51.428   5.734  17.285  0.00  0.00    +0.000 A 
ATOM     10  O   UNL     1      51.024   6.752  16.734  0.00  0.00    +0.000 OA
ATOM     11  C   UNL     1      50.717   4.469  17.315  0.00  0.00    +0.000 A 
ATOM     12  H   UNL     1      53.229   6.531  17.778  0.00  0.00    +0.000 HD
ENDBRANCH   1   2
BRANCH   1  13
ATOM     13  N   UNL     1      47.174   4.665  16.252  0.00  0.00    +0.000 NA
ATOM     14  H   UNL     1      47.106   3.646  16.231  0.00  0.00    +0.000 HD
BRANCH  13  15
ATOM     15  C   UNL     1      47.581   5.109  14.918  0.00  0.00    +0.000 C 
BRANCH  15  16
ATOM     16  C   UNL     1      46.489   4.982  13.876  0.00  0.00    +0.000 A 
ATOM     17  C   UNL     1      45.883   6.122  13.322  0.00  0.00    +0.000 A 
ATOM     18  C   UNL     1      44.992   6.011  12.241  0.00  0.00    +0.000 A 
ATOM     19  C   UNL     1      44.703   4.755  11.694  0.00  0.00    +0.000 A 
ATOM     20  C   UNL     1      45.284   3.614  12.264  0.00  0.00    +0.000 A 
ATOM     21  C   UNL     1      46.171   3.726  13.343  0.00  0.00    +0.000 A 
BRANCH  19  22
ATOM     22  C   UNL     1      43.774   4.628  10.495  0.00  0.00    +0.000 C 
BRANCH  22  23
ATOM     23  N   UNL     1      44.148   3.504   9.640  0.00  0.00    +0.000 NA
ATOM     24  H   UNL     1      43.339   2.899   9.489  0.00  0.00    +0.000 HD
BRANCH  23  25
ATOM     25  C   UNL     1      44.610   3.966   8.316  0.00  0.00    +0.000 C 
BRANCH  25  26
ATOM     26  C   UNL     1      45.754   3.129   7.755  0.00  0.00    +0.000 A 
ATOM     27  N   UNL     1      46.549   3.702   6.822  0.00  0.00    +0.000 NA
ATOM     28  C   UNL     1      47.531   2.930   6.319  0.00  0.00    +0.000 A 
ATOM     29  C   UNL     1      47.759   1.633   6.712  0.00  0.00    +0.000 A 
ATOM     30  C   UNL     1      46.912   1.152   7.681  0.00  0.00    +0.000 A 
ATOM     31  N   UNL     1      45.911   1.872   8.221  0.00  0.00    +0.000 NA
ENDBRANCH  25  26
ENDBRANCH  23  25
ENDBRANCH  22  23
ENDBRANCH  19  22
ENDBRANCH  15  16
ENDBRANCH  13  15
ENDBRANCH   1  13
BRANCH   1  32
ATOM     32  C   UNL     1      47.404   5.066  18.692  0.00  0.00    +0.000 C 
BRANCH  32  33
ATOM     33  CA  UNL     1      47.870   6.060  19.759  0.00  0.00    +0.000 C 
BRANCH  33  34
ATOM     34  N   UNL     1      47.023   5.873  20.966  0.00  0.00    +0.000 NA
ATOM     35  H1  UNL     1      46.043   5.964  20.685  0.00  0.00    +0.000 HD
ATOM     36  H2  UNL     1      47.175   6.662  21.603  0.00  0.00    +0.000 HD
ENDBRANCH  33  34
BRANCH  33  37
ATOM     37  C   UNL     1      47.745   7.537  19.331  0.00  0.00    +0.000 C 
BRANCH  37  38
ATOM     38  O   UNL     1      48.951   7.964  18.692  0.00  0.00    +0.000 OA
ATOM     39  H   UNL     1      49.487   7.152  18.581  0.00  0.00    +0.000 HD
ENDBRANCH  37  38
ENDBRANCH  33  37
ENDBRANCH  32  33
ENDBRANCH   1  32
TORSDOF 13
ENDMDL
MODEL 9
REMARK VINA RESULT:    -6.407      1.950      2.357
REMARK INTER + INTRA:         -12.288
REMARK INTER:                 -11.013
REMARK INTRA:                  -1.275
REMARK UNBOUND:                -1.387
REMARK  Name = 
REMARK  13 active torsions:
REMARK  status: ('A' for Active; 'I' for Inactive)
REMARK    1  A    between atoms: N_1  and  CA_2
REMARK    2  A    between atoms: CA_2  and  C_3
REMARK    3  A    between atoms: CA_2  and  C_5
REMARK    4  A    between atoms: C_3  and  O_4
REMARK    5  A    between atoms: C_5  and  C_6
REMARK    6  A    between atoms: C_6  and  N_7
REMARK    7  A    between atoms: C_6  and  C_24
REMARK    8  A    between atoms: N_7  and  C_8
REMARK    9  A    between atoms: C_8  and  C_9
REMARK   10  A    between atoms: C_12  and  C_13
REMARK   11  A    between atoms: C_13  and  N_14
REMARK   12  A    between atoms: N_14  and  C_15
REMARK   13  A    between atoms: C_15  and  C_16
REMARK                            x       y       z     vdW  Elec       q    Type
REMARK                         _______ _______ _______ _____ _____    ______ ____
ROOT
ATOM      1  C   UNL     1      48.518   7.874  15.591  0.00  0.00    +0.000 C 
ENDROOT
BRANCH   1   2
ATOM      2  C   UNL     1      49.387   9.095  15.316  0.00  0.00    +0.000 A 
ATOM      3  C   UNL     1      49.237   9.886  14.183  0.00  0.00    +0.000 A 
ATOM      4  S   UNL     1      50.662  10.751  13.789  0.00  0.00    +0.000 S 
ATOM      5  C   UNL     1      51.436  10.230  15.212  0.00  0.00    +0.000 A 
ATOM      6  N   UNL     1      52.739  10.529  15.462  0.00  0.00    +0.000 NA
ATOM      7  C   UNL     1      53.150  10.158  16.630  0.00  0.00    +0.000 A 
ATOM      8  N   UNL     1      52.369   9.549  17.578  0.00  0.00    +0.000 N 
ATOM      9  C   UNL     1      51.041   9.244  17.374  0.00  0.00    +0.000 A 
ATOM     10  O   UNL     1      50.330   8.880  18.305  0.00  0.00    +0.000 OA
ATOM     11  C   UNL     1      50.569   9.524  16.031  0.00  0.00    +0.000 A 
ATOM     12  H   UNL     1      52.712   9.409  18.516  0.00  0.00    +0.000 HD
ENDBRANCH   1   2
BRANCH   1  13
ATOM     13  N   UNL     1      47.711   7.710  14.354  0.00  0.00    +0.000 NA
ATOM     14  H   UNL     1      46.745   7.496  14.611  0.00  0.00    +0.000 HD
BRANCH  13  15
ATOM     15  C   UNL     1      48.184   6.637  13.479  0.00  0.00    +0.000 C 
BRANCH  15  16
ATOM     16  C   UNL     1      47.072   5.929  12.731  0.00  0.00    +0.000 A 
ATOM     17  C   UNL     1      46.337   4.897  13.337  0.00  0.00    +0.000 A 
ATOM     18  C   UNL     1      45.203   4.356  12.710  0.00  0.00    +0.000 A 
ATOM     19  C   UNL     1      44.784   4.848  11.468  0.00  0.00    +0.000 A 
ATOM     20  C   UNL     1      45.533   5.858  10.848  0.00  0.00    +0.000 A 
ATOM     21  C   UNL     1      46.665   6.396  11.475  0.00  0.00    +0.000 A 
BRANCH  19  22
ATOM     22  C   UNL     1      43.531   4.300  10.800  0.00  0.00    +0.000 C 
BRANCH  22  23
ATOM     23  N   UNL     1      43.815   3.780   9.465  0.00  0.00    +0.000 NA
ATOM     24  H   UNL     1      44.417   4.431   8.960  0.00  0.00    +0.000 HD
BRANCH  23  25
ATOM     25  C   UNL     1      44.521   2.484   9.532  0.00  0.00    +0.000 C 
BRANCH  25  26
ATOM     26  C   UNL     1      45.614   2.342   8.479  0.00  0.00    +0.000 A 
ATOM     27  N   UNL     1      45.957   3.448   7.780  0.00  0.00    +0.000 NA
ATOM     28  C   UNL     1      46.901   3.287   6.834  0.00  0.00    +0.000 A 
ATOM     29  C   UNL     1      47.519   2.089   6.568  0.00  0.00    +0.000 A 
ATOM     30  C   UNL     1      47.117   1.031   7.348  0.00  0.00    +0.000 A 
ATOM     31  N   UNL     1      46.179   1.127   8.308  0.00  0.00    +0.000 NA
ENDBRANCH  25  26
ENDBRANCH  23  25
ENDBRANCH  22  23
ENDBRANCH  19  22
ENDBRANCH  15  16
ENDBRANCH  13  15
ENDBRANCH   1  13
BRANCH   1  32
ATOM     32  C   UNL     1      49.215   6.554  15.956  0.00  0.00    +0.000 C 
BRANCH  32  33
ATOM     33  CA  UNL     1      48.730   5.789  17.190  0.00  0.00    +0.000 C 
BRANCH  33  34
ATOM     34  N   UNL     1      49.853   4.953  17.687  0.00  0.00    +0.000 NA
ATOM     35  H1  UNL     1      50.063   4.246  16.977  0.00  0.00    +0.000 HD
ATOM     36  H2  UNL     1      49.531   4.409  18.494  0.00  0.00    +0.000 HD
ENDBRANCH  33  34
BRANCH  33  37
ATOM     37  C   UNL     1      47.542   4.846  16.910  0.00  0.00    +0.000 C 
BRANCH  37  38
ATOM     38  O   UNL     1      46.725   4.730  18.079  0.00  0.00    +0.000 OA
ATOM     39  H   UNL     1      45.802   4.777  17.755  0.00  0.00    +0.000 HD
ENDBRANCH  37  38
ENDBRANCH  33  37
ENDBRANCH  32  33
ENDBRANCH   1  32
TORSDOF 13
ENDMDL
