MODEL 1
REMARK VINA RESULT:    -8.256      0.000      0.000
REMARK INTER + INTRA:         -11.164
REMARK INTER:                 -10.669
REMARK INTRA:                  -0.495
REMARK UNBOUND:                -0.495
REMARK  Name = 
REMARK  5 active torsions:
REMARK  status: ('A' for Active; 'I' for Inactive)
REMARK    1  A    between atoms: C_2  and  C_5
REMARK    2  A    between atoms: C_9  and  C_10
REMARK    3  A    between atoms: C_10  and  O_11
REMARK    4  A    between atoms: O_11  and  C_12
REMARK    5  A    between atoms: C_17  and  C_18
REMARK                            x       y       z     vdW  Elec       q    Type
REMARK                         _______ _______ _______ _____ _____    ______ ____
ROOT
ATOM      1  C   UNL     1      44.943   4.385  12.322  0.00  0.00    +0.000 A 
ATOM      2  C   UNL     1      43.932   5.336  12.392  0.00  0.00    +0.000 A 
ATOM      3  C   UNL     1      44.261   6.677  12.607  0.00  0.00    +0.000 A 
ATOM      4  C   UNL     1      45.600   7.067  12.768  0.00  0.00    +0.000 A 
ATOM      5 CL   UNL     1      45.908   8.750  13.005  0.00  0.00    +0.000 Cl
ATOM      6  C   UNL     1      46.630   6.116  12.738  0.00  0.00    +0.000 A 
ATOM      7  C   UNL     1      46.267   4.774  12.536  0.00  0.00    +0.000 A 
ENDROOT
BRANCH   6   8
ATOM      8  C   UNL     1      48.108   6.433  12.923  0.00  0.00    +0.000 C 
ATOM      9  C   UNL     1      48.413   6.962  14.341  0.00  0.00    +0.000 C 
ATOM     10  C   UNL     1      49.835   7.492  14.446  0.00  0.00    +0.000 C 
ATOM     11  O   UNL     1      50.084   8.461  13.432  0.00  0.00    +0.000 OA
ATOM     12  C   UNL     1      50.012   7.894  12.126  0.00  0.00    +0.000 C 
ATOM     13  C   UNL     1      48.600   7.408  11.837  0.00  0.00    +0.000 C 
ENDBRANCH   6   8
BRANCH   1  14
ATOM     14  O   UNL     1      44.583   3.096  12.037  0.00  0.00    +0.000 OA
BRANCH  14  15
ATOM     15  C   UNL     1      43.896   2.947  10.784  0.00  0.00    +0.000 C 
BRANCH  15  20
ATOM     16  C   UNL     1      46.329   2.333   7.920  0.00  0.00    +0.000 A 
ATOM     17  C   UNL     1      46.429   3.638   7.460  0.00  0.00    +0.000 A 
ATOM     18  N   UNL     1      45.777   4.687   8.013  0.00  0.00    +0.000 NA
ATOM     19  C   UNL     1      44.995   4.425   9.084  0.00  0.00    +0.000 A 
ATOM     20  C   UNL     1      44.836   3.161   9.635  0.00  0.00    +0.000 A 
ATOM     21  C   UNL     1      45.505   2.098   9.022  0.00  0.00    +0.000 A 
BRANCH  16  23
ATOM     22  F   UNL     1      48.426   1.391   7.263  0.00  0.00    +0.000 F 
ATOM     23  C   UNL     1      47.075   1.222   7.257  0.00  0.00    +0.000 C 
ATOM     24  F   UNL     1      46.733   1.062   5.950  0.00  0.00    +0.000 F 
ATOM     25  F   UNL     1      46.850   0.017   7.850  0.00  0.00    +0.000 F 
ENDBRANCH  16  23
ENDBRANCH  15  20
ENDBRANCH  14  15
ENDBRANCH   1  14
TORSDOF 5
ENDMDL
MODEL 2
REMARK VINA RESULT:    -8.242      1.644      2.361
REMARK INTER + INTRA:         -11.146
REMARK INTER:                 -10.577
REMARK INTRA:                  -0.569
REMARK UNBOUND:                -0.495
REMARK  Name = 
REMARK  5 active torsions:
REMARK  status: ('A' for Active; 'I' for Inactive)
REMARK    1  A    between atoms: C_2  and  C_5
REMARK    2  A    between atoms: C_9  and  C_10
REMARK    3  A    between atoms: C_10  and  O_11
REMARK    4  A    between atoms: O_11  and  C_12
REMARK    5  A    between atoms: C_17  and  C_18
REMARK                            x       y       z     vdW  Elec       q    Type
REMARK                         _______ _______ _______ _____ _____    ______ ____
ROOT
ATOM      1  C   UNL     1      44.767   4.775  12.097  0.00  0.00    +0.000 A 
ATOM      2  C   UNL     1      45.479   3.845  12.845  0.00  0.00    +0.000 A 
ATOM      3  C   UNL     1      46.523   4.276  13.667  0.00  0.00    +0.000 A 
ATOM      4  C   UNL     1      46.867   5.635  13.732  0.00  0.00    +0.000 A 
ATOM      5 CL   UNL     1      48.156   6.073  14.796  0.00  0.00    +0.000 Cl
ATOM      6  C   UNL     1      46.185   6.583  12.955  0.00  0.00    +0.000 A 
ATOM      7  C   UNL     1      45.151   6.117  12.126  0.00  0.00    +0.000 A 
ENDROOT
BRANCH   6   8
ATOM      8  C   UNL     1      46.495   8.074  12.938  0.00  0.00    +0.000 C 
ATOM      9  C   UNL     1      45.307   8.904  12.405  0.00  0.00    +0.000 C 
ATOM     10  C   UNL     1      45.700  10.356  12.173  0.00  0.00    +0.000 C 
ATOM     11  O   UNL     1      46.849  10.435  11.333  0.00  0.00    +0.000 OA
ATOM     12  C   UNL     1      47.995   9.851  11.945  0.00  0.00    +0.000 C 
ATOM     13  C   UNL     1      47.785   8.358  12.147  0.00  0.00    +0.000 C 
ENDBRANCH   6   8
BRANCH   1  14
ATOM     14  O   UNL     1      43.706   4.321  11.361  0.00  0.00    +0.000 OA
BRANCH  14  15
ATOM     15  C   UNL     1      43.934   3.044  10.741  0.00  0.00    +0.000 C 
BRANCH  15  20
ATOM     16  C   UNL     1      46.310   2.231   7.880  0.00  0.00    +0.000 A 
ATOM     17  C   UNL     1      46.439   3.510   7.358  0.00  0.00    +0.000 A 
ATOM     18  N   UNL     1      45.822   4.601   7.869  0.00  0.00    +0.000 NA
ATOM     19  C   UNL     1      45.048   4.410   8.960  0.00  0.00    +0.000 A 
ATOM     20  C   UNL     1      44.863   3.179   9.572  0.00  0.00    +0.000 A 
ATOM     21  C   UNL     1      45.495   2.070   9.002  0.00  0.00    +0.000 A 
BRANCH  16  23
ATOM     22  F   UNL     1      46.743  -0.121   7.861  0.00  0.00    +0.000 F 
ATOM     23  C   UNL     1      47.017   1.071   7.261  0.00  0.00    +0.000 C 
ATOM     24  F   UNL     1      48.371   1.195   7.298  0.00  0.00    +0.000 F 
ATOM     25  F   UNL     1      46.696   0.906   5.947  0.00  0.00    +0.000 F 
ENDBRANCH  16  23
ENDBRANCH  15  20
ENDBRANCH  14  15
ENDBRANCH   1  14
TORSDOF 5
ENDMDL
MODEL 3
REMARK VINA RESULT:    -7.778      2.193      2.898
REMARK INTER + INTRA:         -10.546
REMARK INTER:                  -9.463
REMARK INTRA:                  -1.083
REMARK UNBOUND:                -0.495
REMARK  Name = 
REMARK  5 active torsions:
REMARK  status: ('A' for Active; 'I' for Inactive)
REMARK    1  A    between atoms: C_2  and  C_5
REMARK    2  A    between atoms: C_9  and  C_10
REMARK    3  A    between atoms: C_10  and  O_11
REMARK    4  A    between atoms: O_11  and  C_12
REMARK    5  A    between atoms: C_17  and  C_18
REMARK                            x       y       z     vdW  Elec       q    Type
REMARK                         _______ _______ _______ _____ _____    ______ ____
ROOT
ATOM      1  C   UNL     1      45.340   5.738  12.833  0.00  0.00    +0.000 A 
ATOM      2  C   UNL     1      46.003   4.823  13.642  0.00  0.00    +0.000 A 
ATOM      3  C   UNL     1      47.214   5.181  14.239  0.00  0.00    +0.000 A 
ATOM      4  C   UNL     1      47.772   6.449  14.016  0.00  0.00    +0.000 A 
ATOM      5 CL   UNL     1      49.260   6.809  14.817  0.00  0.00    +0.000 Cl
ATOM      6  C   UNL     1      47.137   7.372  13.172  0.00  0.00    +0.000 A 
ATOM      7  C   UNL     1      45.929   6.977  12.573  0.00  0.00    +0.000 A 
ENDROOT
BRANCH   6   8
ATOM      8  C   UNL     1      47.670   8.762  12.850  0.00  0.00    +0.000 C 
ATOM      9  C   UNL     1      46.550   9.717  12.384  0.00  0.00    +0.000 C 
ATOM     10  C   UNL     1      47.116  11.022  11.847  0.00  0.00    +0.000 C 
ATOM     11  O   UNL     1      48.081  10.768  10.829  0.00  0.00    +0.000 OA
ATOM     12  C   UNL     1      49.216  10.071  11.336  0.00  0.00    +0.000 C 
ATOM     13  C   UNL     1      48.815   8.687  11.822  0.00  0.00    +0.000 C 
ENDBRANCH   6   8
BRANCH   1  14
ATOM     14  O   UNL     1      44.122   5.373  12.326  0.00  0.00    +0.000 OA
BRANCH  14  15
ATOM     15  C   UNL     1      43.986   5.607  10.915  0.00  0.00    +0.000 C 
BRANCH  15  20
ATOM     16  C   UNL     1      45.585   3.217   8.420  0.00  0.00    +0.000 A 
ATOM     17  C   UNL     1      44.990   2.044   8.858  0.00  0.00    +0.000 A 
ATOM     18  N   UNL     1      44.113   1.978   9.888  0.00  0.00    +0.000 NA
ATOM     19  C   UNL     1      43.806   3.142  10.503  0.00  0.00    +0.000 A 
ATOM     20  C   UNL     1      44.330   4.373  10.136  0.00  0.00    +0.000 A 
ATOM     21  C   UNL     1      45.252   4.398   9.085  0.00  0.00    +0.000 A 
BRANCH  16  23
ATOM     22  F   UNL     1      45.970   2.949   6.075  0.00  0.00    +0.000 F 
ATOM     23  C   UNL     1      46.549   3.214   7.279  0.00  0.00    +0.000 C 
ATOM     24  F   UNL     1      47.534   2.287   7.422  0.00  0.00    +0.000 F 
ATOM     25  F   UNL     1      47.183   4.410   7.129  0.00  0.00    +0.000 F 
ENDBRANCH  16  23
ENDBRANCH  15  20
ENDBRANCH  14  15
ENDBRANCH   1  14
TORSDOF 5
ENDMDL
MODEL 4
REMARK VINA RESULT:    -7.469      2.401      3.118
REMARK INTER + INTRA:         -10.147
REMARK INTER:                  -9.424
REMARK INTRA:                  -0.722
REMARK UNBOUND:                -0.495
REMARK  Name = 
REMARK  5 active torsions:
REMARK  status: ('A' for Active; 'I' for Inactive)
REMARK    1  A    between atoms: C_2  and  C_5
REMARK    2  A    between atoms: C_9  and  C_10
REMARK    3  A    between atoms: C_10  and  O_11
REMARK    4  A    between atoms: O_11  and  C_12
REMARK    5  A    between atoms: C_17  and  C_18
REMARK                            x       y       z     vdW  Elec       q    Type
REMARK                         _______ _______ _______ _____ _____    ______ ____
ROOT
ATOM      1  C   UNL     1      45.355   5.406  12.088  0.00  0.00    +0.000 A 
ATOM      2  C   UNL     1      45.892   6.381  11.256  0.00  0.00    +0.000 A 
ATOM      3  C   UNL     1      47.137   6.938  11.559  0.00  0.00    +0.000 A 
ATOM      4  C   UNL     1      47.841   6.532  12.703  0.00  0.00    +0.000 A 
ATOM      5 CL   UNL     1      49.383   7.260  12.980  0.00  0.00    +0.000 Cl
ATOM      6  C   UNL     1      47.298   5.578  13.576  0.00  0.00    +0.000 A 
ATOM      7  C   UNL     1      46.037   5.048  13.253  0.00  0.00    +0.000 A 
ENDROOT
BRANCH   6   8
ATOM      8  C   UNL     1      47.971   5.088  14.852  0.00  0.00    +0.000 C 
ATOM      9  C   UNL     1      47.150   3.981  15.549  0.00  0.00    +0.000 C 
ATOM     10  C   UNL     1      47.703   3.662  16.929  0.00  0.00    +0.000 C 
ATOM     11  O   UNL     1      47.807   4.847  17.714  0.00  0.00    +0.000 OA
ATOM     12  C   UNL     1      48.743   5.769  17.161  0.00  0.00    +0.000 C 
ATOM     13  C   UNL     1      48.264   6.262  15.804  0.00  0.00    +0.000 C 
ENDBRANCH   6   8
BRANCH   1  14
ATOM     14  O   UNL     1      44.169   4.836  11.716  0.00  0.00    +0.000 OA
BRANCH  14  15
ATOM     15  C   UNL     1      43.883   4.952  10.313  0.00  0.00    +0.000 C 
BRANCH  15  20
ATOM     16  C   UNL     1      45.938   2.956   7.804  0.00  0.00    +0.000 A 
ATOM     17  C   UNL     1      45.681   1.687   8.301  0.00  0.00    +0.000 A 
ATOM     18  N   UNL     1      44.893   1.439   9.374  0.00  0.00    +0.000 NA
ATOM     19  C   UNL     1      44.324   2.508   9.973  0.00  0.00    +0.000 A 
ATOM     20  C   UNL     1      44.500   3.818   9.550  0.00  0.00    +0.000 A 
ATOM     21  C   UNL     1      45.340   4.037   8.454  0.00  0.00    +0.000 A 
BRANCH  16  23
ATOM     22  F   UNL     1      46.423   2.463   5.515  0.00  0.00    +0.000 F 
ATOM     23  C   UNL     1      46.822   3.156   6.618  0.00  0.00    +0.000 C 
ATOM     24  F   UNL     1      48.107   2.771   6.846  0.00  0.00    +0.000 F 
ATOM     25  F   UNL     1      46.888   4.460   6.231  0.00  0.00    +0.000 F 
ENDBRANCH  16  23
ENDBRANCH  15  20
ENDBRANCH  14  15
ENDBRANCH   1  14
TORSDOF 5
ENDMDL
MODEL 5
REMARK VINA RESULT:    -7.404      1.889      2.345
REMARK INTER + INTRA:         -10.063
REMARK INTER:                  -9.288
REMARK INTRA:                  -0.775
REMARK UNBOUND:                -0.495
REMARK  Name = 
REMARK  5 active torsions:
REMARK  status: ('A' for Active; 'I' for Inactive)
REMARK    1  A    between atoms: C_2  and  C_5
REMARK    2  A    between atoms: C_9  and  C_10
REMARK    3  A    between atoms: C_10  and  O_11
REMARK    4  A    between atoms: O_11  and  C_12
REMARK    5  A    between atoms: C_17  and  C_18
REMARK                            x       y       z     vdW  Elec       q    Type
REMARK                         _______ _______ _______ _____ _____    ______ ____
ROOT
ATOM      1  C   UNL     1      46.041   5.844  11.794  0.00  0.00    +0.000 A 
ATOM      2  C   UNL     1      45.551   4.860  12.644  0.00  0.00    +0.000 A 
ATOM      3  C   UNL     1      46.157   4.657  13.886  0.00  0.00    +0.000 A 
ATOM      4  C   UNL     1      47.263   5.427  14.275  0.00  0.00    +0.000 A 
ATOM      5 CL   UNL     1      47.928   5.119  15.840  0.00  0.00    +0.000 Cl
ATOM      6  C   UNL     1      47.796   6.398  13.416  0.00  0.00    +0.000 A 
ATOM      7  C   UNL     1      47.176   6.569  12.167  0.00  0.00    +0.000 A 
ENDROOT
BRANCH   6   8
ATOM      8  C   UNL     1      49.004   7.269  13.735  0.00  0.00    +0.000 C 
ATOM      9  C   UNL     1      48.609   8.542  14.514  0.00  0.00    +0.000 C 
ATOM     10  C   UNL     1      49.774   9.513  14.626  0.00  0.00    +0.000 C 
ATOM     11  O   UNL     1      50.313   9.800  13.338  0.00  0.00    +0.000 OA
ATOM     12  C   UNL     1      50.873   8.642  12.727  0.00  0.00    +0.000 C 
ATOM     13  C   UNL     1      49.790   7.608  12.455  0.00  0.00    +0.000 C 
ENDBRANCH   6   8
BRANCH   1  14
ATOM     14  O   UNL     1      45.375   6.059  10.619  0.00  0.00    +0.000 OA
BRANCH  14  15
ATOM     15  C   UNL     1      44.254   5.183  10.417  0.00  0.00    +0.000 C 
BRANCH  15  20
ATOM     16  C   UNL     1      45.934   2.936   7.843  0.00  0.00    +0.000 A 
ATOM     17  C   UNL     1      45.429   1.720   8.280  0.00  0.00    +0.000 A 
ATOM     18  N   UNL     1      44.589   1.584   9.332  0.00  0.00    +0.000 NA
ATOM     19  C   UNL     1      44.224   2.716   9.973  0.00  0.00    +0.000 A 
ATOM     20  C   UNL     1      44.656   3.984   9.610  0.00  0.00    +0.000 A 
ATOM     21  C   UNL     1      45.543   4.084   8.534  0.00  0.00    +0.000 A 
BRANCH  16  23
ATOM     22  F   UNL     1      48.179   2.990   7.022  0.00  0.00    +0.000 F 
ATOM     23  C   UNL     1      46.862   3.011   6.676  0.00  0.00    +0.000 C 
ATOM     24  F   UNL     1      46.697   4.143   5.940  0.00  0.00    +0.000 F 
ATOM     25  F   UNL     1      46.692   1.975   5.807  0.00  0.00    +0.000 F 
ENDBRANCH  16  23
ENDBRANCH  15  20
ENDBRANCH  14  15
ENDBRANCH   1  14
TORSDOF 5
ENDMDL
MODEL 6
REMARK VINA RESULT:    -7.338      2.857      4.046
REMARK INTER + INTRA:          -9.977
REMARK INTER:                  -9.052
REMARK INTRA:                  -0.926
REMARK UNBOUND:                -0.495
REMARK  Name = 
REMARK  5 active torsions:
REMARK  status: ('A' for Active; 'I' for Inactive)
REMARK    1  A    between atoms: C_2  and  C_5
REMARK    2  A    between atoms: C_9  and  C_10
REMARK    3  A    between atoms: C_10  and  O_11
REMARK    4  A    between atoms: O_11  and  C_12
REMARK    5  A    between atoms: C_17  and  C_18
REMARK                            x       y       z     vdW  Elec       q    Type
REMARK                         _______ _______ _______ _____ _____    ______ ____
ROOT
ATOM      1  C   UNL     1      47.144   7.105  12.466  0.00  0.00    +0.000 A 
ATOM      2  C   UNL     1      48.160   8.002  12.162  0.00  0.00    +0.000 A 
ATOM      3  C   UNL     1      49.281   8.082  12.994  0.00  0.00    +0.000 A 
ATOM      4  C   UNL     1      49.380   7.276  14.138  0.00  0.00    +0.000 A 
ATOM      5 CL   UNL     1      50.814   7.429  15.089  0.00  0.00    +0.000 Cl
ATOM      6  C   UNL     1      48.346   6.392  14.482  0.00  0.00    +0.000 A 
ATOM      7  C   UNL     1      47.226   6.346  13.636  0.00  0.00    +0.000 A 
ENDROOT
BRANCH   6   8
ATOM      8  C   UNL     1      48.348   5.493  15.711  0.00  0.00    +0.000 C 
ATOM      9  C   UNL     1      47.257   4.404  15.631  0.00  0.00    +0.000 C 
ATOM     10  C   UNL     1      47.111   3.661  16.950  0.00  0.00    +0.000 C 
ATOM     11  O   UNL     1      46.897   4.578  18.020  0.00  0.00    +0.000 OA
ATOM     12  C   UNL     1      48.019   5.435  18.217  0.00  0.00    +0.000 C 
ATOM     13  C   UNL     1      48.227   6.324  17.001  0.00  0.00    +0.000 C 
ENDBRANCH   6   8
BRANCH   1  14
ATOM     14  O   UNL     1      46.099   7.007  11.588  0.00  0.00    +0.000 OA
BRANCH  14  15
ATOM     15  C   UNL     1      44.987   6.249  12.091  0.00  0.00    +0.000 C 
BRANCH  15  20
ATOM     16  C   UNL     1      45.171   3.699   9.269  0.00  0.00    +0.000 A 
ATOM     17  C   UNL     1      44.236   2.797   9.755  0.00  0.00    +0.000 A 
ATOM     18  N   UNL     1      43.556   2.961  10.913  0.00  0.00    +0.000 NA
ATOM     19  C   UNL     1      43.812   4.086  11.617  0.00  0.00    +0.000 A 
ATOM     20  C   UNL     1      44.714   5.061  11.216  0.00  0.00    +0.000 A 
ATOM     21  C   UNL     1      45.416   4.845  10.027  0.00  0.00    +0.000 A 
BRANCH  16  23
ATOM     22  F   UNL     1      46.794   4.416   7.666  0.00  0.00    +0.000 F 
ATOM     23  C   UNL     1      45.888   3.449   7.983  0.00  0.00    +0.000 C 
ATOM     24  F   UNL     1      45.049   3.371   6.917  0.00  0.00    +0.000 F 
ATOM     25  F   UNL     1      46.585   2.278   7.995  0.00  0.00    +0.000 F 
ENDBRANCH  16  23
ENDBRANCH  15  20
ENDBRANCH  14  15
ENDBRANCH   1  14
TORSDOF 5
ENDMDL
MODEL 7
REMARK VINA RESULT:    -7.219      2.448      3.431
REMARK INTER + INTRA:          -9.824
REMARK INTER:                  -8.942
REMARK INTRA:                  -0.882
REMARK UNBOUND:                -0.495
REMARK  Name = 
REMARK  5 active torsions:
REMARK  status: ('A' for Active; 'I' for Inactive)
REMARK    1  A    between atoms: C_2  and  C_5
REMARK    2  A    between atoms: C_9  and  C_10
REMARK    3  A    between atoms: C_10  and  O_11
REMARK    4  A    between atoms: O_11  and  C_12
REMARK    5  A    between atoms: C_17  and  C_18
REMARK                            x       y       z     vdW  Elec       q    Type
REMARK                         _______ _______ _______ _____ _____    ______ ____
ROOT
ATOM      1  C   UNL     1      46.579   6.265  12.866  0.00  0.00    +0.000 A 
ATOM      2  C   UNL     1      47.191   6.923  11.806  0.00  0.00    +0.000 A 
ATOM      3  C   UNL     1      48.454   7.493  11.985  0.00  0.00    +0.000 A 
ATOM      4  C   UNL     1      49.102   7.419  13.228  0.00  0.00    +0.000 A 
ATOM      5 CL   UNL     1      50.671   8.131  13.344  0.00  0.00    +0.000 Cl
ATOM      6  C   UNL     1      48.483   6.792  14.320  0.00  0.00    +0.000 A 
ATOM      7  C   UNL     1      47.207   6.243  14.114  0.00  0.00    +0.000 A 
ENDROOT
BRANCH   6   8
ATOM      8  C   UNL     1      49.091   6.678  15.712  0.00  0.00    +0.000 C 
ATOM      9  C   UNL     1      48.566   5.441  16.471  0.00  0.00    +0.000 C 
ATOM     10  C   UNL     1      48.994   5.459  17.931  0.00  0.00    +0.000 C 
ATOM     11  O   UNL     1      48.615   6.686  18.549  0.00  0.00    +0.000 OA
ATOM     12  C   UNL     1      49.286   7.801  17.969  0.00  0.00    +0.000 C 
ATOM     13  C   UNL     1      48.871   7.973  16.515  0.00  0.00    +0.000 C 
ENDBRANCH   6   8
BRANCH   1  14
ATOM     14  O   UNL     1      45.375   5.659  12.629  0.00  0.00    +0.000 OA
BRANCH  14  15
ATOM     15  C   UNL     1      44.808   5.977  11.347  0.00  0.00    +0.000 C 
BRANCH  15  20
ATOM     16  C   UNL     1      45.522   3.453   8.587  0.00  0.00    +0.000 A 
ATOM     17  C   UNL     1      44.674   2.443   9.016  0.00  0.00    +0.000 A 
ATOM     18  N   UNL     1      43.894   2.528  10.119  0.00  0.00    +0.000 NA
ATOM     19  C   UNL     1      43.953   3.681  10.822  0.00  0.00    +0.000 A 
ATOM     20  C   UNL     1      44.753   4.759  10.474  0.00  0.00    +0.000 A 
ATOM     21  C   UNL     1      45.564   4.626   9.343  0.00  0.00    +0.000 A 
BRANCH  16  23
ATOM     22  F   UNL     1      47.259   2.270   7.447  0.00  0.00    +0.000 F 
ATOM     23  C   UNL     1      46.359   3.288   7.362  0.00  0.00    +0.000 C 
ATOM     24  F   UNL     1      47.090   4.397   7.067  0.00  0.00    +0.000 F 
ATOM     25  F   UNL     1      45.612   3.030   6.252  0.00  0.00    +0.000 F 
ENDBRANCH  16  23
ENDBRANCH  15  20
ENDBRANCH  14  15
ENDBRANCH   1  14
TORSDOF 5
ENDMDL
MODEL 8
REMARK VINA RESULT:    -6.972      1.879      2.702
REMARK INTER + INTRA:          -9.505
REMARK INTER:                  -8.840
REMARK INTRA:                  -0.665
REMARK UNBOUND:                -0.495
REMARK  Name = 
REMARK  5 active torsions:
REMARK  status: ('A' for Active; 'I' for Inactive)
REMARK    1  A    between atoms: C_2  and  C_5
REMARK    2  A    between atoms: C_9  and  C_10
REMARK    3  A    between atoms: C_10  and  O_11
REMARK    4  A    between atoms: O_11  and  C_12
REMARK    5  A    between atoms: C_17  and  C_18
REMARK                            x       y       z     vdW  Elec       q    Type
REMARK                         _______ _______ _______ _____ _____    ______ ____
ROOT
ATOM      1  C   UNL     1      46.180   6.813  12.251  0.00  0.00    +0.000 A 
ATOM      2  C   UNL     1      45.547   8.050  12.216  0.00  0.00    +0.000 A 
ATOM      3  C   UNL     1      46.314   9.218  12.229  0.00  0.00    +0.000 A 
ATOM      4  C   UNL     1      47.715   9.151  12.292  0.00  0.00    +0.000 A 
ATOM      5 CL   UNL     1      48.577  10.648  12.279  0.00  0.00    +0.000 Cl
ATOM      6  C   UNL     1      48.369   7.913  12.367  0.00  0.00    +0.000 A 
ATOM      7  C   UNL     1      47.571   6.757  12.368  0.00  0.00    +0.000 A 
ENDROOT
BRANCH   6   8
ATOM      8  C   UNL     1      49.879   7.735  12.459  0.00  0.00    +0.000 C 
ATOM      9  C   UNL     1      50.475   8.482  13.672  0.00  0.00    +0.000 C 
ATOM     10  C   UNL     1      51.996   8.493  13.629  0.00  0.00    +0.000 C 
ATOM     11  O   UNL     1      52.457   9.009  12.382  0.00  0.00    +0.000 OA
ATOM     12  C   UNL     1      52.077   8.177  11.290  0.00  0.00    +0.000 C 
ATOM     13  C   UNL     1      50.563   8.152  11.144  0.00  0.00    +0.000 C 
ENDBRANCH   6   8
BRANCH   1  14
ATOM     14  O   UNL     1      45.396   5.695  12.163  0.00  0.00    +0.000 OA
BRANCH  14  15
ATOM     15  C   UNL     1      44.456   5.729  11.076  0.00  0.00    +0.000 C 
BRANCH  15  20
ATOM     16  C   UNL     1      45.667   3.319   8.390  0.00  0.00    +0.000 A 
ATOM     17  C   UNL     1      44.906   2.217   8.752  0.00  0.00    +0.000 A 
ATOM     18  N   UNL     1      44.035   2.207   9.788  0.00  0.00    +0.000 NA
ATOM     19  C   UNL     1      43.908   3.354  10.491  0.00  0.00    +0.000 A 
ATOM     20  C   UNL     1      44.608   4.518  10.205  0.00  0.00    +0.000 A 
ATOM     21  C   UNL     1      45.517   4.483   9.143  0.00  0.00    +0.000 A 
BRANCH  16  23
ATOM     22  F   UNL     1      46.009   2.979   6.048  0.00  0.00    +0.000 F 
ATOM     23  C   UNL     1      46.613   3.256   7.236  0.00  0.00    +0.000 C 
ATOM     24  F   UNL     1      47.571   2.303   7.389  0.00  0.00    +0.000 F 
ATOM     25  F   UNL     1      47.282   4.428   7.047  0.00  0.00    +0.000 F 
ENDBRANCH  16  23
ENDBRANCH  15  20
ENDBRANCH  14  15
ENDBRANCH   1  14
TORSDOF 5
ENDMDL
MODEL 9
REMARK VINA RESULT:    -6.839      4.760      7.728
REMARK INTER + INTRA:          -9.332
REMARK INTER:                  -8.203
REMARK INTRA:                  -1.129
REMARK UNBOUND:                -0.495
REMARK  Name = 
REMARK  5 active torsions:
REMARK  status: ('A' for Active; 'I' for Inactive)
REMARK    1  A    between atoms: C_2  and  C_5
REMARK    2  A    between atoms: C_9  and  C_10
REMARK    3  A    between atoms: C_10  and  O_11
REMARK    4  A    between atoms: O_11  and  C_12
REMARK    5  A    between atoms: C_17  and  C_18
REMARK                            x       y       z     vdW  Elec       q    Type
REMARK                         _______ _______ _______ _____ _____    ______ ____
ROOT
ATOM      1  C   UNL     1      48.216   7.027  13.389  0.00  0.00    +0.000 A 
ATOM      2  C   UNL     1      48.081   8.392  13.163  0.00  0.00    +0.000 A 
ATOM      3  C   UNL     1      46.938   8.875  12.523  0.00  0.00    +0.000 A 
ATOM      4  C   UNL     1      45.933   7.994  12.093  0.00  0.00    +0.000 A 
ATOM      5 CL   UNL     1      44.546   8.689  11.334  0.00  0.00    +0.000 Cl
ATOM      6  C   UNL     1      46.069   6.611  12.278  0.00  0.00    +0.000 A 
ATOM      7  C   UNL     1      47.237   6.153  12.910  0.00  0.00    +0.000 A 
ENDROOT
BRANCH   6   8
ATOM      8  C   UNL     1      45.049   5.572  11.830  0.00  0.00    +0.000 C 
ATOM      9  C   UNL     1      45.062   4.322  12.736  0.00  0.00    +0.000 C 
ATOM     10  C   UNL     1      44.213   3.202  12.154  0.00  0.00    +0.000 C 
ATOM     11  O   UNL     1      44.611   2.916  10.815  0.00  0.00    +0.000 OA
ATOM     12  C   UNL     1      44.383   4.023   9.947  0.00  0.00    +0.000 C 
ATOM     13  C   UNL     1      45.254   5.202  10.350  0.00  0.00    +0.000 C 
ENDBRANCH   6   8
BRANCH   1  14
ATOM     14  O   UNL     1      49.316   6.603  14.083  0.00  0.00    +0.000 OA
BRANCH  14  15
ATOM     15  C   UNL     1      49.572   7.353  15.282  0.00  0.00    +0.000 C 
BRANCH  15  20
ATOM     16  C   UNL     1      48.201   4.722  17.668  0.00  0.00    +0.000 A 
ATOM     17  C   UNL     1      47.894   5.558  18.731  0.00  0.00    +0.000 A 
ATOM     18  N   UNL     1      48.092   6.897  18.723  0.00  0.00    +0.000 NA
ATOM     19  C   UNL     1      48.611   7.431  17.595  0.00  0.00    +0.000 A 
ATOM     20  C   UNL     1      48.938   6.690  16.468  0.00  0.00    +0.000 A 
ATOM     21  C   UNL     1      48.743   5.307  16.523  0.00  0.00    +0.000 A 
BRANCH  16  23
ATOM     22  F   UNL     1      48.271   2.712  18.960  0.00  0.00    +0.000 F 
ATOM     23  C   UNL     1      47.959   3.251  17.749  0.00  0.00    +0.000 C 
ATOM     24  F   UNL     1      48.682   2.545  16.839  0.00  0.00    +0.000 F 
ATOM     25  F   UNL     1      46.656   2.924  17.522  0.00  0.00    +0.000 F 
ENDBRANCH  16  23
ENDBRANCH  15  20
ENDBRANCH  14  15
ENDBRANCH   1  14
TORSDOF 5
ENDMDL
