MODEL 1
REMARK VINA RESULT:    -9.006      0.000      0.000
REMARK INTER + INTRA:         -13.315
REMARK INTER:                 -12.165
REMARK INTRA:                  -1.149
REMARK UNBOUND:                -1.149
REMARK  Name = 
REMARK  6 active torsions:
REMARK  status: ('A' for Active; 'I' for Inactive)
REMARK    1  A    between atoms: C_2  and  C_4
REMARK    2  A    between atoms: C_7  and  N_8
REMARK    3  A    between atoms: N_8  and  C_9
REMARK    4  A    between atoms: C_9  and  C_10
REMARK    5  A    between atoms: C_10  and  C_13
REMARK    6  A    between atoms: C_17  and  C_18
REMARK                            x       y       z     vdW  Elec       q    Type
REMARK                         _______ _______ _______ _____ _____    ______ ____
ROOT
ATOM      1  C   UNL     1      43.270   5.114  12.530  0.00  0.00    +0.000 C 
ATOM      2  F   UNL     1      42.583   6.263  12.259  0.00  0.00    +0.000 F 
ATOM      3  F   UNL     1      42.649   4.580  13.630  0.00  0.00    +0.000 F 
ENDROOT
BRANCH   1   4
ATOM      4  C   UNL     1      44.741   5.390  12.787  0.00  0.00    +0.000 A 
ATOM      5  C   UNL     1      45.559   4.402  13.350  0.00  0.00    +0.000 A 
ATOM      6  C   UNL     1      46.910   4.653  13.573  0.00  0.00    +0.000 A 
ATOM      7  C   UNL     1      47.459   5.892  13.231  0.00  0.00    +0.000 A 
ATOM      8  C   UNL     1      46.680   6.907  12.647  0.00  0.00    +0.000 A 
ATOM      9  C   UNL     1      45.311   6.634  12.449  0.00  0.00    +0.000 A 
BRANCH   8  10
ATOM     10  C   UNL     1      47.281   8.194  12.227  0.00  0.00    +0.000 A 
ATOM     11  C   UNL     1      48.638   8.322  11.895  0.00  0.00    +0.000 A 
ATOM     12  C   UNL     1      49.170   9.559  11.527  0.00  0.00    +0.000 A 
ATOM     13  C   UNL     1      48.326  10.653  11.486  0.00  0.00    +0.000 A 
ATOM     14  N   UNL     1      47.016  10.590  11.787  0.00  0.00    +0.000 NA
ATOM     15  C   UNL     1      46.534   9.374  12.152  0.00  0.00    +0.000 A 
ENDBRANCH   8  10
ENDBRANCH   1   4
BRANCH   1  16
ATOM     16  C   UNL     1      43.079   4.125  11.351  0.00  0.00    +0.000 C 
BRANCH  16  17
ATOM     17  N   UNL     1      43.631   4.625  10.079  0.00  0.00    +0.000 N 
ATOM     18  H   UNL     1      42.964   5.115   9.487  0.00  0.00    +0.000 HD
BRANCH  17  22
ATOM     19  C   UNL     1      46.418   2.375   7.851  0.00  0.00    +0.000 A 
ATOM     20  C   UNL     1      46.375   3.762   7.701  0.00  0.00    +0.000 A 
ATOM     21  C   UNL     1      45.469   4.520   8.451  0.00  0.00    +0.000 A 
ATOM     22  C   UNL     1      44.612   3.924   9.383  0.00  0.00    +0.000 A 
ATOM     23  C   UNL     1      44.657   2.528   9.507  0.00  0.00    +0.000 A 
ATOM     24  C   UNL     1      45.546   1.756   8.747  0.00  0.00    +0.000 A 
BRANCH  19  26
ATOM     25  N   UNL     1      48.411   2.160   6.468  0.00  0.00    +0.000 N 
ATOM     26  C   UNL     1      47.335   1.535   7.038  0.00  0.00    +0.000 C 
ATOM     27  O   UNL     1      47.162   0.330   6.905  0.00  0.00    +0.000 OA
ATOM     28  H   UNL     1      49.079   1.562   5.998  0.00  0.00    +0.000 HD
ATOM     29  H   UNL     1      48.721   3.075   6.757  0.00  0.00    +0.000 HD
ENDBRANCH  19  26
ENDBRANCH  17  22
ENDBRANCH  16  17
ENDBRANCH   1  16
TORSDOF 6
ENDMDL
MODEL 2
REMARK VINA RESULT:    -8.911      2.195      3.623
REMARK INTER + INTRA:         -13.186
REMARK INTER:                 -12.057
REMARK INTRA:                  -1.129
REMARK UNBOUND:                -1.149
REMARK  Name = 
REMARK  6 active torsions:
REMARK  status: ('A' for Active; 'I' for Inactive)
REMARK    1  A    between atoms: C_2  and  C_4
REMARK    2  A    between atoms: C_7  and  N_8
REMARK    3  A    between atoms: N_8  and  C_9
REMARK    4  A    between atoms: C_9  and  C_10
REMARK    5  A    between atoms: C_10  and  C_13
REMARK    6  A    between atoms: C_17  and  C_18
REMARK                            x       y       z     vdW  Elec       q    Type
REMARK                         _______ _______ _______ _____ _____    ______ ____
ROOT
ATOM      1  C   UNL     1      43.556   5.188  12.260  0.00  0.00    +0.000 C 
ATOM      2  F   UNL     1      42.981   6.191  11.531  0.00  0.00    +0.000 F 
ATOM      3  F   UNL     1      42.804   5.104  13.403  0.00  0.00    +0.000 F 
ENDROOT
BRANCH   1   4
ATOM      4  C   UNL     1      45.015   5.483  12.561  0.00  0.00    +0.000 A 
ATOM      5  C   UNL     1      45.764   6.296  11.701  0.00  0.00    +0.000 A 
ATOM      6  C   UNL     1      47.098   6.575  11.985  0.00  0.00    +0.000 A 
ATOM      7  C   UNL     1      47.696   6.050  13.134  0.00  0.00    +0.000 A 
ATOM      8  C   UNL     1      46.977   5.244  14.035  0.00  0.00    +0.000 A 
ATOM      9  C   UNL     1      45.633   4.961  13.714  0.00  0.00    +0.000 A 
BRANCH   8  10
ATOM     10  C   UNL     1      47.596   4.744  15.284  0.00  0.00    +0.000 A 
ATOM     11  C   UNL     1      47.500   3.406  15.693  0.00  0.00    +0.000 A 
ATOM     12  C   UNL     1      48.078   2.982  16.891  0.00  0.00    +0.000 A 
ATOM     13  C   UNL     1      48.757   3.909  17.660  0.00  0.00    +0.000 A 
ATOM     14  N   UNL     1      48.888   5.203  17.316  0.00  0.00    +0.000 NA
ATOM     15  C   UNL     1      48.304   5.585  16.150  0.00  0.00    +0.000 A 
ENDBRANCH   8  10
ENDBRANCH   1   4
BRANCH   1  16
ATOM     16  C   UNL     1      43.397   3.853  11.488  0.00  0.00    +0.000 C 
BRANCH  16  17
ATOM     17  N   UNL     1      43.454   4.018  10.024  0.00  0.00    +0.000 N 
ATOM     18  H   UNL     1      42.559   3.920   9.548  0.00  0.00    +0.000 HD
BRANCH  17  22
ATOM     19  C   UNL     1      46.618   2.585   7.631  0.00  0.00    +0.000 A 
ATOM     20  C   UNL     1      46.351   3.955   7.673  0.00  0.00    +0.000 A 
ATOM     21  C   UNL     1      45.318   4.443   8.480  0.00  0.00    +0.000 A 
ATOM     22  C   UNL     1      44.551   3.591   9.282  0.00  0.00    +0.000 A 
ATOM     23  C   UNL     1      44.821   2.216   9.213  0.00  0.00    +0.000 A 
ATOM     24  C   UNL     1      45.840   1.713   8.394  0.00  0.00    +0.000 A 
BRANCH  19  26
ATOM     25  N   UNL     1      48.620   2.900   6.282  0.00  0.00    +0.000 N 
ATOM     26  C   UNL     1      47.677   2.028   6.751  0.00  0.00    +0.000 C 
ATOM     27  O   UNL     1      47.730   0.835   6.478  0.00  0.00    +0.000 OA
ATOM     28  H   UNL     1      49.390   2.494   5.764  0.00  0.00    +0.000 HD
ATOM     29  H   UNL     1      48.756   3.817   6.681  0.00  0.00    +0.000 HD
ENDBRANCH  19  26
ENDBRANCH  17  22
ENDBRANCH  16  17
ENDBRANCH   1  16
TORSDOF 6
ENDMDL
MODEL 3
REMARK VINA RESULT:    -8.203      1.589      2.450
REMARK INTER + INTRA:         -12.230
REMARK INTER:                 -11.395
REMARK INTRA:                  -0.834
REMARK UNBOUND:                -1.149
REMARK  Name = 
REMARK  6 active torsions:
REMARK  status: ('A' for Active; 'I' for Inactive)
REMARK    1  A    between atoms: C_2  and  C_4
REMARK    2  A    between atoms: C_7  and  N_8
REMARK    3  A    between atoms: N_8  and  C_9
REMARK    4  A    between atoms: C_9  and  C_10
REMARK    5  A    between atoms: C_10  and  C_13
REMARK    6  A    between atoms: C_17  and  C_18
REMARK                            x       y       z     vdW  Elec       q    Type
REMARK                         _______ _______ _______ _____ _____    ______ ____
ROOT
ATOM      1  C   UNL     1      44.720   4.743  12.320  0.00  0.00    +0.000 C 
ATOM      2  F   UNL     1      44.331   4.500  13.607  0.00  0.00    +0.000 F 
ATOM      3  F   UNL     1      45.643   3.769  12.039  0.00  0.00    +0.000 F 
ENDROOT
BRANCH   1   4
ATOM      4  C   UNL     1      45.301   6.138  12.167  0.00  0.00    +0.000 A 
ATOM      5  C   UNL     1      44.466   7.224  11.881  0.00  0.00    +0.000 A 
ATOM      6  C   UNL     1      44.999   8.504  11.754  0.00  0.00    +0.000 A 
ATOM      7  C   UNL     1      46.371   8.712  11.916  0.00  0.00    +0.000 A 
ATOM      8  C   UNL     1      47.245   7.653  12.220  0.00  0.00    +0.000 A 
ATOM      9  C   UNL     1      46.683   6.365  12.326  0.00  0.00    +0.000 A 
BRANCH   8  10
ATOM     10  C   UNL     1      48.688   7.890  12.456  0.00  0.00    +0.000 A 
ATOM     11  C   UNL     1      49.582   8.201  11.421  0.00  0.00    +0.000 A 
ATOM     12  C   UNL     1      50.940   8.393  11.683  0.00  0.00    +0.000 A 
ATOM     13  C   UNL     1      51.382   8.279  12.988  0.00  0.00    +0.000 A 
ATOM     14  N   UNL     1      50.571   7.988  14.022  0.00  0.00    +0.000 NA
ATOM     15  C   UNL     1      49.258   7.797  13.730  0.00  0.00    +0.000 A 
ENDBRANCH   8  10
ENDBRANCH   1   4
BRANCH   1  16
ATOM     16  C   UNL     1      43.505   4.531  11.379  0.00  0.00    +0.000 C 
BRANCH  16  17
ATOM     17  N   UNL     1      43.808   4.820   9.967  0.00  0.00    +0.000 N 
ATOM     18  H   UNL     1      43.057   5.277   9.453  0.00  0.00    +0.000 HD
BRANCH  17  22
ATOM     19  C   UNL     1      46.390   2.324   7.752  0.00  0.00    +0.000 A 
ATOM     20  C   UNL     1      45.443   1.754   8.604  0.00  0.00    +0.000 A 
ATOM     21  C   UNL     1      44.567   2.571   9.327  0.00  0.00    +0.000 A 
ATOM     22  C   UNL     1      44.592   3.965   9.198  0.00  0.00    +0.000 A 
ATOM     23  C   UNL     1      45.562   4.521   8.351  0.00  0.00    +0.000 A 
ATOM     24  C   UNL     1      46.458   3.714   7.637  0.00  0.00    +0.000 A 
BRANCH  19  26
ATOM     25  N   UNL     1      48.471   2.121   6.505  0.00  0.00    +0.000 N 
ATOM     26  C   UNL     1      47.365   1.489   7.005  0.00  0.00    +0.000 C 
ATOM     27  O   UNL     1      47.211   0.283   6.866  0.00  0.00    +0.000 OA
ATOM     28  H   UNL     1      49.174   1.527   6.083  0.00  0.00    +0.000 HD
ATOM     29  H   UNL     1      48.755   3.040   6.811  0.00  0.00    +0.000 HD
ENDBRANCH  19  26
ENDBRANCH  17  22
ENDBRANCH  16  17
ENDBRANCH   1  16
TORSDOF 6
ENDMDL
MODEL 4
REMARK VINA RESULT:    -8.039      2.029      2.641
REMARK INTER + INTRA:         -12.009
REMARK INTER:                 -11.388
REMARK INTRA:                  -0.621
REMARK UNBOUND:                -1.149
REMARK  Name = 
REMARK  6 active torsions:
REMARK  status: ('A' for Active; 'I' for Inactive)
REMARK    1  A    between atoms: C_2  and  C_4
REMARK    2  A    between atoms: C_7  and  N_8
REMARK    3  A    between atoms: N_8  and  C_9
REMARK    4  A    between atoms: C_9  and  C_10
REMARK    5  A    between atoms: C_10  and  C_13
REMARK    6  A    between atoms: C_17  and  C_18
REMARK                            x       y       z     vdW  Elec       q    Type
REMARK                         _______ _______ _______ _____ _____    ______ ____
ROOT
ATOM      1  C   UNL     1      44.637   4.263  12.440  0.00  0.00    +0.000 C 
ATOM      2  F   UNL     1      44.129   4.076  13.695  0.00  0.00    +0.000 F 
ATOM      3  F   UNL     1      45.535   3.242  12.265  0.00  0.00    +0.000 F 
ENDROOT
BRANCH   1   4
ATOM      4  C   UNL     1      45.291   5.626  12.299  0.00  0.00    +0.000 A 
ATOM      5  C   UNL     1      46.652   5.789  12.582  0.00  0.00    +0.000 A 
ATOM      6  C   UNL     1      47.253   7.037  12.441  0.00  0.00    +0.000 A 
ATOM      7  C   UNL     1      46.500   8.134  12.011  0.00  0.00    +0.000 A 
ATOM      8  C   UNL     1      45.134   8.012  11.700  0.00  0.00    +0.000 A 
ATOM      9  C   UNL     1      44.546   6.742  11.869  0.00  0.00    +0.000 A 
BRANCH   8  10
ATOM     10  C   UNL     1      44.357   9.162  11.183  0.00  0.00    +0.000 A 
ATOM     11  C   UNL     1      44.897  10.452  11.073  0.00  0.00    +0.000 A 
ATOM     12  C   UNL     1      44.122  11.514  10.604  0.00  0.00    +0.000 A 
ATOM     13  C   UNL     1      42.813  11.263  10.238  0.00  0.00    +0.000 A 
ATOM     14  N   UNL     1      42.242  10.047  10.316  0.00  0.00    +0.000 NA
ATOM     15  C   UNL     1      43.020   9.039  10.787  0.00  0.00    +0.000 A 
ENDBRANCH   8  10
ENDBRANCH   1   4
BRANCH   1  16
ATOM     16  C   UNL     1      43.497   4.073  11.404  0.00  0.00    +0.000 C 
BRANCH  16  17
ATOM     17  N   UNL     1      43.852   4.553  10.057  0.00  0.00    +0.000 N 
ATOM     18  H   UNL     1      43.076   4.938   9.522  0.00  0.00    +0.000 HD
BRANCH  17  22
ATOM     19  C   UNL     1      46.603   2.505   7.601  0.00  0.00    +0.000 A 
ATOM     20  C   UNL     1      46.532   3.897   7.545  0.00  0.00    +0.000 A 
ATOM     21  C   UNL     1      45.639   4.589   8.370  0.00  0.00    +0.000 A 
ATOM     22  C   UNL     1      44.822   3.918   9.287  0.00  0.00    +0.000 A 
ATOM     23  C   UNL     1      44.894   2.517   9.318  0.00  0.00    +0.000 A 
ATOM     24  C   UNL     1      45.770   1.813   8.482  0.00  0.00    +0.000 A 
BRANCH  19  26
ATOM     25  N   UNL     1      48.674   2.343   6.331  0.00  0.00    +0.000 N 
ATOM     26  C   UNL     1      47.507   1.736   6.707  0.00  0.00    +0.000 C 
ATOM     27  O   UNL     1      47.244   0.597   6.345  0.00  0.00    +0.000 OA
ATOM     28  H   UNL     1      49.325   1.776   5.802  0.00  0.00    +0.000 HD
ATOM     29  H   UNL     1      49.037   3.159   6.802  0.00  0.00    +0.000 HD
ENDBRANCH  19  26
ENDBRANCH  17  22
ENDBRANCH  16  17
ENDBRANCH   1  16
TORSDOF 6
ENDMDL
MODEL 5
REMARK VINA RESULT:    -7.976      2.515      3.396
REMARK INTER + INTRA:         -11.923
REMARK INTER:                 -10.816
REMARK INTRA:                  -1.108
REMARK UNBOUND:                -1.149
REMARK  Name = 
REMARK  6 active torsions:
REMARK  status: ('A' for Active; 'I' for Inactive)
REMARK    1  A    between atoms: C_2  and  C_4
REMARK    2  A    between atoms: C_7  and  N_8
REMARK    3  A    between atoms: N_8  and  C_9
REMARK    4  A    between atoms: C_9  and  C_10
REMARK    5  A    between atoms: C_10  and  C_13
REMARK    6  A    between atoms: C_17  and  C_18
REMARK                            x       y       z     vdW  Elec       q    Type
REMARK                         _______ _______ _______ _____ _____    ______ ____
ROOT
ATOM      1  C   UNL     1      45.202   4.376  12.603  0.00  0.00    +0.000 C 
ATOM      2  F   UNL     1      44.536   4.327  13.795  0.00  0.00    +0.000 F 
ATOM      3  F   UNL     1      45.702   3.112  12.424  0.00  0.00    +0.000 F 
ENDROOT
BRANCH   1   4
ATOM      4  C   UNL     1      46.301   5.424  12.620  0.00  0.00    +0.000 A 
ATOM      5  C   UNL     1      46.467   6.291  11.533  0.00  0.00    +0.000 A 
ATOM      6  C   UNL     1      47.467   7.260  11.556  0.00  0.00    +0.000 A 
ATOM      7  C   UNL     1      48.308   7.376  12.667  0.00  0.00    +0.000 A 
ATOM      8  C   UNL     1      48.165   6.537  13.788  0.00  0.00    +0.000 A 
ATOM      9  C   UNL     1      47.157   5.554  13.731  0.00  0.00    +0.000 A 
BRANCH   8  10
ATOM     10  C   UNL     1      49.015   6.707  14.989  0.00  0.00    +0.000 A 
ATOM     11  C   UNL     1      48.638   6.237  16.255  0.00  0.00    +0.000 A 
ATOM     12  C   UNL     1      49.458   6.440  17.367  0.00  0.00    +0.000 A 
ATOM     13  C   UNL     1      50.656   7.106  17.188  0.00  0.00    +0.000 A 
ATOM     14  N   UNL     1      51.074   7.574  15.998  0.00  0.00    +0.000 NA
ATOM     15  C   UNL     1      50.247   7.370  14.940  0.00  0.00    +0.000 A 
ENDBRANCH   8  10
ENDBRANCH   1   4
BRANCH   1  16
ATOM     16  C   UNL     1      44.180   4.647  11.468  0.00  0.00    +0.000 C 
BRANCH  16  17
ATOM     17  N   UNL     1      43.932   3.469  10.619  0.00  0.00    +0.000 N 
ATOM     18  H   UNL     1      43.618   2.639  11.119  0.00  0.00    +0.000 HD
BRANCH  17  22
ATOM     19  C   UNL     1      46.469   2.791   7.318  0.00  0.00    +0.000 A 
ATOM     20  C   UNL     1      45.988   1.706   8.052  0.00  0.00    +0.000 A 
ATOM     21  C   UNL     1      45.129   1.918   9.136  0.00  0.00    +0.000 A 
ATOM     22  C   UNL     1      44.706   3.203   9.493  0.00  0.00    +0.000 A 
ATOM     23  C   UNL     1      45.213   4.282   8.755  0.00  0.00    +0.000 A 
ATOM     24  C   UNL     1      46.090   4.085   7.681  0.00  0.00    +0.000 A 
BRANCH  19  26
ATOM     25  N   UNL     1      48.650   2.091   6.492  0.00  0.00    +0.000 N 
ATOM     26  C   UNL     1      47.419   2.606   6.190  0.00  0.00    +0.000 C 
ATOM     27  O   UNL     1      47.111   2.869   5.035  0.00  0.00    +0.000 OA
ATOM     28  H   UNL     1      49.252   1.880   5.706  0.00  0.00    +0.000 HD
ATOM     29  H   UNL     1      48.846   1.634   7.370  0.00  0.00    +0.000 HD
ENDBRANCH  19  26
ENDBRANCH  17  22
ENDBRANCH  16  17
ENDBRANCH   1  16
TORSDOF 6
ENDMDL
MODEL 6
REMARK VINA RESULT:    -7.777      3.496      7.107
REMARK INTER + INTRA:         -11.654
REMARK INTER:                 -10.603
REMARK INTRA:                  -1.051
REMARK UNBOUND:                -1.149
REMARK  Name = 
REMARK  6 active torsions:
REMARK  status: ('A' for Active; 'I' for Inactive)
REMARK    1  A    between atoms: C_2  and  C_4
REMARK    2  A    between atoms: C_7  and  N_8
REMARK    3  A    between atoms: N_8  and  C_9
REMARK    4  A    between atoms: C_9  and  C_10
REMARK    5  A    between atoms: C_10  and  C_13
REMARK    6  A    between atoms: C_17  and  C_18
REMARK                            x       y       z     vdW  Elec       q    Type
REMARK                         _______ _______ _______ _____ _____    ______ ____
ROOT
ATOM      1  C   UNL     1      45.719   7.585  11.936  0.00  0.00    +0.000 C 
ATOM      2  F   UNL     1      45.293   7.872  13.203  0.00  0.00    +0.000 F 
ATOM      3  F   UNL     1      45.498   8.733  11.220  0.00  0.00    +0.000 F 
ENDROOT
BRANCH   1   4
ATOM      4  C   UNL     1      44.973   6.399  11.352  0.00  0.00    +0.000 A 
ATOM      5  C   UNL     1      43.640   6.157  11.707  0.00  0.00    +0.000 A 
ATOM      6  C   UNL     1      42.954   5.075  11.161  0.00  0.00    +0.000 A 
ATOM      7  C   UNL     1      43.591   4.228  10.249  0.00  0.00    +0.000 A 
ATOM      8  C   UNL     1      44.923   4.443   9.851  0.00  0.00    +0.000 A 
ATOM      9  C   UNL     1      45.600   5.534  10.433  0.00  0.00    +0.000 A 
BRANCH   8  10
ATOM     10  C   UNL     1      45.571   3.581   8.836  0.00  0.00    +0.000 A 
ATOM     11  C   UNL     1      46.174   4.097   7.679  0.00  0.00    +0.000 A 
ATOM     12  C   UNL     1      46.753   3.247   6.735  0.00  0.00    +0.000 A 
ATOM     13  C   UNL     1      46.729   1.885   6.972  0.00  0.00    +0.000 A 
ATOM     14  N   UNL     1      46.172   1.333   8.066  0.00  0.00    +0.000 NA
ATOM     15  C   UNL     1      45.607   2.188   8.958  0.00  0.00    +0.000 A 
ENDBRANCH   8  10
ENDBRANCH   1   4
BRANCH   1  16
ATOM     16  C   UNL     1      47.248   7.332  11.966  0.00  0.00    +0.000 C 
BRANCH  16  17
ATOM     17  N   UNL     1      47.828   7.441  13.316  0.00  0.00    +0.000 N 
ATOM     18  H   UNL     1      48.642   8.050  13.385  0.00  0.00    +0.000 HD
BRANCH  17  22
ATOM     19  C   UNL     1      47.750   4.317  16.150  0.00  0.00    +0.000 A 
ATOM     20  C   UNL     1      47.087   4.160  14.932  0.00  0.00    +0.000 A 
ATOM     21  C   UNL     1      47.124   5.181  13.976  0.00  0.00    +0.000 A 
ATOM     22  C   UNL     1      47.842   6.362  14.195  0.00  0.00    +0.000 A 
ATOM     23  C   UNL     1      48.488   6.509  15.431  0.00  0.00    +0.000 A 
ATOM     24  C   UNL     1      48.442   5.502  16.404  0.00  0.00    +0.000 A 
BRANCH  19  26
ATOM     25  N   UNL     1      48.871   2.946  17.821  0.00  0.00    +0.000 N 
ATOM     26  C   UNL     1      47.694   3.273  17.205  0.00  0.00    +0.000 C 
ATOM     27  O   UNL     1      46.641   2.746  17.539  0.00  0.00    +0.000 OA
ATOM     28  H   UNL     1      48.807   2.305  18.602  0.00  0.00    +0.000 HD
ATOM     29  H   UNL     1      49.696   3.524  17.755  0.00  0.00    +0.000 HD
ENDBRANCH  19  26
ENDBRANCH  17  22
ENDBRANCH  16  17
ENDBRANCH   1  16
TORSDOF 6
ENDMDL
MODEL 7
REMARK VINA RESULT:    -7.593      2.827      6.736
REMARK INTER + INTRA:         -11.405
REMARK INTER:                 -10.490
REMARK INTRA:                  -0.916
REMARK UNBOUND:                -1.149
REMARK  Name = 
REMARK  6 active torsions:
REMARK  status: ('A' for Active; 'I' for Inactive)
REMARK    1  A    between atoms: C_2  and  C_4
REMARK    2  A    between atoms: C_7  and  N_8
REMARK    3  A    between atoms: N_8  and  C_9
REMARK    4  A    between atoms: C_9  and  C_10
REMARK    5  A    between atoms: C_10  and  C_13
REMARK    6  A    between atoms: C_17  and  C_18
REMARK                            x       y       z     vdW  Elec       q    Type
REMARK                         _______ _______ _______ _____ _____    ______ ____
ROOT
ATOM      1  C   UNL     1      44.226   6.232  11.423  0.00  0.00    +0.000 C 
ATOM      2  F   UNL     1      42.972   6.772  11.375  0.00  0.00    +0.000 F 
ATOM      3  F   UNL     1      44.991   7.040  10.622  0.00  0.00    +0.000 F 
ENDROOT
BRANCH   1   4
ATOM      4  C   UNL     1      44.231   4.790  10.946  0.00  0.00    +0.000 A 
ATOM      5  C   UNL     1      43.409   3.839  11.562  0.00  0.00    +0.000 A 
ATOM      6  C   UNL     1      43.406   2.520  11.115  0.00  0.00    +0.000 A 
ATOM      7  C   UNL     1      44.221   2.140  10.044  0.00  0.00    +0.000 A 
ATOM      8  C   UNL     1      45.049   3.065   9.385  0.00  0.00    +0.000 A 
ATOM      9  C   UNL     1      45.046   4.390   9.869  0.00  0.00    +0.000 A 
BRANCH   8  10
ATOM     10  C   UNL     1      45.860   2.672   8.210  0.00  0.00    +0.000 A 
ATOM     11  C   UNL     1      46.136   3.552   7.153  0.00  0.00    +0.000 A 
ATOM     12  C   UNL     1      46.885   3.133   6.051  0.00  0.00    +0.000 A 
ATOM     13  C   UNL     1      47.357   1.833   6.031  0.00  0.00    +0.000 A 
ATOM     14  N   UNL     1      47.129   0.947   7.018  0.00  0.00    +0.000 NA
ATOM     15  C   UNL     1      46.388   1.384   8.069  0.00  0.00    +0.000 A 
ENDBRANCH   8  10
ENDBRANCH   1   4
BRANCH   1  16
ATOM     16  C   UNL     1      44.769   6.350  12.871  0.00  0.00    +0.000 C 
BRANCH  16  17
ATOM     17  N   UNL     1      45.411   7.647  13.146  0.00  0.00    +0.000 N 
ATOM     18  H   UNL     1      44.804   8.457  13.033  0.00  0.00    +0.000 HD
BRANCH  17  22
ATOM     19  C   UNL     1      49.445   8.169  12.029  0.00  0.00    +0.000 A 
ATOM     20  C   UNL     1      48.538   9.213  11.843  0.00  0.00    +0.000 A 
ATOM     21  C   UNL     1      47.202   9.059  12.230  0.00  0.00    +0.000 A 
ATOM     22  C   UNL     1      46.747   7.881  12.834  0.00  0.00    +0.000 A 
ATOM     23  C   UNL     1      47.669   6.837  12.997  0.00  0.00    +0.000 A 
ATOM     24  C   UNL     1      49.004   6.972  12.595  0.00  0.00    +0.000 A 
BRANCH  19  26
ATOM     25  N   UNL     1      51.391   7.213  10.920  0.00  0.00    +0.000 N 
ATOM     26  C   UNL     1      50.859   8.283  11.589  0.00  0.00    +0.000 C 
ATOM     27  O   UNL     1      51.518   9.296  11.782  0.00  0.00    +0.000 OA
ATOM     28  H   UNL     1      52.321   7.338  10.542  0.00  0.00    +0.000 HD
ATOM     29  H   UNL     1      50.818   6.482  10.527  0.00  0.00    +0.000 HD
ENDBRANCH  19  26
ENDBRANCH  17  22
ENDBRANCH  16  17
ENDBRANCH   1  16
TORSDOF 6
ENDMDL
MODEL 8
REMARK VINA RESULT:    -7.441      3.730      7.493
REMARK INTER + INTRA:         -11.200
REMARK INTER:                 -10.294
REMARK INTRA:                  -0.906
REMARK UNBOUND:                -1.149
REMARK  Name = 
REMARK  6 active torsions:
REMARK  status: ('A' for Active; 'I' for Inactive)
REMARK    1  A    between atoms: C_2  and  C_4
REMARK    2  A    between atoms: C_7  and  N_8
REMARK    3  A    between atoms: N_8  and  C_9
REMARK    4  A    between atoms: C_9  and  C_10
REMARK    5  A    between atoms: C_10  and  C_13
REMARK    6  A    between atoms: C_17  and  C_18
REMARK                            x       y       z     vdW  Elec       q    Type
REMARK                         _______ _______ _______ _____ _____    ______ ____
ROOT
ATOM      1  C   UNL     1      45.314   6.082  12.038  0.00  0.00    +0.000 C 
ATOM      2  F   UNL     1      44.562   6.308  13.157  0.00  0.00    +0.000 F 
ATOM      3  F   UNL     1      45.108   7.180  11.245  0.00  0.00    +0.000 F 
ENDROOT
BRANCH   1   4
ATOM      4  C   UNL     1      44.908   4.794  11.343  0.00  0.00    +0.000 A 
ATOM      5  C   UNL     1      43.828   4.043  11.822  0.00  0.00    +0.000 A 
ATOM      6  C   UNL     1      43.449   2.869  11.176  0.00  0.00    +0.000 A 
ATOM      7  C   UNL     1      44.142   2.437  10.042  0.00  0.00    +0.000 A 
ATOM      8  C   UNL     1      45.221   3.169   9.516  0.00  0.00    +0.000 A 
ATOM      9  C   UNL     1      45.596   4.344  10.199  0.00  0.00    +0.000 A 
BRANCH   8  10
ATOM     10  C   UNL     1      45.910   2.742   8.276  0.00  0.00    +0.000 A 
ATOM     11  C   UNL     1      46.116   3.605   7.190  0.00  0.00    +0.000 A 
ATOM     12  C   UNL     1      46.748   3.154   6.029  0.00  0.00    +0.000 A 
ATOM     13  C   UNL     1      47.177   1.840   5.980  0.00  0.00    +0.000 A 
ATOM     14  N   UNL     1      47.013   0.969   6.992  0.00  0.00    +0.000 NA
ATOM     15  C   UNL     1      46.384   1.437   8.102  0.00  0.00    +0.000 A 
ENDBRANCH   8  10
ENDBRANCH   1   4
BRANCH   1  16
ATOM     16  C   UNL     1      46.813   6.060  12.438  0.00  0.00    +0.000 C 
BRANCH  16  17
ATOM     17  N   UNL     1      47.073   6.683  13.747  0.00  0.00    +0.000 N 
ATOM     18  H   UNL     1      47.429   7.637  13.703  0.00  0.00    +0.000 HD
BRANCH  17  22
ATOM     19  C   UNL     1      48.575   4.264  16.859  0.00  0.00    +0.000 A 
ATOM     20  C   UNL     1      49.111   5.536  16.655  0.00  0.00    +0.000 A 
ATOM     21  C   UNL     1      48.606   6.355  15.639  0.00  0.00    +0.000 A 
ATOM     22  C   UNL     1      47.543   5.944  14.829  0.00  0.00    +0.000 A 
ATOM     23  C   UNL     1      47.028   4.656  15.037  0.00  0.00    +0.000 A 
ATOM     24  C   UNL     1      47.538   3.818  16.037  0.00  0.00    +0.000 A 
BRANCH  19  26
ATOM     25  N   UNL     1      48.303   3.063  18.960  0.00  0.00    +0.000 N 
ATOM     26  C   UNL     1      49.117   3.350  17.898  0.00  0.00    +0.000 C 
ATOM     27  O   UNL     1      50.228   2.845  17.800  0.00  0.00    +0.000 OA
ATOM     28  H   UNL     1      48.644   2.366  19.610  0.00  0.00    +0.000 HD
ATOM     29  H   UNL     1      47.312   3.250  18.949  0.00  0.00    +0.000 HD
ENDBRANCH  19  26
ENDBRANCH  17  22
ENDBRANCH  16  17
ENDBRANCH   1  16
TORSDOF 6
ENDMDL
MODEL 9
REMARK VINA RESULT:    -6.962      4.196      7.600
REMARK INTER + INTRA:         -10.553
REMARK INTER:                  -9.374
REMARK INTRA:                  -1.179
REMARK UNBOUND:                -1.149
REMARK  Name = 
REMARK  6 active torsions:
REMARK  status: ('A' for Active; 'I' for Inactive)
REMARK    1  A    between atoms: C_2  and  C_4
REMARK    2  A    between atoms: C_7  and  N_8
REMARK    3  A    between atoms: N_8  and  C_9
REMARK    4  A    between atoms: C_9  and  C_10
REMARK    5  A    between atoms: C_10  and  C_13
REMARK    6  A    between atoms: C_17  and  C_18
REMARK                            x       y       z     vdW  Elec       q    Type
REMARK                         _______ _______ _______ _____ _____    ______ ____
ROOT
ATOM      1  C   UNL     1      48.856   8.153  12.244  0.00  0.00    +0.000 C 
ATOM      2  F   UNL     1      49.266   9.160  11.417  0.00  0.00    +0.000 F 
ATOM      3  F   UNL     1      49.678   7.095  11.951  0.00  0.00    +0.000 F 
ENDROOT
BRANCH   1   4
ATOM      4  C   UNL     1      47.392   7.813  12.026  0.00  0.00    +0.000 A 
ATOM      5  C   UNL     1      46.391   8.706  12.425  0.00  0.00    +0.000 A 
ATOM      6  C   UNL     1      45.050   8.398  12.213  0.00  0.00    +0.000 A 
ATOM      7  C   UNL     1      44.696   7.196  11.593  0.00  0.00    +0.000 A 
ATOM      8  C   UNL     1      45.668   6.277  11.161  0.00  0.00    +0.000 A 
ATOM      9  C   UNL     1      47.018   6.605  11.404  0.00  0.00    +0.000 A 
BRANCH   8  10
ATOM     10  C   UNL     1      45.290   5.035  10.447  0.00  0.00    +0.000 A 
ATOM     11  C   UNL     1      45.589   4.821   9.093  0.00  0.00    +0.000 A 
ATOM     12  C   UNL     1      45.192   3.646   8.451  0.00  0.00    +0.000 A 
ATOM     13  C   UNL     1      44.507   2.694   9.184  0.00  0.00    +0.000 A 
ATOM     14  N   UNL     1      44.199   2.841  10.485  0.00  0.00    +0.000 NA
ATOM     15  C   UNL     1      44.589   4.000  11.076  0.00  0.00    +0.000 A 
ENDBRANCH   8  10
ENDBRANCH   1   4
BRANCH   1  16
ATOM     16  C   UNL     1      49.125   8.570  13.714  0.00  0.00    +0.000 C 
BRANCH  16  17
ATOM     17  N   UNL     1      49.929   7.584  14.458  0.00  0.00    +0.000 N 
ATOM     18  H   UNL     1      50.742   7.230  13.958  0.00  0.00    +0.000 HD
BRANCH  17  22
ATOM     19  C   UNL     1      48.198   4.619  16.910  0.00  0.00    +0.000 A 
ATOM     20  C   UNL     1      49.315   5.323  17.363  0.00  0.00    +0.000 A 
ATOM     21  C   UNL     1      49.885   6.323  16.567  0.00  0.00    +0.000 A 
ATOM     22  C   UNL     1      49.342   6.666  15.324  0.00  0.00    +0.000 A 
ATOM     23  C   UNL     1      48.230   5.937  14.877  0.00  0.00    +0.000 A 
ATOM     24  C   UNL     1      47.663   4.920  15.656  0.00  0.00    +0.000 A 
BRANCH  19  26
ATOM     25  N   UNL     1      48.305   3.078  18.791  0.00  0.00    +0.000 N 
ATOM     26  C   UNL     1      47.596   3.521  17.708  0.00  0.00    +0.000 C 
ATOM     27  O   UNL     1      46.500   3.049  17.436  0.00  0.00    +0.000 OA
ATOM     28  H   UNL     1      47.843   2.398  19.382  0.00  0.00    +0.000 HD
ATOM     29  H   UNL     1      49.071   3.601  19.188  0.00  0.00    +0.000 HD
ENDBRANCH  19  26
ENDBRANCH  17  22
ENDBRANCH  16  17
ENDBRANCH   1  16
TORSDOF 6
ENDMDL
