MODEL 1
REMARK VINA RESULT:    -6.846      0.000      0.000
REMARK INTER + INTRA:         -10.480
REMARK INTER:                  -9.248
REMARK INTRA:                  -1.233
REMARK UNBOUND:                -1.233
REMARK  Name = 
REMARK  7 active torsions:
REMARK  status: ('A' for Active; 'I' for Inactive)
REMARK    1  A    between atoms: C_1  and  O_2
REMARK    2  A    between atoms: O_2  and  C_3
REMARK    3  A    between atoms: C_5  and  C_6
REMARK    4  A    between atoms: C_6  and  N_7
REMARK    5  A    between atoms: C_8  and  C_10
REMARK    6  A    between atoms: C_22  and  C_23
REMARK    7  A    between atoms: C_23  and  N_24
REMARK                            x       y       z     vdW  Elec       q    Type
REMARK                         _______ _______ _______ _____ _____    ______ ____
ROOT
ATOM      1  C   UNL     1      49.208   6.322  17.225  0.00  0.00    +0.000 C 
ENDROOT
BRANCH   1   4
ATOM      2  C   UNL     1      47.547   5.985  13.763  0.00  0.00    +0.000 A 
ATOM      3  C   UNL     1      48.345   6.479  14.811  0.00  0.00    +0.000 A 
ATOM      4  C   UNL     1      48.392   5.814  16.064  0.00  0.00    +0.000 A 
ATOM      5  C   UNL     1      47.646   4.634  16.228  0.00  0.00    +0.000 A 
ATOM      6  C   UNL     1      46.883   4.126  15.187  0.00  0.00    +0.000 A 
ATOM      7  C   UNL     1      46.820   4.786  13.948  0.00  0.00    +0.000 A 
BRANCH   2   9
ATOM      8  C   UNL     1      48.265   7.490  11.967  0.00  0.00    +0.000 C 
ATOM      9  O   UNL     1      47.358   6.564  12.541  0.00  0.00    +0.000 OA
ENDBRANCH   2   9
BRANCH   7  10
ATOM     10  C   UNL     1      46.020   4.141  12.823  0.00  0.00    +0.000 C 
BRANCH  10  11
ATOM     11  N   UNL     1      44.567   4.065  13.035  0.00  0.00    +0.000 NA
ATOM     12  C   UNL     1      43.829   3.185  12.114  0.00  0.00    +0.000 C 
ATOM     13  C   UNL     1      43.543   3.761  10.714  0.00  0.00    +0.000 C 
ATOM     14  O   UNL     1      42.939   5.058  10.772  0.00  0.00    +0.000 OA
ATOM     15  C   UNL     1      43.679   5.967  11.591  0.00  0.00    +0.000 C 
ATOM     16  C   UNL     1      43.949   5.407  12.999  0.00  0.00    +0.000 C 
ENDBRANCH  10  11
ENDBRANCH   7  10
ENDBRANCH   1   4
BRANCH   1  17
ATOM     17  N   UNL     1      50.169   5.344  17.683  0.00  0.00    +0.000 N 
ATOM     18  C   UNL     1      51.464   5.349  17.241  0.00  0.00    +0.000 C 
ATOM     19  O   UNL     1      51.866   6.184  16.433  0.00  0.00    +0.000 OA
ATOM     20  H   UNL     1      49.829   4.589  18.274  0.00  0.00    +0.000 HD
BRANCH  18  21
ATOM     21  C   UNL     1      52.380   4.354  17.817  0.00  0.00    +0.000 A 
ATOM     22  C   UNL     1      53.532   4.795  18.454  0.00  0.00    +0.000 A 
ATOM     23  S   UNL     1      54.512   3.544  19.061  0.00  0.00    +0.000 S 
ATOM     24  C   UNL     1      53.440   2.356  18.480  0.00  0.00    +0.000 A 
ATOM     25  N   UNL     1      53.715   1.034  18.649  0.00  0.00    +0.000 NA
ATOM     26  C   UNL     1      52.843   0.239  18.125  0.00  0.00    +0.000 A 
ATOM     27  N   UNL     1      51.711   0.644  17.466  0.00  0.00    +0.000 N 
ATOM     28  C   UNL     1      51.357   1.972  17.342  0.00  0.00    +0.000 A 
ATOM     29  O   UNL     1      50.276   2.295  16.858  0.00  0.00    +0.000 OA
ATOM     30  C   UNL     1      52.333   2.909  17.855  0.00  0.00    +0.000 A 
ATOM     31  H   UNL     1      51.055  -0.034  17.111  0.00  0.00    +0.000 HD
ENDBRANCH  18  21
ENDBRANCH   1  17
TORSDOF 6
ENDMDL
MODEL 2
REMARK VINA RESULT:    -6.727      3.143      9.597
REMARK INTER + INTRA:         -10.320
REMARK INTER:                  -9.402
REMARK INTRA:                  -0.918
REMARK UNBOUND:                -1.233
REMARK  Name = 
REMARK  7 active torsions:
REMARK  status: ('A' for Active; 'I' for Inactive)
REMARK    1  A    between atoms: C_1  and  O_2
REMARK    2  A    between atoms: O_2  and  C_3
REMARK    3  A    between atoms: C_5  and  C_6
REMARK    4  A    between atoms: C_6  and  N_7
REMARK    5  A    between atoms: C_8  and  C_10
REMARK    6  A    between atoms: C_22  and  C_23
REMARK    7  A    between atoms: C_23  and  N_24
REMARK                            x       y       z     vdW  Elec       q    Type
REMARK                         _______ _______ _______ _____ _____    ______ ____
ROOT
ATOM      1  C   UNL     1      47.302   3.587  16.713  0.00  0.00    +0.000 C 
ENDROOT
BRANCH   1   4
ATOM      2  C   UNL     1      51.023   3.177  17.635  0.00  0.00    +0.000 A 
ATOM      3  C   UNL     1      49.697   2.858  17.284  0.00  0.00    +0.000 A 
ATOM      4  C   UNL     1      48.739   3.880  17.061  0.00  0.00    +0.000 A 
ATOM      5  C   UNL     1      49.147   5.221  17.170  0.00  0.00    +0.000 A 
ATOM      6  C   UNL     1      50.459   5.540  17.484  0.00  0.00    +0.000 A 
ATOM      7  C   UNL     1      51.412   4.534  17.720  0.00  0.00    +0.000 A 
BRANCH   2   9
ATOM      8  C   UNL     1      52.006   0.934  17.547  0.00  0.00    +0.000 C 
ATOM      9  O   UNL     1      52.017   2.295  17.944  0.00  0.00    +0.000 OA
ENDBRANCH   2   9
BRANCH   7  10
ATOM     10  C   UNL     1      52.853   4.948  17.993  0.00  0.00    +0.000 C 
BRANCH  10  11
ATOM     11  N   UNL     1      53.097   5.590  19.293  0.00  0.00    +0.000 NA
ATOM     12  C   UNL     1      54.440   6.162  19.484  0.00  0.00    +0.000 C 
ATOM     13  C   UNL     1      55.558   5.160  19.827  0.00  0.00    +0.000 C 
ATOM     14  O   UNL     1      55.207   4.307  20.923  0.00  0.00    +0.000 OA
ATOM     15  C   UNL     1      53.944   3.665  20.731  0.00  0.00    +0.000 C 
ATOM     16  C   UNL     1      52.818   4.664  20.410  0.00  0.00    +0.000 C 
ENDBRANCH  10  11
ENDBRANCH   7  10
ENDBRANCH   1   4
BRANCH   1  17
ATOM     17  N   UNL     1      46.774   4.523  15.747  0.00  0.00    +0.000 N 
ATOM     18  C   UNL     1      46.763   4.242  14.407  0.00  0.00    +0.000 C 
ATOM     19  O   UNL     1      47.204   3.182  13.968  0.00  0.00    +0.000 OA
ATOM     20  H   UNL     1      46.498   5.443  16.083  0.00  0.00    +0.000 HD
BRANCH  18  21
ATOM     21  C   UNL     1      46.145   5.232  13.513  0.00  0.00    +0.000 A 
ATOM     22  C   UNL     1      46.832   6.408  13.242  0.00  0.00    +0.000 A 
ATOM     23  S   UNL     1      46.001   7.473  12.208  0.00  0.00    +0.000 S 
ATOM     24  C   UNL     1      44.678   6.408  12.092  0.00  0.00    +0.000 A 
ATOM     25  N   UNL     1      43.583   6.743  11.357  0.00  0.00    +0.000 NA
ATOM     26  C   UNL     1      42.635   5.867  11.387  0.00  0.00    +0.000 A 
ATOM     27  N   UNL     1      42.690   4.678  12.068  0.00  0.00    +0.000 N 
ATOM     28  C   UNL     1      43.811   4.267  12.759  0.00  0.00    +0.000 A 
ATOM     29  O   UNL     1      43.874   3.144  13.251  0.00  0.00    +0.000 OA
ATOM     30  C   UNL     1      44.880   5.241  12.812  0.00  0.00    +0.000 A 
ATOM     31  H   UNL     1      41.924   4.024  12.019  0.00  0.00    +0.000 HD
ENDBRANCH  18  21
ENDBRANCH   1  17
TORSDOF 6
ENDMDL
MODEL 3
REMARK VINA RESULT:    -6.696      3.079      9.521
REMARK INTER + INTRA:         -10.278
REMARK INTER:                  -9.322
REMARK INTRA:                  -0.956
REMARK UNBOUND:                -1.233
REMARK  Name = 
REMARK  7 active torsions:
REMARK  status: ('A' for Active; 'I' for Inactive)
REMARK    1  A    between atoms: C_1  and  O_2
REMARK    2  A    between atoms: O_2  and  C_3
REMARK    3  A    between atoms: C_5  and  C_6
REMARK    4  A    between atoms: C_6  and  N_7
REMARK    5  A    between atoms: C_8  and  C_10
REMARK    6  A    between atoms: C_22  and  C_23
REMARK    7  A    between atoms: C_23  and  N_24
REMARK                            x       y       z     vdW  Elec       q    Type
REMARK                         _______ _______ _______ _____ _____    ______ ____
ROOT
ATOM      1  C   UNL     1      47.212   3.389  16.777  0.00  0.00    +0.000 C 
ENDROOT
BRANCH   1   4
ATOM      2  C   UNL     1      50.629   4.868  17.774  0.00  0.00    +0.000 A 
ATOM      3  C   UNL     1      49.254   4.773  17.491  0.00  0.00    +0.000 A 
ATOM      4  C   UNL     1      48.673   3.533  17.118  0.00  0.00    +0.000 A 
ATOM      5  C   UNL     1      49.496   2.395  17.062  0.00  0.00    +0.000 A 
ATOM      6  C   UNL     1      50.845   2.477  17.370  0.00  0.00    +0.000 A 
ATOM      7  C   UNL     1      51.431   3.704  17.728  0.00  0.00    +0.000 A 
BRANCH   2   9
ATOM      8  C   UNL     1      51.061   6.801  19.216  0.00  0.00    +0.000 C 
ATOM      9  O   UNL     1      51.322   6.006  18.073  0.00  0.00    +0.000 OA
ENDBRANCH   2   9
BRANCH   7  10
ATOM     10  C   UNL     1      52.903   3.717  18.122  0.00  0.00    +0.000 C 
BRANCH  10  11
ATOM     11  N   UNL     1      53.222   3.106  19.421  0.00  0.00    +0.000 NA
ATOM     12  C   UNL     1      53.306   4.031  20.563  0.00  0.00    +0.000 C 
ATOM     13  C   UNL     1      54.611   4.840  20.681  0.00  0.00    +0.000 C 
ATOM     14  O   UNL     1      55.775   4.009  20.613  0.00  0.00    +0.000 OA
ATOM     15  C   UNL     1      55.769   3.156  19.465  0.00  0.00    +0.000 C 
ATOM     16  C   UNL     1      54.476   2.327  19.353  0.00  0.00    +0.000 C 
ENDBRANCH  10  11
ENDBRANCH   7  10
ENDBRANCH   1   4
BRANCH   1  17
ATOM     17  N   UNL     1      46.779   4.375  15.813  0.00  0.00    +0.000 N 
ATOM     18  C   UNL     1      46.799   4.120  14.468  0.00  0.00    +0.000 C 
ATOM     19  O   UNL     1      47.190   3.044  14.022  0.00  0.00    +0.000 OA
ATOM     20  H   UNL     1      46.547   5.303  16.158  0.00  0.00    +0.000 HD
BRANCH  18  21
ATOM     21  C   UNL     1      46.276   5.164  13.574  0.00  0.00    +0.000 A 
ATOM     22  C   UNL     1      47.056   6.286  13.330  0.00  0.00    +0.000 A 
ATOM     23  S   UNL     1      46.329   7.423  12.293  0.00  0.00    +0.000 S 
ATOM     24  C   UNL     1      44.932   6.463  12.140  0.00  0.00    +0.000 A 
ATOM     25  N   UNL     1      43.880   6.888  11.388  0.00  0.00    +0.000 NA
ATOM     26  C   UNL     1      42.868   6.087  11.389  0.00  0.00    +0.000 A 
ATOM     27  N   UNL     1      42.819   4.890  12.057  0.00  0.00    +0.000 N 
ATOM     28  C   UNL     1      43.891   4.388  12.764  0.00  0.00    +0.000 A 
ATOM     29  O   UNL     1      43.858   3.258  13.244  0.00  0.00    +0.000 OA
ATOM     30  C   UNL     1      45.030   5.276  12.849  0.00  0.00    +0.000 A 
ATOM     31  H   UNL     1      42.006   4.297  11.986  0.00  0.00    +0.000 HD
ENDBRANCH  18  21
ENDBRANCH   1  17
TORSDOF 6
ENDMDL
MODEL 4
REMARK VINA RESULT:    -6.185      4.546      9.073
REMARK INTER + INTRA:          -9.587
REMARK INTER:                  -8.403
REMARK INTRA:                  -1.184
REMARK UNBOUND:                -1.233
REMARK  Name = 
REMARK  7 active torsions:
REMARK  status: ('A' for Active; 'I' for Inactive)
REMARK    1  A    between atoms: C_1  and  O_2
REMARK    2  A    between atoms: O_2  and  C_3
REMARK    3  A    between atoms: C_5  and  C_6
REMARK    4  A    between atoms: C_6  and  N_7
REMARK    5  A    between atoms: C_8  and  C_10
REMARK    6  A    between atoms: C_22  and  C_23
REMARK    7  A    between atoms: C_23  and  N_24
REMARK                            x       y       z     vdW  Elec       q    Type
REMARK                         _______ _______ _______ _____ _____    ______ ____
ROOT
ATOM      1  C   UNL     1      47.243   7.750  12.155  0.00  0.00    +0.000 C 
ENDROOT
BRANCH   1   4
ATOM      2  C   UNL     1      48.744   6.635  15.526  0.00  0.00    +0.000 A 
ATOM      3  C   UNL     1      48.205   6.577  14.227  0.00  0.00    +0.000 A 
ATOM      4  C   UNL     1      47.851   7.764  13.534  0.00  0.00    +0.000 A 
ATOM      5  C   UNL     1      48.075   9.002  14.162  0.00  0.00    +0.000 A 
ATOM      6  C   UNL     1      48.635   9.065  15.428  0.00  0.00    +0.000 A 
ATOM      7  C   UNL     1      48.976   7.894  16.127  0.00  0.00    +0.000 A 
BRANCH   2   9
ATOM      8  C   UNL     1      48.125   4.571  16.694  0.00  0.00    +0.000 C 
ATOM      9  O   UNL     1      49.057   5.573  16.325  0.00  0.00    +0.000 OA
ENDBRANCH   2   9
BRANCH   7  10
ATOM     10  C   UNL     1      49.651   8.031  17.487  0.00  0.00    +0.000 C 
BRANCH  10  11
ATOM     11  N   UNL     1      48.852   8.684  18.533  0.00  0.00    +0.000 NA
ATOM     12  C   UNL     1      49.555   8.967  19.795  0.00  0.00    +0.000 C 
ATOM     13  C   UNL     1      49.735   7.773  20.750  0.00  0.00    +0.000 C 
ATOM     14  O   UNL     1      48.505   7.083  20.997  0.00  0.00    +0.000 OA
ATOM     15  C   UNL     1      47.835   6.715  19.789  0.00  0.00    +0.000 C 
ATOM     16  C   UNL     1      47.632   7.909  18.840  0.00  0.00    +0.000 C 
ENDBRANCH  10  11
ENDBRANCH   7  10
ENDBRANCH   1   4
BRANCH   1  17
ATOM     17  N   UNL     1      46.621   6.482  11.848  0.00  0.00    +0.000 N 
ATOM     18  C   UNL     1      45.260   6.334  11.840  0.00  0.00    +0.000 C 
ATOM     19  O   UNL     1      44.509   7.273  12.098  0.00  0.00    +0.000 OA
ATOM     20  H   UNL     1      47.227   5.675  11.730  0.00  0.00    +0.000 HD
BRANCH  18  21
ATOM     21  C   UNL     1      44.724   5.022  11.451  0.00  0.00    +0.000 A 
ATOM     22  C   UNL     1      43.923   4.334  12.353  0.00  0.00    +0.000 A 
ATOM     23  S   UNL     1      43.382   2.823  11.786  0.00  0.00    +0.000 S 
ATOM     24  C   UNL     1      44.212   3.023  10.314  0.00  0.00    +0.000 A 
ATOM     25  N   UNL     1      44.183   2.047   9.366  0.00  0.00    +0.000 NA
ATOM     26  C   UNL     1      44.887   2.304   8.316  0.00  0.00    +0.000 A 
ATOM     27  N   UNL     1      45.602   3.459   8.117  0.00  0.00    +0.000 N 
ATOM     28  C   UNL     1      45.594   4.503   9.018  0.00  0.00    +0.000 A 
ATOM     29  O   UNL     1      46.141   5.570   8.753  0.00  0.00    +0.000 OA
ATOM     30  C   UNL     1      44.872   4.240  10.244  0.00  0.00    +0.000 A 
ATOM     31  H   UNL     1      46.103   3.608   7.255  0.00  0.00    +0.000 HD
ENDBRANCH  18  21
ENDBRANCH   1  17
TORSDOF 6
ENDMDL
MODEL 5
REMARK VINA RESULT:    -6.153      3.207      8.753
REMARK INTER + INTRA:          -9.544
REMARK INTER:                  -8.700
REMARK INTRA:                  -0.844
REMARK UNBOUND:                -1.233
REMARK  Name = 
REMARK  7 active torsions:
REMARK  status: ('A' for Active; 'I' for Inactive)
REMARK    1  A    between atoms: C_1  and  O_2
REMARK    2  A    between atoms: O_2  and  C_3
REMARK    3  A    between atoms: C_5  and  C_6
REMARK    4  A    between atoms: C_6  and  N_7
REMARK    5  A    between atoms: C_8  and  C_10
REMARK    6  A    between atoms: C_22  and  C_23
REMARK    7  A    between atoms: C_23  and  N_24
REMARK                            x       y       z     vdW  Elec       q    Type
REMARK                         _______ _______ _______ _____ _____    ______ ____
ROOT
ATOM      1  C   UNL     1      48.868   8.050  15.344  0.00  0.00    +0.000 C 
ENDROOT
BRANCH   1   4
ATOM      2  C   UNL     1      49.469   4.830  17.376  0.00  0.00    +0.000 A 
ATOM      3  C   UNL     1      48.805   5.863  16.689  0.00  0.00    +0.000 A 
ATOM      4  C   UNL     1      49.536   6.908  16.066  0.00  0.00    +0.000 A 
ATOM      5  C   UNL     1      50.940   6.875  16.126  0.00  0.00    +0.000 A 
ATOM      6  C   UNL     1      51.599   5.843  16.775  0.00  0.00    +0.000 A 
ATOM      7  C   UNL     1      50.883   4.811  17.406  0.00  0.00    +0.000 A 
BRANCH   2   9
ATOM      8  C   UNL     1      47.984   2.884  17.496  0.00  0.00    +0.000 C 
ATOM      9  O   UNL     1      48.887   3.812  18.074  0.00  0.00    +0.000 OA
ENDBRANCH   2   9
BRANCH   7  10
ATOM     10  C   UNL     1      51.665   3.669  18.043  0.00  0.00    +0.000 C 
BRANCH  10  11
ATOM     11  N   UNL     1      53.127   3.822  18.051  0.00  0.00    +0.000 NA
ATOM     12  C   UNL     1      53.901   2.620  17.701  0.00  0.00    +0.000 C 
ATOM     13  C   UNL     1      54.056   1.569  18.816  0.00  0.00    +0.000 C 
ATOM     14  O   UNL     1      54.531   2.141  20.040  0.00  0.00    +0.000 OA
ATOM     15  C   UNL     1      53.748   3.262  20.457  0.00  0.00    +0.000 C 
ATOM     16  C   UNL     1      53.607   4.326  19.354  0.00  0.00    +0.000 C 
ENDBRANCH  10  11
ENDBRANCH   7  10
ENDBRANCH   1   4
BRANCH   1  17
ATOM     17  N   UNL     1      47.717   7.615  14.585  0.00  0.00    +0.000 N 
ATOM     18  C   UNL     1      47.851   6.890  13.432  0.00  0.00    +0.000 C 
ATOM     19  O   UNL     1      48.955   6.580  12.990  0.00  0.00    +0.000 OA
ATOM     20  H   UNL     1      46.803   7.946  14.883  0.00  0.00    +0.000 HD
BRANCH  18  21
ATOM     21  C   UNL     1      46.618   6.439  12.770  0.00  0.00    +0.000 A 
ATOM     22  C   UNL     1      45.822   7.378  12.128  0.00  0.00    +0.000 A 
ATOM     23  S   UNL     1      44.420   6.728  11.417  0.00  0.00    +0.000 S 
ATOM     24  C   UNL     1      44.814   5.162  11.954  0.00  0.00    +0.000 A 
ATOM     25  N   UNL     1      43.986   4.114  11.694  0.00  0.00    +0.000 NA
ATOM     26  C   UNL     1      44.379   2.990  12.192  0.00  0.00    +0.000 A 
ATOM     27  N   UNL     1      45.536   2.814  12.908  0.00  0.00    +0.000 N 
ATOM     28  C   UNL     1      46.440   3.833  13.124  0.00  0.00    +0.000 A 
ATOM     29  O   UNL     1      47.524   3.614  13.658  0.00  0.00    +0.000 OA
ATOM     30  C   UNL     1      46.016   5.130  12.643  0.00  0.00    +0.000 A 
ATOM     31  H   UNL     1      45.799   1.898  13.238  0.00  0.00    +0.000 HD
ENDBRANCH  18  21
ENDBRANCH   1  17
TORSDOF 6
ENDMDL
MODEL 6
REMARK VINA RESULT:    -6.150      1.880      2.439
REMARK INTER + INTRA:          -9.540
REMARK INTER:                  -8.694
REMARK INTRA:                  -0.846
REMARK UNBOUND:                -1.233
REMARK  Name = 
REMARK  7 active torsions:
REMARK  status: ('A' for Active; 'I' for Inactive)
REMARK    1  A    between atoms: C_1  and  O_2
REMARK    2  A    between atoms: O_2  and  C_3
REMARK    3  A    between atoms: C_5  and  C_6
REMARK    4  A    between atoms: C_6  and  N_7
REMARK    5  A    between atoms: C_8  and  C_10
REMARK    6  A    between atoms: C_22  and  C_23
REMARK    7  A    between atoms: C_23  and  N_24
REMARK                            x       y       z     vdW  Elec       q    Type
REMARK                         _______ _______ _______ _____ _____    ______ ____
ROOT
ATOM      1  C   UNL     1      48.879   8.125  15.573  0.00  0.00    +0.000 C 
ENDROOT
BRANCH   1   4
ATOM      2  C   UNL     1      46.493   7.867  12.556  0.00  0.00    +0.000 A 
ATOM      3  C   UNL     1      47.275   8.417  13.589  0.00  0.00    +0.000 A 
ATOM      4  C   UNL     1      48.050   7.584  14.436  0.00  0.00    +0.000 A 
ATOM      5  C   UNL     1      48.043   6.197  14.205  0.00  0.00    +0.000 A 
ATOM      6  C   UNL     1      47.300   5.653  13.169  0.00  0.00    +0.000 A 
ATOM      7  C   UNL     1      46.519   6.470  12.334  0.00  0.00    +0.000 A 
BRANCH   2   9
ATOM      8  C   UNL     1      44.959   9.722  12.100  0.00  0.00    +0.000 C 
ATOM      9  O   UNL     1      45.652   8.545  11.722  0.00  0.00    +0.000 OA
ENDBRANCH   2   9
BRANCH   7  10
ATOM     10  C   UNL     1      45.778   5.821  11.171  0.00  0.00    +0.000 C 
BRANCH  10  11
ATOM     11  N   UNL     1      44.316   5.744  11.307  0.00  0.00    +0.000 NA
ATOM     12  C   UNL     1      43.814   5.401  12.648  0.00  0.00    +0.000 C 
ATOM     13  C   UNL     1      43.877   3.911  13.032  0.00  0.00    +0.000 C 
ATOM     14  O   UNL     1      43.287   3.067  12.036  0.00  0.00    +0.000 OA
ATOM     15  C   UNL     1      43.816   3.314  10.731  0.00  0.00    +0.000 C 
ATOM     16  C   UNL     1      43.735   4.798  10.332  0.00  0.00    +0.000 C 
ENDBRANCH  10  11
ENDBRANCH   7  10
ENDBRANCH   1   4
BRANCH   1  17
ATOM     17  N   UNL     1      49.866   7.171  16.028  0.00  0.00    +0.000 N 
ATOM     18  C   UNL     1      49.694   6.458  17.184  0.00  0.00    +0.000 C 
ATOM     19  O   UNL     1      48.696   6.601  17.886  0.00  0.00    +0.000 OA
ATOM     20  H   UNL     1      50.740   7.114  15.512  0.00  0.00    +0.000 HD
BRANCH  18  21
ATOM     21  C   UNL     1      50.724   5.465  17.526  0.00  0.00    +0.000 A 
ATOM     22  C   UNL     1      51.937   5.909  18.035  0.00  0.00    +0.000 A 
ATOM     23  S   UNL     1      53.044   4.662  18.373  0.00  0.00    +0.000 S 
ATOM     24  C   UNL     1      51.947   3.476  17.836  0.00  0.00    +0.000 A 
ATOM     25  N   UNL     1      52.297   2.161  17.837  0.00  0.00    +0.000 NA
ATOM     26  C   UNL     1      51.392   1.370  17.366  0.00  0.00    +0.000 A 
ATOM     27  N   UNL     1      50.160   1.772  16.915  0.00  0.00    +0.000 N 
ATOM     28  C   UNL     1      49.739   3.084  16.971  0.00  0.00    +0.000 A 
ATOM     29  O   UNL     1      48.587   3.391  16.678  0.00  0.00    +0.000 OA
ATOM     30  C   UNL     1      50.740   4.023  17.430  0.00  0.00    +0.000 A 
ATOM     31  H   UNL     1      49.487   1.094  16.592  0.00  0.00    +0.000 HD
ENDBRANCH  18  21
ENDBRANCH   1  17
TORSDOF 6
ENDMDL
MODEL 7
REMARK VINA RESULT:    -5.882      3.306      9.081
REMARK INTER + INTRA:          -9.177
REMARK INTER:                  -8.141
REMARK INTRA:                  -1.036
REMARK UNBOUND:                -1.233
REMARK  Name = 
REMARK  7 active torsions:
REMARK  status: ('A' for Active; 'I' for Inactive)
REMARK    1  A    between atoms: C_1  and  O_2
REMARK    2  A    between atoms: O_2  and  C_3
REMARK    3  A    between atoms: C_5  and  C_6
REMARK    4  A    between atoms: C_6  and  N_7
REMARK    5  A    between atoms: C_8  and  C_10
REMARK    6  A    between atoms: C_22  and  C_23
REMARK    7  A    between atoms: C_23  and  N_24
REMARK                            x       y       z     vdW  Elec       q    Type
REMARK                         _______ _______ _______ _____ _____    ______ ____
ROOT
ATOM      1  C   UNL     1      47.864   7.536  13.638  0.00  0.00    +0.000 C 
ENDROOT
BRANCH   1   4
ATOM      2  C   UNL     1      49.016   5.418  16.646  0.00  0.00    +0.000 A 
ATOM      3  C   UNL     1      48.228   5.902  15.585  0.00  0.00    +0.000 A 
ATOM      4  C   UNL     1      48.686   6.966  14.766  0.00  0.00    +0.000 A 
ATOM      5  C   UNL     1      49.956   7.511  15.018  0.00  0.00    +0.000 A 
ATOM      6  C   UNL     1      50.750   7.017  16.042  0.00  0.00    +0.000 A 
ATOM      7  C   UNL     1      50.299   5.972  16.867  0.00  0.00    +0.000 A 
BRANCH   2   9
ATOM      8  C   UNL     1      48.360   3.120  17.184  0.00  0.00    +0.000 C 
ATOM      9  O   UNL     1      48.666   4.455  17.548  0.00  0.00    +0.000 OA
ENDBRANCH   2   9
BRANCH   7  10
ATOM     10  C   UNL     1      51.244   5.427  17.931  0.00  0.00    +0.000 C 
BRANCH  10  11
ATOM     11  N   UNL     1      52.280   4.502  17.450  0.00  0.00    +0.000 NA
ATOM     12  C   UNL     1      52.442   3.261  18.225  0.00  0.00    +0.000 C 
ATOM     13  C   UNL     1      53.234   3.384  19.540  0.00  0.00    +0.000 C 
ATOM     14  O   UNL     1      54.496   4.037  19.356  0.00  0.00    +0.000 OA
ATOM     15  C   UNL     1      54.367   5.291  18.681  0.00  0.00    +0.000 C 
ATOM     16  C   UNL     1      53.595   5.170  17.355  0.00  0.00    +0.000 C 
ENDBRANCH  10  11
ENDBRANCH   7  10
ENDBRANCH   1   4
BRANCH   1  17
ATOM     17  N   UNL     1      47.181   6.506  12.889  0.00  0.00    +0.000 N 
ATOM     18  C   UNL     1      46.262   6.812  11.921  0.00  0.00    +0.000 C 
ATOM     19  O   UNL     1      45.976   7.976  11.650  0.00  0.00    +0.000 OA
ATOM     20  H   UNL     1      47.332   5.540  13.169  0.00  0.00    +0.000 HD
BRANCH  18  21
ATOM     21  C   UNL     1      45.671   5.694  11.171  0.00  0.00    +0.000 A 
ATOM     22  C   UNL     1      45.831   5.655   9.792  0.00  0.00    +0.000 A 
ATOM     23  S   UNL     1      45.086   4.321   9.045  0.00  0.00    +0.000 S 
ATOM     24  C   UNL     1      44.505   3.747  10.538  0.00  0.00    +0.000 A 
ATOM     25  N   UNL     1      43.744   2.620  10.596  0.00  0.00    +0.000 NA
ATOM     26  C   UNL     1      43.332   2.317  11.781  0.00  0.00    +0.000 A 
ATOM     27  N   UNL     1      43.629   3.027  12.917  0.00  0.00    +0.000 N 
ATOM     28  C   UNL     1      44.461   4.127  12.911  0.00  0.00    +0.000 A 
ATOM     29  O   UNL     1      44.808   4.663  13.960  0.00  0.00    +0.000 OA
ATOM     30  C   UNL     1      44.898   4.549  11.598  0.00  0.00    +0.000 A 
ATOM     31  H   UNL     1      43.301   2.712  13.817  0.00  0.00    +0.000 HD
ENDBRANCH  18  21
ENDBRANCH   1  17
TORSDOF 6
ENDMDL
MODEL 8
REMARK VINA RESULT:    -5.810      3.889      8.920
REMARK INTER + INTRA:          -9.080
REMARK INTER:                  -8.035
REMARK INTRA:                  -1.045
REMARK UNBOUND:                -1.233
REMARK  Name = 
REMARK  7 active torsions:
REMARK  status: ('A' for Active; 'I' for Inactive)
REMARK    1  A    between atoms: C_1  and  O_2
REMARK    2  A    between atoms: O_2  and  C_3
REMARK    3  A    between atoms: C_5  and  C_6
REMARK    4  A    between atoms: C_6  and  N_7
REMARK    5  A    between atoms: C_8  and  C_10
REMARK    6  A    between atoms: C_22  and  C_23
REMARK    7  A    between atoms: C_23  and  N_24
REMARK                            x       y       z     vdW  Elec       q    Type
REMARK                         _______ _______ _______ _____ _____    ______ ____
ROOT
ATOM      1  C   UNL     1      48.143   7.863  12.458  0.00  0.00    +0.000 C 
ENDROOT
BRANCH   1   4
ATOM      2  C   UNL     1      48.640   6.170  15.885  0.00  0.00    +0.000 A 
ATOM      3  C   UNL     1      48.436   6.337  14.503  0.00  0.00    +0.000 A 
ATOM      4  C   UNL     1      48.388   7.634  13.928  0.00  0.00    +0.000 A 
ATOM      5  C   UNL     1      48.576   8.748  14.763  0.00  0.00    +0.000 A 
ATOM      6  C   UNL     1      48.808   8.587  16.121  0.00  0.00    +0.000 A 
ATOM      7  C   UNL     1      48.844   7.307  16.701  0.00  0.00    +0.000 A 
BRANCH   2   9
ATOM      8  C   UNL     1      47.531   4.101  16.590  0.00  0.00    +0.000 C 
ATOM      9  O   UNL     1      48.635   4.990  16.572  0.00  0.00    +0.000 OA
ENDBRANCH   2   9
BRANCH   7  10
ATOM     10  C   UNL     1      49.172   7.192  18.185  0.00  0.00    +0.000 C 
BRANCH  10  11
ATOM     11  N   UNL     1      50.597   7.281  18.532  0.00  0.00    +0.000 NA
ATOM     12  C   UNL     1      51.363   6.028  18.428  0.00  0.00    +0.000 C 
ATOM     13  C   UNL     1      51.193   5.034  19.592  0.00  0.00    +0.000 C 
ATOM     14  O   UNL     1      51.399   5.650  20.868  0.00  0.00    +0.000 OA
ATOM     15  C   UNL     1      50.604   6.826  21.039  0.00  0.00    +0.000 C 
ATOM     16  C   UNL     1      50.785   7.834  19.890  0.00  0.00    +0.000 C 
ENDBRANCH  10  11
ENDBRANCH   7  10
ENDBRANCH   1   4
BRANCH   1  17
ATOM     17  N   UNL     1      47.468   6.745  11.839  0.00  0.00    +0.000 N 
ATOM     18  C   UNL     1      46.129   6.781  11.559  0.00  0.00    +0.000 C 
ATOM     19  O   UNL     1      45.441   7.764  11.826  0.00  0.00    +0.000 OA
ATOM     20  H   UNL     1      48.000   5.889  11.703  0.00  0.00    +0.000 HD
BRANCH  18  21
ATOM     21  C   UNL     1      45.550   5.619  10.869  0.00  0.00    +0.000 A 
ATOM     22  C   UNL     1      45.651   5.545   9.486  0.00  0.00    +0.000 A 
ATOM     23  S   UNL     1      44.927   4.161   8.812  0.00  0.00    +0.000 S 
ATOM     24  C   UNL     1      44.434   3.610  10.345  0.00  0.00    +0.000 A 
ATOM     25  N   UNL     1      43.721   2.458  10.470  0.00  0.00    +0.000 NA
ATOM     26  C   UNL     1      43.374   2.176  11.681  0.00  0.00    +0.000 A 
ATOM     27  N   UNL     1      43.693   2.931  12.781  0.00  0.00    +0.000 N 
ATOM     28  C   UNL     1      44.480   4.061  12.706  0.00  0.00    +0.000 A 
ATOM     29  O   UNL     1      44.851   4.641  13.723  0.00  0.00    +0.000 OA
ATOM     30  C   UNL     1      44.842   4.459  11.363  0.00  0.00    +0.000 A 
ATOM     31  H   UNL     1      43.418   2.631  13.704  0.00  0.00    +0.000 HD
ENDBRANCH  18  21
ENDBRANCH   1  17
TORSDOF 6
ENDMDL
MODEL 9
REMARK VINA RESULT:    -5.809      4.087      9.212
REMARK INTER + INTRA:          -9.079
REMARK INTER:                  -8.014
REMARK INTRA:                  -1.066
REMARK UNBOUND:                -1.233
REMARK  Name = 
REMARK  7 active torsions:
REMARK  status: ('A' for Active; 'I' for Inactive)
REMARK    1  A    between atoms: C_1  and  O_2
REMARK    2  A    between atoms: O_2  and  C_3
REMARK    3  A    between atoms: C_5  and  C_6
REMARK    4  A    between atoms: C_6  and  N_7
REMARK    5  A    between atoms: C_8  and  C_10
REMARK    6  A    between atoms: C_22  and  C_23
REMARK    7  A    between atoms: C_23  and  N_24
REMARK                            x       y       z     vdW  Elec       q    Type
REMARK                         _______ _______ _______ _____ _____    ______ ____
ROOT
ATOM      1  C   UNL     1      47.213   7.722  12.127  0.00  0.00    +0.000 C 
ENDROOT
BRANCH   1   4
ATOM      2  C   UNL     1      48.769   6.566  15.459  0.00  0.00    +0.000 A 
ATOM      3  C   UNL     1      48.198   6.523  14.174  0.00  0.00    +0.000 A 
ATOM      4  C   UNL     1      47.853   7.719  13.492  0.00  0.00    +0.000 A 
ATOM      5  C   UNL     1      48.119   8.950  14.116  0.00  0.00    +0.000 A 
ATOM      6  C   UNL     1      48.710   8.998  15.369  0.00  0.00    +0.000 A 
ATOM      7  C   UNL     1      49.043   7.818  16.057  0.00  0.00    +0.000 A 
BRANCH   2   9
ATOM      8  C   UNL     1      48.106   4.705  16.909  0.00  0.00    +0.000 C 
ATOM      9  O   UNL     1      49.079   5.496  16.248  0.00  0.00    +0.000 OA
ENDBRANCH   2   9
BRANCH   7  10
ATOM     10  C   UNL     1      49.753   7.937  17.400  0.00  0.00    +0.000 C 
BRANCH  10  11
ATOM     11  N   UNL     1      51.158   8.365  17.344  0.00  0.00    +0.000 NA
ATOM     12  C   UNL     1      51.999   7.679  16.348  0.00  0.00    +0.000 C 
ATOM     13  C   UNL     1      52.496   6.274  16.737  0.00  0.00    +0.000 C 
ATOM     14  O   UNL     1      53.117   6.255  18.028  0.00  0.00    +0.000 OA
ATOM     15  C   UNL     1      52.290   6.836  19.039  0.00  0.00    +0.000 C 
ATOM     16  C   UNL     1      51.808   8.250  18.666  0.00  0.00    +0.000 C 
ENDBRANCH  10  11
ENDBRANCH   7  10
ENDBRANCH   1   4
BRANCH   1  17
ATOM     17  N   UNL     1      46.598   6.451  11.813  0.00  0.00    +0.000 N 
ATOM     18  C   UNL     1      45.240   6.285  11.839  0.00  0.00    +0.000 C 
ATOM     19  O   UNL     1      44.484   7.208  12.134  0.00  0.00    +0.000 OA
ATOM     20  H   UNL     1      47.212   5.654  11.664  0.00  0.00    +0.000 HD
BRANCH  18  21
ATOM     21  C   UNL     1      44.710   4.973  11.439  0.00  0.00    +0.000 A 
ATOM     22  C   UNL     1      43.914   4.273  12.335  0.00  0.00    +0.000 A 
ATOM     23  S   UNL     1      43.381   2.765  11.757  0.00  0.00    +0.000 S 
ATOM     24  C   UNL     1      44.209   2.981  10.285  0.00  0.00    +0.000 A 
ATOM     25  N   UNL     1      44.183   2.013   9.329  0.00  0.00    +0.000 NA
ATOM     26  C   UNL     1      44.886   2.283   8.281  0.00  0.00    +0.000 A 
ATOM     27  N   UNL     1      45.594   3.443   8.091  0.00  0.00    +0.000 N 
ATOM     28  C   UNL     1      45.581   4.480   9.001  0.00  0.00    +0.000 A 
ATOM     29  O   UNL     1      46.122   5.552   8.745  0.00  0.00    +0.000 OA
ATOM     30  C   UNL     1      44.861   4.202  10.225  0.00  0.00    +0.000 A 
ATOM     31  H   UNL     1      46.094   3.602   7.230  0.00  0.00    +0.000 HD
ENDBRANCH  18  21
ENDBRANCH   1  17
TORSDOF 6
ENDMDL
