MODEL 1
REMARK VINA RESULT:    -7.957      0.000      0.000
REMARK INTER + INTRA:          -9.842
REMARK INTER:                  -9.586
REMARK INTRA:                  -0.256
REMARK UNBOUND:                -0.256
REMARK  Name = 
REMARK  4 active torsions:
REMARK  status: ('A' for Active; 'I' for Inactive)
REMARK    1  A    between atoms: O_1  and  C_2
REMARK    2  A    between atoms: C_2  and  C_3
REMARK    3  A    between atoms: C_6  and  C_7
REMARK    4  A    between atoms: C_7  and  N_8
REMARK                            x       y       z     vdW  Elec       q    Type
REMARK                         _______ _______ _______ _____ _____    ______ ____
ROOT
ATOM      1  C   UNL     1      44.038   2.770  10.311  0.00  0.00    +0.000 C 
ENDROOT
BRANCH   1   2
ATOM      2  N   UNL     1      44.077   3.974  11.132  0.00  0.00    +0.000 N 
ATOM      3  C   UNL     1      43.496   5.175  10.813  0.00  0.00    +0.000 A 
ATOM      4  N   UNL     1      44.101   6.184  11.392  0.00  0.00    +0.000 NA
ATOM      5  C   UNL     1      45.097   5.618  12.150  0.00  0.00    +0.000 A 
ATOM      6  C   UNL     1      46.113   6.236  12.894  0.00  0.00    +0.000 A 
ATOM      7  C   UNL     1      47.024   5.432  13.589  0.00  0.00    +0.000 A 
ATOM      8  C   UNL     1      46.899   4.042  13.581  0.00  0.00    +0.000 A 
ATOM      9  C   UNL     1      45.901   3.406  12.832  0.00  0.00    +0.000 A 
ATOM     10  C   UNL     1      45.040   4.227  12.092  0.00  0.00    +0.000 A 
ENDBRANCH   1   2
BRANCH   1  14
ATOM     11  C   UNL     1      46.663   2.656   6.864  0.00  0.00    +0.000 A 
ATOM     12  C   UNL     1      46.446   1.506   7.634  0.00  0.00    +0.000 A 
ATOM     13  C   UNL     1      45.616   1.547   8.759  0.00  0.00    +0.000 A 
ATOM     14  C   UNL     1      44.997   2.743   9.149  0.00  0.00    +0.000 A 
ATOM     15  C   UNL     1      45.233   3.899   8.395  0.00  0.00    +0.000 A 
ATOM     16  C   UNL     1      46.055   3.855   7.265  0.00  0.00    +0.000 A 
BRANCH  11  17
ATOM     17  C   UNL     1      47.581   2.646   5.670  0.00  0.00    +0.000 C 
BRANCH  17  18
ATOM     18  O   UNL     1      48.585   1.644   5.799  0.00  0.00    +0.000 OA
ATOM     19  H   UNL     1      48.146   0.855   6.154  0.00  0.00    +0.000 HD
ENDBRANCH  17  18
ENDBRANCH  11  17
ENDBRANCH   1  14
TORSDOF 4
ENDMDL
MODEL 2
REMARK VINA RESULT:    -7.275      1.235      1.975
REMARK INTER + INTRA:          -9.020
REMARK INTER:                  -8.686
REMARK INTRA:                  -0.334
REMARK UNBOUND:                -0.256
REMARK  Name = 
REMARK  4 active torsions:
REMARK  status: ('A' for Active; 'I' for Inactive)
REMARK    1  A    between atoms: O_1  and  C_2
REMARK    2  A    between atoms: C_2  and  C_3
REMARK    3  A    between atoms: C_6  and  C_7
REMARK    4  A    between atoms: C_7  and  N_8
REMARK                            x       y       z     vdW  Elec       q    Type
REMARK                         _______ _______ _______ _____ _____    ______ ____
ROOT
ATOM      1  C   UNL     1      43.819   3.464   9.996  0.00  0.00    +0.000 C 
ENDROOT
BRANCH   1   2
ATOM      2  N   UNL     1      44.387   3.734  11.312  0.00  0.00    +0.000 N 
ATOM      3  C   UNL     1      43.906   3.251  12.501  0.00  0.00    +0.000 A 
ATOM      4  N   UNL     1      44.217   4.027  13.511  0.00  0.00    +0.000 NA
ATOM      5  C   UNL     1      44.965   5.042  12.965  0.00  0.00    +0.000 A 
ATOM      6  C   UNL     1      45.471   6.202  13.570  0.00  0.00    +0.000 A 
ATOM      7  C   UNL     1      46.210   7.100  12.792  0.00  0.00    +0.000 A 
ATOM      8  C   UNL     1      46.480   6.826  11.450  0.00  0.00    +0.000 A 
ATOM      9  C   UNL     1      45.971   5.682  10.825  0.00  0.00    +0.000 A 
ATOM     10  C   UNL     1      45.179   4.829  11.605  0.00  0.00    +0.000 A 
ENDBRANCH   1   2
BRANCH   1  14
ATOM     11  C   UNL     1      46.786   2.325   7.048  0.00  0.00    +0.000 A 
ATOM     12  C   UNL     1      46.207   3.601   7.023  0.00  0.00    +0.000 A 
ATOM     13  C   UNL     1      45.235   3.962   7.960  0.00  0.00    +0.000 A 
ATOM     14  C   UNL     1      44.806   3.050   8.935  0.00  0.00    +0.000 A 
ATOM     15  C   UNL     1      45.364   1.766   8.946  0.00  0.00    +0.000 A 
ATOM     16  C   UNL     1      46.344   1.409   8.014  0.00  0.00    +0.000 A 
BRANCH  11  17
ATOM     17  C   UNL     1      47.808   1.901   6.027  0.00  0.00    +0.000 C 
BRANCH  17  18
ATOM     18  O   UNL     1      49.047   2.573   6.226  0.00  0.00    +0.000 OA
ATOM     19  H   UNL     1      49.359   2.325   7.110  0.00  0.00    +0.000 HD
ENDBRANCH  17  18
ENDBRANCH  11  17
ENDBRANCH   1  14
TORSDOF 4
ENDMDL
MODEL 3
REMARK VINA RESULT:    -6.966      2.745      5.982
REMARK INTER + INTRA:          -8.648
REMARK INTER:                  -8.193
REMARK INTRA:                  -0.456
REMARK UNBOUND:                -0.256
REMARK  Name = 
REMARK  4 active torsions:
REMARK  status: ('A' for Active; 'I' for Inactive)
REMARK    1  A    between atoms: O_1  and  C_2
REMARK    2  A    between atoms: C_2  and  C_3
REMARK    3  A    between atoms: C_6  and  C_7
REMARK    4  A    between atoms: C_7  and  N_8
REMARK                            x       y       z     vdW  Elec       q    Type
REMARK                         _______ _______ _______ _____ _____    ______ ____
ROOT
ATOM      1  C   UNL     1      44.307   4.594   9.737  0.00  0.00    +0.000 C 
ENDROOT
BRANCH   1   2
ATOM      2  N   UNL     1      44.601   3.340   9.052  0.00  0.00    +0.000 N 
ATOM      3  C   UNL     1      44.250   2.090   9.493  0.00  0.00    +0.000 A 
ATOM      4  N   UNL     1      45.053   1.162   9.033  0.00  0.00    +0.000 NA
ATOM      5  C   UNL     1      45.945   1.827   8.228  0.00  0.00    +0.000 A 
ATOM      6  C   UNL     1      47.083   1.341   7.565  0.00  0.00    +0.000 A 
ATOM      7  C   UNL     1      47.845   2.228   6.797  0.00  0.00    +0.000 A 
ATOM      8  C   UNL     1      47.457   3.562   6.652  0.00  0.00    +0.000 A 
ATOM      9  C   UNL     1      46.334   4.068   7.318  0.00  0.00    +0.000 A 
ATOM     10  C   UNL     1      45.623   3.179   8.134  0.00  0.00    +0.000 A 
ENDBRANCH   1   2
BRANCH   1  14
ATOM     11  C   UNL     1      46.898   5.749  13.014  0.00  0.00    +0.000 A 
ATOM     12  C   UNL     1      46.878   6.489  11.825  0.00  0.00    +0.000 A 
ATOM     13  C   UNL     1      46.059   6.105  10.759  0.00  0.00    +0.000 A 
ATOM     14  C   UNL     1      45.252   4.962  10.852  0.00  0.00    +0.000 A 
ATOM     15  C   UNL     1      45.289   4.206  12.030  0.00  0.00    +0.000 A 
ATOM     16  C   UNL     1      46.101   4.597  13.099  0.00  0.00    +0.000 A 
BRANCH  11  17
ATOM     17  C   UNL     1      47.799   6.121  14.162  0.00  0.00    +0.000 C 
BRANCH  17  18
ATOM     18  O   UNL     1      47.870   5.074  15.124  0.00  0.00    +0.000 OA
ATOM     19  H   UNL     1      48.798   4.797  15.165  0.00  0.00    +0.000 HD
ENDBRANCH  17  18
ENDBRANCH  11  17
ENDBRANCH   1  14
TORSDOF 4
ENDMDL
MODEL 4
REMARK VINA RESULT:    -6.789      2.506      5.693
REMARK INTER + INTRA:          -8.435
REMARK INTER:                  -7.904
REMARK INTRA:                  -0.531
REMARK UNBOUND:                -0.256
REMARK  Name = 
REMARK  4 active torsions:
REMARK  status: ('A' for Active; 'I' for Inactive)
REMARK    1  A    between atoms: O_1  and  C_2
REMARK    2  A    between atoms: C_2  and  C_3
REMARK    3  A    between atoms: C_6  and  C_7
REMARK    4  A    between atoms: C_7  and  N_8
REMARK                            x       y       z     vdW  Elec       q    Type
REMARK                         _______ _______ _______ _____ _____    ______ ____
ROOT
ATOM      1  C   UNL     1      43.922   6.025  11.443  0.00  0.00    +0.000 C 
ENDROOT
BRANCH   1   2
ATOM      2  N   UNL     1      43.667   4.700  10.890  0.00  0.00    +0.000 N 
ATOM      3  C   UNL     1      43.073   3.659  11.557  0.00  0.00    +0.000 A 
ATOM      4  N   UNL     1      43.439   2.495  11.079  0.00  0.00    +0.000 NA
ATOM      5  C   UNL     1      44.279   2.785  10.032  0.00  0.00    +0.000 A 
ATOM      6  C   UNL     1      45.039   1.920   9.231  0.00  0.00    +0.000 A 
ATOM      7  C   UNL     1      45.833   2.464   8.215  0.00  0.00    +0.000 A 
ATOM      8  C   UNL     1      45.834   3.838   7.970  0.00  0.00    +0.000 A 
ATOM      9  C   UNL     1      45.094   4.719   8.768  0.00  0.00    +0.000 A 
ATOM     10  C   UNL     1      44.358   4.160   9.821  0.00  0.00    +0.000 A 
ENDBRANCH   1   2
BRANCH   1  14
ATOM     11  C   UNL     1      47.853   6.775  13.109  0.00  0.00    +0.000 A 
ATOM     12  C   UNL     1      47.359   7.563  12.061  0.00  0.00    +0.000 A 
ATOM     13  C   UNL     1      46.100   7.309  11.509  0.00  0.00    +0.000 A 
ATOM     14  C   UNL     1      45.312   6.249  11.981  0.00  0.00    +0.000 A 
ATOM     15  C   UNL     1      45.814   5.444  13.010  0.00  0.00    +0.000 A 
ATOM     16  C   UNL     1      47.069   5.707  13.569  0.00  0.00    +0.000 A 
BRANCH  11  17
ATOM     17  C   UNL     1      49.221   7.007  13.695  0.00  0.00    +0.000 C 
BRANCH  17  18
ATOM     18  O   UNL     1      50.194   7.204  12.674  0.00  0.00    +0.000 OA
ATOM     19  H   UNL     1      50.606   6.341  12.513  0.00  0.00    +0.000 HD
ENDBRANCH  17  18
ENDBRANCH  11  17
ENDBRANCH   1  14
TORSDOF 4
ENDMDL
MODEL 5
REMARK VINA RESULT:    -6.080      3.410      6.304
REMARK INTER + INTRA:          -7.581
REMARK INTER:                  -7.267
REMARK INTRA:                  -0.313
REMARK UNBOUND:                -0.256
REMARK  Name = 
REMARK  4 active torsions:
REMARK  status: ('A' for Active; 'I' for Inactive)
REMARK    1  A    between atoms: O_1  and  C_2
REMARK    2  A    between atoms: C_2  and  C_3
REMARK    3  A    between atoms: C_6  and  C_7
REMARK    4  A    between atoms: C_7  and  N_8
REMARK                            x       y       z     vdW  Elec       q    Type
REMARK                         _______ _______ _______ _____ _____    ______ ____
ROOT
ATOM      1  C   UNL     1      45.415   5.439  12.539  0.00  0.00    +0.000 C 
ENDROOT
BRANCH   1   2
ATOM      2  N   UNL     1      44.586   4.654  11.631  0.00  0.00    +0.000 N 
ATOM      3  C   UNL     1      43.642   3.734  12.009  0.00  0.00    +0.000 A 
ATOM      4  N   UNL     1      43.445   2.824  11.088  0.00  0.00    +0.000 NA
ATOM      5  C   UNL     1      44.267   3.182  10.047  0.00  0.00    +0.000 A 
ATOM      6  C   UNL     1      44.536   2.506   8.848  0.00  0.00    +0.000 A 
ATOM      7  C   UNL     1      45.427   3.082   7.935  0.00  0.00    +0.000 A 
ATOM      8  C   UNL     1      46.003   4.328   8.189  0.00  0.00    +0.000 A 
ATOM      9  C   UNL     1      45.759   5.010   9.387  0.00  0.00    +0.000 A 
ATOM     10  C   UNL     1      44.916   4.386  10.315  0.00  0.00    +0.000 A 
ENDBRANCH   1   2
BRANCH   1  14
ATOM     11  C   UNL     1      45.326   9.719  11.854  0.00  0.00    +0.000 A 
ATOM     12  C   UNL     1      46.324   9.143  12.651  0.00  0.00    +0.000 A 
ATOM     13  C   UNL     1      46.342   7.766  12.890  0.00  0.00    +0.000 A 
ATOM     14  C   UNL     1      45.351   6.933  12.350  0.00  0.00    +0.000 A 
ATOM     15  C   UNL     1      44.337   7.508  11.574  0.00  0.00    +0.000 A 
ATOM     16  C   UNL     1      44.327   8.885  11.327  0.00  0.00    +0.000 A 
BRANCH  11  17
ATOM     17  C   UNL     1      45.265  11.204  11.612  0.00  0.00    +0.000 C 
BRANCH  17  18
ATOM     18  O   UNL     1      45.485  11.513  10.239  0.00  0.00    +0.000 OA
ATOM     19  H   UNL     1      46.125  10.864   9.908  0.00  0.00    +0.000 HD
ENDBRANCH  17  18
ENDBRANCH  11  17
ENDBRANCH   1  14
TORSDOF 4
ENDMDL
MODEL 6
REMARK VINA RESULT:    -5.972      2.262      3.583
REMARK INTER + INTRA:          -7.451
REMARK INTER:                  -7.059
REMARK INTRA:                  -0.391
REMARK UNBOUND:                -0.256
REMARK  Name = 
REMARK  4 active torsions:
REMARK  status: ('A' for Active; 'I' for Inactive)
REMARK    1  A    between atoms: O_1  and  C_2
REMARK    2  A    between atoms: C_2  and  C_3
REMARK    3  A    between atoms: C_6  and  C_7
REMARK    4  A    between atoms: C_7  and  N_8
REMARK                            x       y       z     vdW  Elec       q    Type
REMARK                         _______ _______ _______ _____ _____    ______ ____
ROOT
ATOM      1  C   UNL     1      45.154   5.088  12.494  0.00  0.00    +0.000 C 
ENDROOT
BRANCH   1   2
ATOM      2  N   UNL     1      46.414   5.114  13.227  0.00  0.00    +0.000 N 
ATOM      3  C   UNL     1      46.763   4.262  14.243  0.00  0.00    +0.000 A 
ATOM      4  N   UNL     1      47.637   4.799  15.058  0.00  0.00    +0.000 NA
ATOM      5  C   UNL     1      47.901   6.041  14.535  0.00  0.00    +0.000 A 
ATOM      6  C   UNL     1      48.683   7.082  15.056  0.00  0.00    +0.000 A 
ATOM      7  C   UNL     1      48.795   8.271  14.327  0.00  0.00    +0.000 A 
ATOM      8  C   UNL     1      48.179   8.405  13.081  0.00  0.00    +0.000 A 
ATOM      9  C   UNL     1      47.382   7.383  12.552  0.00  0.00    +0.000 A 
ATOM     10  C   UNL     1      47.230   6.227  13.327  0.00  0.00    +0.000 A 
ENDBRANCH   1   2
BRANCH   1  14
ATOM     11  C   UNL     1      45.581   3.739   8.396  0.00  0.00    +0.000 A 
ATOM     12  C   UNL     1      45.885   5.060   8.749  0.00  0.00    +0.000 A 
ATOM     13  C   UNL     1      45.727   5.503  10.066  0.00  0.00    +0.000 A 
ATOM     14  C   UNL     1      45.246   4.637  11.059  0.00  0.00    +0.000 A 
ATOM     15  C   UNL     1      44.918   3.323  10.704  0.00  0.00    +0.000 A 
ATOM     16  C   UNL     1      45.086   2.879   9.388  0.00  0.00    +0.000 A 
BRANCH  11  17
ATOM     17  C   UNL     1      45.708   3.249   6.978  0.00  0.00    +0.000 C 
BRANCH  17  18
ATOM     18  O   UNL     1      46.694   3.987   6.263  0.00  0.00    +0.000 OA
ATOM     19  H   UNL     1      47.378   3.352   5.997  0.00  0.00    +0.000 HD
ENDBRANCH  17  18
ENDBRANCH  11  17
ENDBRANCH   1  14
TORSDOF 4
ENDMDL
MODEL 7
REMARK VINA RESULT:    -5.746      2.172      3.385
REMARK INTER + INTRA:          -7.179
REMARK INTER:                  -6.943
REMARK INTRA:                  -0.236
REMARK UNBOUND:                -0.256
REMARK  Name = 
REMARK  4 active torsions:
REMARK  status: ('A' for Active; 'I' for Inactive)
REMARK    1  A    between atoms: O_1  and  C_2
REMARK    2  A    between atoms: C_2  and  C_3
REMARK    3  A    between atoms: C_6  and  C_7
REMARK    4  A    between atoms: C_7  and  N_8
REMARK                            x       y       z     vdW  Elec       q    Type
REMARK                         _______ _______ _______ _____ _____    ______ ____
ROOT
ATOM      1  C   UNL     1      45.172   5.285  12.617  0.00  0.00    +0.000 C 
ENDROOT
BRANCH   1   2
ATOM      2  N   UNL     1      45.622   6.657  12.822  0.00  0.00    +0.000 N 
ATOM      3  C   UNL     1      44.852   7.780  12.663  0.00  0.00    +0.000 A 
ATOM      4  N   UNL     1      45.574   8.836  12.376  0.00  0.00    +0.000 NA
ATOM      5  C   UNL     1      46.875   8.394  12.384  0.00  0.00    +0.000 A 
ATOM      6  C   UNL     1      48.052   9.076  12.043  0.00  0.00    +0.000 A 
ATOM      7  C   UNL     1      49.273   8.399  12.130  0.00  0.00    +0.000 A 
ATOM      8  C   UNL     1      49.327   7.083  12.592  0.00  0.00    +0.000 A 
ATOM      9  C   UNL     1      48.162   6.380  12.923  0.00  0.00    +0.000 A 
ATOM     10  C   UNL     1      46.945   7.056  12.766  0.00  0.00    +0.000 A 
ENDBRANCH   1   2
BRANCH   1  14
ATOM     11  C   UNL     1      45.522   3.792   8.563  0.00  0.00    +0.000 A 
ATOM     12  C   UNL     1      45.859   5.117   8.867  0.00  0.00    +0.000 A 
ATOM     13  C   UNL     1      45.727   5.606  10.171  0.00  0.00    +0.000 A 
ATOM     14  C   UNL     1      45.237   4.785  11.197  0.00  0.00    +0.000 A 
ATOM     15  C   UNL     1      44.875   3.468  10.890  0.00  0.00    +0.000 A 
ATOM     16  C   UNL     1      45.018   2.977   9.588  0.00  0.00    +0.000 A 
BRANCH  11  17
ATOM     17  C   UNL     1      45.621   3.253   7.160  0.00  0.00    +0.000 C 
BRANCH  17  18
ATOM     18  O   UNL     1      46.625   3.935   6.415  0.00  0.00    +0.000 OA
ATOM     19  H   UNL     1      46.283   4.826   6.239  0.00  0.00    +0.000 HD
ENDBRANCH  17  18
ENDBRANCH  11  17
ENDBRANCH   1  14
TORSDOF 4
ENDMDL
MODEL 8
REMARK VINA RESULT:    -5.684      3.084      4.683
REMARK INTER + INTRA:          -7.104
REMARK INTER:                  -6.639
REMARK INTRA:                  -0.464
REMARK UNBOUND:                -0.256
REMARK  Name = 
REMARK  4 active torsions:
REMARK  status: ('A' for Active; 'I' for Inactive)
REMARK    1  A    between atoms: O_1  and  C_2
REMARK    2  A    between atoms: C_2  and  C_3
REMARK    3  A    between atoms: C_6  and  C_7
REMARK    4  A    between atoms: C_7  and  N_8
REMARK                            x       y       z     vdW  Elec       q    Type
REMARK                         _______ _______ _______ _____ _____    ______ ____
ROOT
ATOM      1  C   UNL     1      46.097   6.364  12.970  0.00  0.00    +0.000 C 
ENDROOT
BRANCH   1   2
ATOM      2  N   UNL     1      47.472   6.322  13.455  0.00  0.00    +0.000 N 
ATOM      3  C   UNL     1      47.860   5.952  14.718  0.00  0.00    +0.000 A 
ATOM      4  N   UNL     1      49.002   6.495  15.061  0.00  0.00    +0.000 NA
ATOM      5  C   UNL     1      49.398   7.222  13.964  0.00  0.00    +0.000 A 
ATOM      6  C   UNL     1      50.493   8.085  13.813  0.00  0.00    +0.000 A 
ATOM      7  C   UNL     1      50.685   8.722  12.583  0.00  0.00    +0.000 A 
ATOM      8  C   UNL     1      49.830   8.469  11.508  0.00  0.00    +0.000 A 
ATOM      9  C   UNL     1      48.723   7.623  11.644  0.00  0.00    +0.000 A 
ATOM     10  C   UNL     1      48.512   7.047  12.903  0.00  0.00    +0.000 A 
ENDBRANCH   1   2
BRANCH   1  14
ATOM     11  C   UNL     1      44.864   3.335  10.124  0.00  0.00    +0.000 A 
ATOM     12  C   UNL     1      44.935   3.043  11.493  0.00  0.00    +0.000 A 
ATOM     13  C   UNL     1      45.353   4.013  12.409  0.00  0.00    +0.000 A 
ATOM     14  C   UNL     1      45.726   5.293  11.976  0.00  0.00    +0.000 A 
ATOM     15  C   UNL     1      45.681   5.580  10.606  0.00  0.00    +0.000 A 
ATOM     16  C   UNL     1      45.252   4.612   9.692  0.00  0.00    +0.000 A 
BRANCH  11  17
ATOM     17  C   UNL     1      44.452   2.297   9.114  0.00  0.00    +0.000 C 
BRANCH  17  18
ATOM     18  O   UNL     1      45.576   1.565   8.638  0.00  0.00    +0.000 OA
ATOM     19  H   UNL     1      46.246   2.219   8.384  0.00  0.00    +0.000 HD
ENDBRANCH  17  18
ENDBRANCH  11  17
ENDBRANCH   1  14
TORSDOF 4
ENDMDL
MODEL 9
REMARK VINA RESULT:    -5.454      4.719      6.437
REMARK INTER + INTRA:          -6.827
REMARK INTER:                  -6.460
REMARK INTRA:                  -0.367
REMARK UNBOUND:                -0.256
REMARK  Name = 
REMARK  4 active torsions:
REMARK  status: ('A' for Active; 'I' for Inactive)
REMARK    1  A    between atoms: O_1  and  C_2
REMARK    2  A    between atoms: C_2  and  C_3
REMARK    3  A    between atoms: C_6  and  C_7
REMARK    4  A    between atoms: C_7  and  N_8
REMARK                            x       y       z     vdW  Elec       q    Type
REMARK                         _______ _______ _______ _____ _____    ______ ____
ROOT
ATOM      1  C   UNL     1      48.053   5.837  13.707  0.00  0.00    +0.000 C 
ENDROOT
BRANCH   1   2
ATOM      2  N   UNL     1      48.221   6.154  15.120  0.00  0.00    +0.000 N 
ATOM      3  C   UNL     1      48.924   7.220  15.620  0.00  0.00    +0.000 A 
ATOM      4  N   UNL     1      49.371   6.991  16.831  0.00  0.00    +0.000 NA
ATOM      5  C   UNL     1      48.909   5.738  17.153  0.00  0.00    +0.000 A 
ATOM      6  C   UNL     1      49.173   4.953  18.285  0.00  0.00    +0.000 A 
ATOM      7  C   UNL     1      48.579   3.690  18.383  0.00  0.00    +0.000 A 
ATOM      8  C   UNL     1      47.703   3.235  17.395  0.00  0.00    +0.000 A 
ATOM      9  C   UNL     1      47.439   3.998  16.251  0.00  0.00    +0.000 A 
ATOM     10  C   UNL     1      48.094   5.231  16.142  0.00  0.00    +0.000 A 
ENDBRANCH   1   2
BRANCH   1  14
ATOM     11  C   UNL     1      44.015   5.372  12.202  0.00  0.00    +0.000 A 
ATOM     12  C   UNL     1      44.567   6.647  12.383  0.00  0.00    +0.000 A 
ATOM     13  C   UNL     1      45.862   6.799  12.888  0.00  0.00    +0.000 A 
ATOM     14  C   UNL     1      46.629   5.679  13.240  0.00  0.00    +0.000 A 
ATOM     15  C   UNL     1      46.070   4.405  13.085  0.00  0.00    +0.000 A 
ATOM     16  C   UNL     1      44.778   4.254  12.569  0.00  0.00    +0.000 A 
BRANCH  11  17
ATOM     17  C   UNL     1      42.610   5.184  11.694  0.00  0.00    +0.000 C 
BRANCH  17  18
ATOM     18  O   UNL     1      41.882   6.408  11.722  0.00  0.00    +0.000 OA
ATOM     19  H   UNL     1      42.394   7.047  11.202  0.00  0.00    +0.000 HD
ENDBRANCH  17  18
ENDBRANCH  11  17
ENDBRANCH   1  14
TORSDOF 4
ENDMDL
