MODEL 1
REMARK VINA RESULT:    -8.593      0.000      0.000
REMARK INTER + INTRA:         -13.256
REMARK INTER:                 -12.361
REMARK INTRA:                  -0.896
REMARK UNBOUND:                -0.896
REMARK  Name = 
REMARK  8 active torsions:
REMARK  status: ('A' for Active; 'I' for Inactive)
REMARK    1  A    between atoms: C_2  and  C_21
REMARK    2  A    between atoms: N_3  and  C_4
REMARK    3  A    between atoms: C_4  and  C_5
REMARK    4  A    between atoms: C_8  and  C_9
REMARK    5  A    between atoms: C_9  and  C_10
REMARK    6  A    between atoms: C_10  and  O_11
REMARK    7  A    between atoms: C_10  and  C_12
REMARK    8  A    between atoms: C_12  and  C_13
REMARK                            x       y       z     vdW  Elec       q    Type
REMARK                         _______ _______ _______ _____ _____    ______ ____
ROOT
ATOM      1  C   UNL     1      46.099   7.133  12.365  0.00  0.00    +0.000 A 
ATOM      2  C   UNL     1      46.506   6.796  11.076  0.00  0.00    +0.000 A 
ATOM      3  C   UNL     1      45.768   5.877  10.339  0.00  0.00    +0.000 A 
ATOM      4  C   UNL     1      44.625   5.313  10.904  0.00  0.00    +0.000 A 
ATOM      5  N   UNL     1      44.186   5.649  12.141  0.00  0.00    +0.000 NA
ATOM      6  C   UNL     1      44.923   6.554  12.831  0.00  0.00    +0.000 A 
ENDROOT
BRANCH   1   7
ATOM      7  C   UNL     1      46.888   8.099  13.197  0.00  0.00    +0.000 C 
BRANCH   7  10
ATOM      8  O   UNL     1      49.041   6.301  13.433  0.00  0.00    +0.000 OA
ATOM      9  C   UNL     1      48.456   6.665  14.450  0.00  0.00    +0.000 C 
ATOM     10  N   UNL     1      47.360   7.491  14.413  0.00  0.00    +0.000 N 
ATOM     11  H   UNL     1      47.014   7.889  15.279  0.00  0.00    +0.000 HD
BRANCH   9  12
ATOM     12  C   UNL     1      48.861   6.193  15.780  0.00  0.00    +0.000 A 
ATOM     13  C   UNL     1      49.769   6.936  16.527  0.00  0.00    +0.000 A 
ATOM     14  S   UNL     1      50.124   6.253  18.046  0.00  0.00    +0.000 S 
ATOM     15  C   UNL     1      49.043   4.963  17.782  0.00  0.00    +0.000 A 
ATOM     16  N   UNL     1      48.838   4.016  18.735  0.00  0.00    +0.000 NA
ATOM     17  C   UNL     1      47.959   3.126  18.422  0.00  0.00    +0.000 A 
ATOM     18  N   UNL     1      47.279   3.084  17.231  0.00  0.00    +0.000 N 
ATOM     19  C   UNL     1      47.520   3.965  16.202  0.00  0.00    +0.000 A 
ATOM     20  O   UNL     1      47.020   3.804  15.098  0.00  0.00    +0.000 OA
ATOM     21  C   UNL     1      48.451   5.032  16.534  0.00  0.00    +0.000 A 
ATOM     22  H   UNL     1      46.631   2.335  17.031  0.00  0.00    +0.000 HD
ENDBRANCH   9  12
ENDBRANCH   7  10
ENDBRANCH   1   7
BRANCH   4  23
ATOM     23  C   UNL     1      43.807   4.311  10.121  0.00  0.00    +0.000 C 
BRANCH  23  24
ATOM     24  C   UNL     1      44.300   2.877  10.357  0.00  0.00    +0.000 C 
BRANCH  24  25
ATOM     25  O   UNL     1      43.458   2.251  11.336  0.00  0.00    +0.000 OA
ATOM     26  H   UNL     1      42.586   2.683  11.311  0.00  0.00    +0.000 HD
ENDBRANCH  24  25
BRANCH  24  27
ATOM     27  C   UNL     1      44.290   2.057   9.053  0.00  0.00    +0.000 C 
BRANCH  27  28
ATOM     28  C   UNL     1      45.575   2.217   8.270  0.00  0.00    +0.000 A 
ATOM     29  C   UNL     1      46.396   1.120   8.014  0.00  0.00    +0.000 A 
ATOM     30  C   UNL     1      47.521   1.292   7.212  0.00  0.00    +0.000 A 
ATOM     31  C   UNL     1      47.808   2.552   6.704  0.00  0.00    +0.000 A 
ATOM     32  C   UNL     1      46.958   3.595   7.028  0.00  0.00    +0.000 A 
ATOM     33  N   UNL     1      45.854   3.458   7.798  0.00  0.00    +0.000 NA
ENDBRANCH  27  28
ENDBRANCH  24  27
ENDBRANCH  23  24
ENDBRANCH   4  23
TORSDOF 8
ENDMDL
MODEL 2
REMARK VINA RESULT:    -8.208      2.305      2.836
REMARK INTER + INTRA:         -12.702
REMARK INTER:                 -11.435
REMARK INTRA:                  -1.266
REMARK UNBOUND:                -0.896
REMARK  Name = 
REMARK  8 active torsions:
REMARK  status: ('A' for Active; 'I' for Inactive)
REMARK    1  A    between atoms: C_2  and  C_21
REMARK    2  A    between atoms: N_3  and  C_4
REMARK    3  A    between atoms: C_4  and  C_5
REMARK    4  A    between atoms: C_8  and  C_9
REMARK    5  A    between atoms: C_9  and  C_10
REMARK    6  A    between atoms: C_10  and  O_11
REMARK    7  A    between atoms: C_10  and  C_12
REMARK    8  A    between atoms: C_12  and  C_13
REMARK                            x       y       z     vdW  Elec       q    Type
REMARK                         _______ _______ _______ _____ _____    ______ ____
ROOT
ATOM      1  C   UNL     1      47.362   6.566  13.239  0.00  0.00    +0.000 A 
ATOM      2  C   UNL     1      46.971   7.193  12.057  0.00  0.00    +0.000 A 
ATOM      3  C   UNL     1      46.031   6.584  11.233  0.00  0.00    +0.000 A 
ATOM      4  C   UNL     1      45.491   5.355  11.610  0.00  0.00    +0.000 A 
ATOM      5  N   UNL     1      45.826   4.741  12.770  0.00  0.00    +0.000 NA
ATOM      6  C   UNL     1      46.739   5.364  13.556  0.00  0.00    +0.000 A 
ENDROOT
BRANCH   1   7
ATOM      7  C   UNL     1      48.394   7.182  14.135  0.00  0.00    +0.000 C 
BRANCH   7  10
ATOM      8  O   UNL     1      50.453   6.512  15.934  0.00  0.00    +0.000 OA
ATOM      9  C   UNL     1      49.291   6.510  16.332  0.00  0.00    +0.000 C 
ATOM     10  N   UNL     1      48.228   6.766  15.502  0.00  0.00    +0.000 N 
ATOM     11  H   UNL     1      47.310   6.909  15.908  0.00  0.00    +0.000 HD
BRANCH   9  12
ATOM     12  C   UNL     1      48.956   6.177  17.722  0.00  0.00    +0.000 A 
ATOM     13  C   UNL     1      49.263   4.916  18.221  0.00  0.00    +0.000 A 
ATOM     14  S   UNL     1      48.813   4.698  19.849  0.00  0.00    +0.000 S 
ATOM     15  C   UNL     1      48.233   6.296  19.962  0.00  0.00    +0.000 A 
ATOM     16  N   UNL     1      47.735   6.778  21.131  0.00  0.00    +0.000 NA
ATOM     17  C   UNL     1      47.377   8.016  21.087  0.00  0.00    +0.000 A 
ATOM     18  N   UNL     1      47.452   8.813  19.973  0.00  0.00    +0.000 N 
ATOM     19  C   UNL     1      47.860   8.343  18.745  0.00  0.00    +0.000 A 
ATOM     20  O   UNL     1      47.760   9.030  17.739  0.00  0.00    +0.000 OA
ATOM     21  C   UNL     1      48.344   6.972  18.761  0.00  0.00    +0.000 A 
ATOM     22  H   UNL     1      47.116   9.766  19.994  0.00  0.00    +0.000 HD
ENDBRANCH   9  12
ENDBRANCH   7  10
ENDBRANCH   1   7
BRANCH   4  23
ATOM     23  C   UNL     1      44.468   4.674  10.729  0.00  0.00    +0.000 C 
BRANCH  23  24
ATOM     24  C   UNL     1      44.757   3.173  10.592  0.00  0.00    +0.000 C 
BRANCH  24  25
ATOM     25  O   UNL     1      44.061   2.468  11.630  0.00  0.00    +0.000 OA
ATOM     26  H   UNL     1      44.328   2.844  12.487  0.00  0.00    +0.000 HD
ENDBRANCH  24  25
BRANCH  24  27
ATOM     27  C   UNL     1      44.322   2.641   9.213  0.00  0.00    +0.000 C 
BRANCH  27  28
ATOM     28  C   UNL     1      45.503   2.374   8.307  0.00  0.00    +0.000 A 
ATOM     29  C   UNL     1      46.039   3.388   7.514  0.00  0.00    +0.000 A 
ATOM     30  C   UNL     1      47.182   3.128   6.764  0.00  0.00    +0.000 A 
ATOM     31  C   UNL     1      47.750   1.861   6.808  0.00  0.00    +0.000 A 
ATOM     32  C   UNL     1      47.140   0.900   7.598  0.00  0.00    +0.000 A 
ATOM     33  N   UNL     1      46.034   1.126   8.343  0.00  0.00    +0.000 NA
ENDBRANCH  27  28
ENDBRANCH  24  27
ENDBRANCH  23  24
ENDBRANCH   4  23
TORSDOF 8
ENDMDL
MODEL 3
REMARK VINA RESULT:    -7.840      1.672      2.079
REMARK INTER + INTRA:         -12.172
REMARK INTER:                 -10.832
REMARK INTRA:                  -1.341
REMARK UNBOUND:                -0.896
REMARK  Name = 
REMARK  8 active torsions:
REMARK  status: ('A' for Active; 'I' for Inactive)
REMARK    1  A    between atoms: C_2  and  C_21
REMARK    2  A    between atoms: N_3  and  C_4
REMARK    3  A    between atoms: C_4  and  C_5
REMARK    4  A    between atoms: C_8  and  C_9
REMARK    5  A    between atoms: C_9  and  C_10
REMARK    6  A    between atoms: C_10  and  O_11
REMARK    7  A    between atoms: C_10  and  C_12
REMARK    8  A    between atoms: C_12  and  C_13
REMARK                            x       y       z     vdW  Elec       q    Type
REMARK                         _______ _______ _______ _____ _____    ______ ____
ROOT
ATOM      1  C   UNL     1      46.467   6.827  12.958  0.00  0.00    +0.000 A 
ATOM      2  C   UNL     1      46.598   5.486  13.314  0.00  0.00    +0.000 A 
ATOM      3  C   UNL     1      45.727   4.543  12.779  0.00  0.00    +0.000 A 
ATOM      4  C   UNL     1      44.739   4.959  11.889  0.00  0.00    +0.000 A 
ATOM      5  N   UNL     1      44.611   6.250  11.498  0.00  0.00    +0.000 NA
ATOM      6  C   UNL     1      45.480   7.144  12.031  0.00  0.00    +0.000 A 
ENDROOT
BRANCH   1   7
ATOM      7  C   UNL     1      47.371   7.872  13.538  0.00  0.00    +0.000 C 
BRANCH   7  10
ATOM      8  O   UNL     1      49.109   9.168  15.334  0.00  0.00    +0.000 OA
ATOM      9  C   UNL     1      49.278   7.975  15.100  0.00  0.00    +0.000 C 
ATOM     10  N   UNL     1      48.511   7.287  14.191  0.00  0.00    +0.000 N 
ATOM     11  H   UNL     1      48.583   6.277  14.151  0.00  0.00    +0.000 HD
BRANCH   9  12
ATOM     12  C   UNL     1      50.355   7.210  15.742  0.00  0.00    +0.000 A 
ATOM     13  C   UNL     1      51.673   7.632  15.606  0.00  0.00    +0.000 A 
ATOM     14  S   UNL     1      52.794   6.638  16.416  0.00  0.00    +0.000 S 
ATOM     15  C   UNL     1      51.556   5.633  17.015  0.00  0.00    +0.000 A 
ATOM     16  N   UNL     1      51.840   4.586  17.833  0.00  0.00    +0.000 NA
ATOM     17  C   UNL     1      50.805   3.939  18.250  0.00  0.00    +0.000 A 
ATOM     18  N   UNL     1      49.510   4.232  17.908  0.00  0.00    +0.000 N 
ATOM     19  C   UNL     1      49.180   5.223  17.011  0.00  0.00    +0.000 A 
ATOM     20  O   UNL     1      48.036   5.353  16.601  0.00  0.00    +0.000 OA
ATOM     21  C   UNL     1      50.308   6.028  16.569  0.00  0.00    +0.000 A 
ATOM     22  H   UNL     1      48.745   3.661  18.238  0.00  0.00    +0.000 HD
ENDBRANCH   9  12
ENDBRANCH   7  10
ENDBRANCH   1   7
BRANCH   4  23
ATOM     23  C   UNL     1      43.780   3.951  11.295  0.00  0.00    +0.000 C 
BRANCH  23  24
ATOM     24  C   UNL     1      44.498   2.990  10.339  0.00  0.00    +0.000 C 
BRANCH  24  25
ATOM     25  O   UNL     1      43.769   1.755  10.288  0.00  0.00    +0.000 OA
ATOM     26  H   UNL     1      43.815   1.336  11.165  0.00  0.00    +0.000 HD
ENDBRANCH  24  25
BRANCH  24  27
ATOM     27  C   UNL     1      44.618   3.589   8.925  0.00  0.00    +0.000 C 
BRANCH  27  28
ATOM     28  C   UNL     1      45.627   2.847   8.076  0.00  0.00    +0.000 A 
ATOM     29  C   UNL     1      46.287   3.488   7.029  0.00  0.00    +0.000 A 
ATOM     30  C   UNL     1      47.274   2.799   6.330  0.00  0.00    +0.000 A 
ATOM     31  C   UNL     1      47.564   1.486   6.680  0.00  0.00    +0.000 A 
ATOM     32  C   UNL     1      46.843   0.913   7.714  0.00  0.00    +0.000 A 
ATOM     33  N   UNL     1      45.885   1.559   8.415  0.00  0.00    +0.000 NA
ENDBRANCH  27  28
ENDBRANCH  24  27
ENDBRANCH  23  24
ENDBRANCH   4  23
TORSDOF 8
ENDMDL
MODEL 4
REMARK VINA RESULT:    -7.740      2.484      3.744
REMARK INTER + INTRA:         -12.029
REMARK INTER:                 -10.839
REMARK INTRA:                  -1.190
REMARK UNBOUND:                -0.896
REMARK  Name = 
REMARK  8 active torsions:
REMARK  status: ('A' for Active; 'I' for Inactive)
REMARK    1  A    between atoms: C_2  and  C_21
REMARK    2  A    between atoms: N_3  and  C_4
REMARK    3  A    between atoms: C_4  and  C_5
REMARK    4  A    between atoms: C_8  and  C_9
REMARK    5  A    between atoms: C_9  and  C_10
REMARK    6  A    between atoms: C_10  and  O_11
REMARK    7  A    between atoms: C_10  and  C_12
REMARK    8  A    between atoms: C_12  and  C_13
REMARK                            x       y       z     vdW  Elec       q    Type
REMARK                         _______ _______ _______ _____ _____    ______ ____
ROOT
ATOM      1  C   UNL     1      47.000   4.448  14.441  0.00  0.00    +0.000 A 
ATOM      2  C   UNL     1      47.126   5.729  13.905  0.00  0.00    +0.000 A 
ATOM      3  C   UNL     1      46.547   6.021  12.675  0.00  0.00    +0.000 A 
ATOM      4  C   UNL     1      45.842   5.025  12.002  0.00  0.00    +0.000 A 
ATOM      5  N   UNL     1      45.672   3.782  12.516  0.00  0.00    +0.000 NA
ATOM      6  C   UNL     1      46.243   3.531  13.720  0.00  0.00    +0.000 A 
ENDROOT
BRANCH   1   7
ATOM      7  C   UNL     1      47.637   4.092  15.750  0.00  0.00    +0.000 C 
BRANCH   7  10
ATOM      8  O   UNL     1      49.772   5.684  16.664  0.00  0.00    +0.000 OA
ATOM      9  C   UNL     1      48.633   5.939  17.048  0.00  0.00    +0.000 C 
ATOM     10  N   UNL     1      47.549   5.173  16.696  0.00  0.00    +0.000 N 
ATOM     11  H   UNL     1      46.617   5.513  16.905  0.00  0.00    +0.000 HD
BRANCH   9  12
ATOM     12  C   UNL     1      48.362   7.056  17.960  0.00  0.00    +0.000 A 
ATOM     13  C   UNL     1      48.226   6.814  19.323  0.00  0.00    +0.000 A 
ATOM     14  S   UNL     1      47.921   8.218  20.238  0.00  0.00    +0.000 S 
ATOM     15  C   UNL     1      48.003   9.207  18.854  0.00  0.00    +0.000 A 
ATOM     16  N   UNL     1      47.865  10.555  18.949  0.00  0.00    +0.000 NA
ATOM     17  C   UNL     1      47.997  11.185  17.831  0.00  0.00    +0.000 A 
ATOM     18  N   UNL     1      48.237  10.586  16.620  0.00  0.00    +0.000 N 
ATOM     19  C   UNL     1      48.291   9.220  16.460  0.00  0.00    +0.000 A 
ATOM     20  O   UNL     1      48.341   8.713  15.349  0.00  0.00    +0.000 OA
ATOM     21  C   UNL     1      48.221   8.470  17.704  0.00  0.00    +0.000 A 
ATOM     22  H   UNL     1      48.290  11.134  15.773  0.00  0.00    +0.000 HD
ENDBRANCH   9  12
ENDBRANCH   7  10
ENDBRANCH   1   7
BRANCH   4  23
ATOM     23  C   UNL     1      45.203   5.320  10.663  0.00  0.00    +0.000 C 
BRANCH  23  24
ATOM     24  C   UNL     1      44.753   4.032   9.961  0.00  0.00    +0.000 C 
BRANCH  24  25
ATOM     25  O   UNL     1      43.417   3.716  10.380  0.00  0.00    +0.000 OA
ATOM     26  H   UNL     1      43.097   4.436  10.951  0.00  0.00    +0.000 HD
ENDBRANCH  24  25
BRANCH  24  27
ATOM     27  C   UNL     1      44.802   4.181   8.428  0.00  0.00    +0.000 C 
BRANCH  27  28
ATOM     28  C   UNL     1      45.704   3.151   7.784  0.00  0.00    +0.000 A 
ATOM     29  C   UNL     1      46.420   3.453   6.628  0.00  0.00    +0.000 A 
ATOM     30  C   UNL     1      47.309   2.511   6.118  0.00  0.00    +0.000 A 
ATOM     31  C   UNL     1      47.446   1.287   6.761  0.00  0.00    +0.000 A 
ATOM     32  C   UNL     1      46.676   1.054   7.889  0.00  0.00    +0.000 A 
ATOM     33  N   UNL     1      45.811   1.953   8.411  0.00  0.00    +0.000 NA
ENDBRANCH  27  28
ENDBRANCH  24  27
ENDBRANCH  23  24
ENDBRANCH   4  23
TORSDOF 8
ENDMDL
MODEL 5
REMARK VINA RESULT:    -7.500      1.746      2.037
REMARK INTER + INTRA:         -11.683
REMARK INTER:                 -11.509
REMARK INTRA:                  -0.175
REMARK UNBOUND:                -0.896
REMARK  Name = 
REMARK  8 active torsions:
REMARK  status: ('A' for Active; 'I' for Inactive)
REMARK    1  A    between atoms: C_2  and  C_21
REMARK    2  A    between atoms: N_3  and  C_4
REMARK    3  A    between atoms: C_4  and  C_5
REMARK    4  A    between atoms: C_8  and  C_9
REMARK    5  A    between atoms: C_9  and  C_10
REMARK    6  A    between atoms: C_10  and  O_11
REMARK    7  A    between atoms: C_10  and  C_12
REMARK    8  A    between atoms: C_12  and  C_13
REMARK                            x       y       z     vdW  Elec       q    Type
REMARK                         _______ _______ _______ _____ _____    ______ ____
ROOT
ATOM      1  C   UNL     1      47.150   6.032  12.910  0.00  0.00    +0.000 A 
ATOM      2  C   UNL     1      46.527   4.890  13.411  0.00  0.00    +0.000 A 
ATOM      3  C   UNL     1      45.423   4.362  12.751  0.00  0.00    +0.000 A 
ATOM      4  C   UNL     1      44.963   4.983  11.591  0.00  0.00    +0.000 A 
ATOM      5  N   UNL     1      45.571   6.072  11.061  0.00  0.00    +0.000 NA
ATOM      6  C   UNL     1      46.650   6.559  11.724  0.00  0.00    +0.000 A 
ENDROOT
BRANCH   1   7
ATOM      7  C   UNL     1      48.324   6.644  13.613  0.00  0.00    +0.000 C 
BRANCH   7  10
ATOM      8  O   UNL     1      50.051   7.780  15.524  0.00  0.00    +0.000 OA
ATOM      9  C   UNL     1      49.070   7.149  15.909  0.00  0.00    +0.000 C 
ATOM     10  N   UNL     1      48.215   6.514  15.041  0.00  0.00    +0.000 N 
ATOM     11  H   UNL     1      47.340   6.145  15.395  0.00  0.00    +0.000 HD
BRANCH   9  12
ATOM     12  C   UNL     1      48.775   6.984  17.338  0.00  0.00    +0.000 A 
ATOM     13  C   UNL     1      48.308   8.068  18.073  0.00  0.00    +0.000 A 
ATOM     14  S   UNL     1      48.009   7.704  19.710  0.00  0.00    +0.000 S 
ATOM     15  C   UNL     1      48.449   6.073  19.487  0.00  0.00    +0.000 A 
ATOM     16  N   UNL     1      48.378   5.184  20.511  0.00  0.00    +0.000 NA
ATOM     17  C   UNL     1      48.694   3.975  20.190  0.00  0.00    +0.000 A 
ATOM     18  N   UNL     1      49.094   3.577  18.940  0.00  0.00    +0.000 N 
ATOM     19  C   UNL     1      49.271   4.458  17.897  0.00  0.00    +0.000 A 
ATOM     20  O   UNL     1      49.784   4.102  16.846  0.00  0.00    +0.000 OA
ATOM     21  C   UNL     1      48.857   5.821  18.189  0.00  0.00    +0.000 A 
ATOM     22  H   UNL     1      49.367   2.621  18.764  0.00  0.00    +0.000 HD
ENDBRANCH   9  12
ENDBRANCH   7  10
ENDBRANCH   1   7
BRANCH   4  23
ATOM     23  C   UNL     1      43.764   4.426  10.857  0.00  0.00    +0.000 C 
BRANCH  23  24
ATOM     24  C   UNL     1      44.150   3.909   9.465  0.00  0.00    +0.000 C 
BRANCH  24  25
ATOM     25  O   UNL     1      44.897   4.926   8.782  0.00  0.00    +0.000 OA
ATOM     26  H   UNL     1      44.649   5.790   9.154  0.00  0.00    +0.000 HD
ENDBRANCH  24  25
BRANCH  24  27
ATOM     27  C   UNL     1      44.984   2.616   9.557  0.00  0.00    +0.000 C 
BRANCH  27  28
ATOM     28  C   UNL     1      45.891   2.437   8.359  0.00  0.00    +0.000 A 
ATOM     29  C   UNL     1      46.428   1.188   8.050  0.00  0.00    +0.000 A 
ATOM     30  C   UNL     1      47.182   1.045   6.890  0.00  0.00    +0.000 A 
ATOM     31  C   UNL     1      47.398   2.152   6.078  0.00  0.00    +0.000 A 
ATOM     32  C   UNL     1      46.854   3.363   6.470  0.00  0.00    +0.000 A 
ATOM     33  N   UNL     1      46.111   3.531   7.587  0.00  0.00    +0.000 NA
ENDBRANCH  27  28
ENDBRANCH  24  27
ENDBRANCH  23  24
ENDBRANCH   4  23
TORSDOF 8
ENDMDL
MODEL 6
REMARK VINA RESULT:    -7.454      3.018      4.288
REMARK INTER + INTRA:         -11.617
REMARK INTER:                 -10.407
REMARK INTRA:                  -1.210
REMARK UNBOUND:                -0.896
REMARK  Name = 
REMARK  8 active torsions:
REMARK  status: ('A' for Active; 'I' for Inactive)
REMARK    1  A    between atoms: C_2  and  C_21
REMARK    2  A    between atoms: N_3  and  C_4
REMARK    3  A    between atoms: C_4  and  C_5
REMARK    4  A    between atoms: C_8  and  C_9
REMARK    5  A    between atoms: C_9  and  C_10
REMARK    6  A    between atoms: C_10  and  O_11
REMARK    7  A    between atoms: C_10  and  C_12
REMARK    8  A    between atoms: C_12  and  C_13
REMARK                            x       y       z     vdW  Elec       q    Type
REMARK                         _______ _______ _______ _____ _____    ______ ____
ROOT
ATOM      1  C   UNL     1      48.284   5.774  16.202  0.00  0.00    +0.000 A 
ATOM      2  C   UNL     1      47.563   4.608  15.954  0.00  0.00    +0.000 A 
ATOM      3  C   UNL     1      46.973   4.413  14.710  0.00  0.00    +0.000 A 
ATOM      4  C   UNL     1      47.121   5.391  13.728  0.00  0.00    +0.000 A 
ATOM      5  N   UNL     1      47.847   6.517  13.928  0.00  0.00    +0.000 NA
ATOM      6  C   UNL     1      48.416   6.674  15.149  0.00  0.00    +0.000 A 
ENDROOT
BRANCH   1   7
ATOM      7  C   UNL     1      48.908   6.028  17.541  0.00  0.00    +0.000 C 
BRANCH   7  10
ATOM      8  O   UNL     1      51.574   6.264  16.667  0.00  0.00    +0.000 OA
ATOM      9  C   UNL     1      51.268   5.323  17.395  0.00  0.00    +0.000 C 
ATOM     10  N   UNL     1      49.978   5.106  17.813  0.00  0.00    +0.000 N 
ATOM     11  H   UNL     1      49.805   4.416  18.535  0.00  0.00    +0.000 HD
BRANCH   9  12
ATOM     12  C   UNL     1      52.259   4.330  17.826  0.00  0.00    +0.000 A 
ATOM     13  C   UNL     1      53.466   4.755  18.372  0.00  0.00    +0.000 A 
ATOM     14  S   UNL     1      54.497   3.476  18.824  0.00  0.00    +0.000 S 
ATOM     15  C   UNL     1      53.352   2.309  18.348  0.00  0.00    +0.000 A 
ATOM     16  N   UNL     1      53.598   0.982  18.508  0.00  0.00    +0.000 NA
ATOM     17  C   UNL     1      52.628   0.212  18.150  0.00  0.00    +0.000 A 
ATOM     18  N   UNL     1      51.437   0.648  17.627  0.00  0.00    +0.000 N 
ATOM     19  C   UNL     1      51.179   1.973  17.359  0.00  0.00    +0.000 A 
ATOM     20  O   UNL     1      50.179   2.313  16.743  0.00  0.00    +0.000 OA
ATOM     21  C   UNL     1      52.215   2.887  17.814  0.00  0.00    +0.000 A 
ATOM     22  H   UNL     1      50.731  -0.010  17.328  0.00  0.00    +0.000 HD
ENDBRANCH   9  12
ENDBRANCH   7  10
ENDBRANCH   1   7
BRANCH   4  23
ATOM     23  C   UNL     1      46.489   5.201  12.367  0.00  0.00    +0.000 C 
BRANCH  23  24
ATOM     24  C   UNL     1      44.959   5.283  12.444  0.00  0.00    +0.000 C 
BRANCH  24  25
ATOM     25  O   UNL     1      44.595   6.367  13.312  0.00  0.00    +0.000 OA
ATOM     26  H   UNL     1      43.682   6.220  13.617  0.00  0.00    +0.000 HD
ENDBRANCH  24  25
BRANCH  24  27
ATOM     27  C   UNL     1      44.336   5.495  11.050  0.00  0.00    +0.000 C 
BRANCH  27  28
ATOM     28  C   UNL     1      44.805   4.458  10.054  0.00  0.00    +0.000 A 
ATOM     29  C   UNL     1      44.449   3.118  10.197  0.00  0.00    +0.000 A 
ATOM     30  C   UNL     1      44.824   2.210   9.211  0.00  0.00    +0.000 A 
ATOM     31  C   UNL     1      45.557   2.656   8.119  0.00  0.00    +0.000 A 
ATOM     32  C   UNL     1      45.895   3.998   8.066  0.00  0.00    +0.000 A 
ATOM     33  N   UNL     1      45.540   4.904   9.004  0.00  0.00    +0.000 NA
ENDBRANCH  27  28
ENDBRANCH  24  27
ENDBRANCH  23  24
ENDBRANCH   4  23
TORSDOF 8
ENDMDL
MODEL 7
REMARK VINA RESULT:    -7.393      2.860      8.141
REMARK INTER + INTRA:         -11.529
REMARK INTER:                  -9.652
REMARK INTRA:                  -1.878
REMARK UNBOUND:                -0.896
REMARK  Name = 
REMARK  8 active torsions:
REMARK  status: ('A' for Active; 'I' for Inactive)
REMARK    1  A    between atoms: C_2  and  C_21
REMARK    2  A    between atoms: N_3  and  C_4
REMARK    3  A    between atoms: C_4  and  C_5
REMARK    4  A    between atoms: C_8  and  C_9
REMARK    5  A    between atoms: C_9  and  C_10
REMARK    6  A    between atoms: C_10  and  O_11
REMARK    7  A    between atoms: C_10  and  C_12
REMARK    8  A    between atoms: C_12  and  C_13
REMARK                            x       y       z     vdW  Elec       q    Type
REMARK                         _______ _______ _______ _____ _____    ______ ____
ROOT
ATOM      1  C   UNL     1      48.455   8.044  13.038  0.00  0.00    +0.000 A 
ATOM      2  C   UNL     1      49.819   7.759  13.066  0.00  0.00    +0.000 A 
ATOM      3  C   UNL     1      50.524   7.879  14.258  0.00  0.00    +0.000 A 
ATOM      4  C   UNL     1      49.847   8.277  15.410  0.00  0.00    +0.000 A 
ATOM      5  N   UNL     1      48.516   8.526  15.420  0.00  0.00    +0.000 NA
ATOM      6  C   UNL     1      47.855   8.392  14.244  0.00  0.00    +0.000 A 
ENDROOT
BRANCH   1   7
ATOM      7  C   UNL     1      47.672   7.952  11.763  0.00  0.00    +0.000 C 
BRANCH   7  10
ATOM      8  O   UNL     1      44.889   7.616  12.021  0.00  0.00    +0.000 OA
ATOM      9  C   UNL     1      45.584   6.639  11.751  0.00  0.00    +0.000 C 
ATOM     10  N   UNL     1      46.953   6.710  11.668  0.00  0.00    +0.000 N 
ATOM     11  H   UNL     1      47.464   5.921  11.289  0.00  0.00    +0.000 HD
BRANCH   9  12
ATOM     12  C   UNL     1      44.996   5.309  11.551  0.00  0.00    +0.000 A 
ATOM     13  C   UNL     1      44.299   4.702  12.590  0.00  0.00    +0.000 A 
ATOM     14  S   UNL     1      43.677   3.168  12.189  0.00  0.00    +0.000 S 
ATOM     15  C   UNL     1      44.277   3.278  10.598  0.00  0.00    +0.000 A 
ATOM     16  N   UNL     1      44.051   2.287   9.696  0.00  0.00    +0.000 NA
ATOM     17  C   UNL     1      44.519   2.522   8.517  0.00  0.00    +0.000 A 
ATOM     18  N   UNL     1      45.212   3.652   8.163  0.00  0.00    +0.000 N 
ATOM     19  C   UNL     1      45.546   4.637   9.064  0.00  0.00    +0.000 A 
ATOM     20  O   UNL     1      46.302   5.547   8.758  0.00  0.00    +0.000 OA
ATOM     21  C   UNL     1      44.977   4.452  10.389  0.00  0.00    +0.000 A 
ATOM     22  H   UNL     1      45.588   3.757   7.231  0.00  0.00    +0.000 HD
ENDBRANCH   9  12
ENDBRANCH   7  10
ENDBRANCH   1   7
BRANCH   4  23
ATOM     23  C   UNL     1      50.593   8.415  16.719  0.00  0.00    +0.000 C 
BRANCH  23  24
ATOM     24  C   UNL     1      50.225   7.290  17.695  0.00  0.00    +0.000 C 
BRANCH  24  25
ATOM     25  O   UNL     1      48.812   7.333  17.942  0.00  0.00    +0.000 OA
ATOM     26  H   UNL     1      48.349   7.229  17.092  0.00  0.00    +0.000 HD
ENDBRANCH  24  25
BRANCH  24  27
ATOM     27  C   UNL     1      50.619   5.909  17.136  0.00  0.00    +0.000 C 
BRANCH  27  28
ATOM     28  C   UNL     1      49.476   4.920  17.204  0.00  0.00    +0.000 A 
ATOM     29  C   UNL     1      49.396   3.993  18.243  0.00  0.00    +0.000 A 
ATOM     30  C   UNL     1      48.283   3.162  18.322  0.00  0.00    +0.000 A 
ATOM     31  C   UNL     1      47.290   3.262  17.356  0.00  0.00    +0.000 A 
ATOM     32  C   UNL     1      47.458   4.188  16.341  0.00  0.00    +0.000 A 
ATOM     33  N   UNL     1      48.524   5.014  16.243  0.00  0.00    +0.000 NA
ENDBRANCH  27  28
ENDBRANCH  24  27
ENDBRANCH  23  24
ENDBRANCH   4  23
TORSDOF 8
ENDMDL
MODEL 8
REMARK VINA RESULT:    -7.300      3.153      7.916
REMARK INTER + INTRA:         -11.397
REMARK INTER:                  -9.673
REMARK INTRA:                  -1.724
REMARK UNBOUND:                -0.896
REMARK  Name = 
REMARK  8 active torsions:
REMARK  status: ('A' for Active; 'I' for Inactive)
REMARK    1  A    between atoms: C_2  and  C_21
REMARK    2  A    between atoms: N_3  and  C_4
REMARK    3  A    between atoms: C_4  and  C_5
REMARK    4  A    between atoms: C_8  and  C_9
REMARK    5  A    between atoms: C_9  and  C_10
REMARK    6  A    between atoms: C_10  and  O_11
REMARK    7  A    between atoms: C_10  and  C_12
REMARK    8  A    between atoms: C_12  and  C_13
REMARK                            x       y       z     vdW  Elec       q    Type
REMARK                         _______ _______ _______ _____ _____    ______ ____
ROOT
ATOM      1  C   UNL     1      48.489   8.000  13.521  0.00  0.00    +0.000 A 
ATOM      2  C   UNL     1      48.955   9.052  14.306  0.00  0.00    +0.000 A 
ATOM      3  C   UNL     1      49.512   8.788  15.552  0.00  0.00    +0.000 A 
ATOM      4  C   UNL     1      49.600   7.468  15.991  0.00  0.00    +0.000 A 
ATOM      5  N   UNL     1      49.187   6.423  15.234  0.00  0.00    +0.000 NA
ATOM      6  C   UNL     1      48.656   6.712  14.020  0.00  0.00    +0.000 A 
ENDROOT
BRANCH   1   7
ATOM      7  C   UNL     1      47.857   8.252  12.185  0.00  0.00    +0.000 C 
BRANCH   7  10
ATOM      8  O   UNL     1      45.128   7.974  11.550  0.00  0.00    +0.000 OA
ATOM      9  C   UNL     1      45.889   7.036  11.329  0.00  0.00    +0.000 C 
ATOM     10  N   UNL     1      47.220   7.072  11.666  0.00  0.00    +0.000 N 
ATOM     11  H   UNL     1      47.834   6.344  11.320  0.00  0.00    +0.000 HD
BRANCH   9  12
ATOM     12  C   UNL     1      45.410   5.782  10.733  0.00  0.00    +0.000 A 
ATOM     13  C   UNL     1      45.733   5.481   9.414  0.00  0.00    +0.000 A 
ATOM     14  S   UNL     1      45.105   3.989   8.883  0.00  0.00    +0.000 S 
ATOM     15  C   UNL     1      44.417   3.670  10.408  0.00  0.00    +0.000 A 
ATOM     16  N   UNL     1      43.754   2.509  10.647  0.00  0.00    +0.000 NA
ATOM     17  C   UNL     1      43.326   2.378  11.857  0.00  0.00    +0.000 A 
ATOM     18  N   UNL     1      43.485   3.313  12.847  0.00  0.00    +0.000 N 
ATOM     19  C   UNL     1      44.066   4.542  12.628  0.00  0.00    +0.000 A 
ATOM     20  O   UNL     1      44.045   5.415  13.484  0.00  0.00    +0.000 OA
ATOM     21  C   UNL     1      44.630   4.708  11.298  0.00  0.00    +0.000 A 
ATOM     22  H   UNL     1      43.090   3.167  13.766  0.00  0.00    +0.000 HD
ENDBRANCH   9  12
ENDBRANCH   7  10
ENDBRANCH   1   7
BRANCH   4  23
ATOM     23  C   UNL     1      50.202   7.156  17.343  0.00  0.00    +0.000 C 
BRANCH  23  24
ATOM     24  C   UNL     1      49.115   6.917  18.399  0.00  0.00    +0.000 C 
BRANCH  24  25
ATOM     25  O   UNL     1      47.833   6.912  17.754  0.00  0.00    +0.000 OA
ATOM     26  H   UNL     1      47.303   6.189  18.133  0.00  0.00    +0.000 HD
ENDBRANCH  24  25
BRANCH  24  27
ATOM     27  C   UNL     1      49.335   5.585  19.142  0.00  0.00    +0.000 C 
BRANCH  27  28
ATOM     28  C   UNL     1      49.257   4.395  18.212  0.00  0.00    +0.000 A 
ATOM     29  C   UNL     1      50.383   3.613  17.957  0.00  0.00    +0.000 A 
ATOM     30  C   UNL     1      50.250   2.474  17.169  0.00  0.00    +0.000 A 
ATOM     31  C   UNL     1      49.005   2.154  16.641  0.00  0.00    +0.000 A 
ATOM     32  C   UNL     1      47.943   2.998  16.918  0.00  0.00    +0.000 A 
ATOM     33  N   UNL     1      48.040   4.107  17.685  0.00  0.00    +0.000 NA
ENDBRANCH  27  28
ENDBRANCH  24  27
ENDBRANCH  23  24
ENDBRANCH   4  23
TORSDOF 8
ENDMDL
MODEL 9
REMARK VINA RESULT:    -7.234      3.307      5.272
REMARK INTER + INTRA:         -11.301
REMARK INTER:                 -10.260
REMARK INTRA:                  -1.041
REMARK UNBOUND:                -0.896
REMARK  Name = 
REMARK  8 active torsions:
REMARK  status: ('A' for Active; 'I' for Inactive)
REMARK    1  A    between atoms: C_2  and  C_21
REMARK    2  A    between atoms: N_3  and  C_4
REMARK    3  A    between atoms: C_4  and  C_5
REMARK    4  A    between atoms: C_8  and  C_9
REMARK    5  A    between atoms: C_9  and  C_10
REMARK    6  A    between atoms: C_10  and  O_11
REMARK    7  A    between atoms: C_10  and  C_12
REMARK    8  A    between atoms: C_12  and  C_13
REMARK                            x       y       z     vdW  Elec       q    Type
REMARK                         _______ _______ _______ _____ _____    ______ ____
ROOT
ATOM      1  C   UNL     1      47.875   4.194  16.525  0.00  0.00    +0.000 A 
ATOM      2  C   UNL     1      47.104   3.620  15.516  0.00  0.00    +0.000 A 
ATOM      3  C   UNL     1      46.904   4.309  14.325  0.00  0.00    +0.000 A 
ATOM      4  C   UNL     1      47.487   5.564  14.160  0.00  0.00    +0.000 A 
ATOM      5  N   UNL     1      48.271   6.130  15.110  0.00  0.00    +0.000 NA
ATOM      6  C   UNL     1      48.453   5.430  16.256  0.00  0.00    +0.000 A 
ENDROOT
BRANCH   1   7
ATOM      7  C   UNL     1      48.086   3.490  17.832  0.00  0.00    +0.000 C 
BRANCH   7  10
ATOM      8  O   UNL     1      49.612   1.652  16.343  0.00  0.00    +0.000 OA
ATOM      9  C   UNL     1      50.160   2.295  17.234  0.00  0.00    +0.000 C 
ATOM     10  N   UNL     1      49.471   3.165  18.043  0.00  0.00    +0.000 N 
ATOM     11  H   UNL     1      49.991   3.786  18.653  0.00  0.00    +0.000 HD
BRANCH   9  12
ATOM     12  C   UNL     1      51.589   2.135  17.532  0.00  0.00    +0.000 A 
ATOM     13  C   UNL     1      52.128   0.858  17.648  0.00  0.00    +0.000 A 
ATOM     14  S   UNL     1      53.797   0.851  17.988  0.00  0.00    +0.000 S 
ATOM     15  C   UNL     1      53.870   2.552  17.948  0.00  0.00    +0.000 A 
ATOM     16  N   UNL     1      55.048   3.206  18.127  0.00  0.00    +0.000 NA
ATOM     17  C   UNL     1      54.967   4.489  18.024  0.00  0.00    +0.000 A 
ATOM     18  N   UNL     1      53.809   5.182  17.777  0.00  0.00    +0.000 N 
ATOM     19  C   UNL     1      52.579   4.571  17.682  0.00  0.00    +0.000 A 
ATOM     20  O   UNL     1      51.548   5.226  17.626  0.00  0.00    +0.000 OA
ATOM     21  C   UNL     1      52.629   3.118  17.718  0.00  0.00    +0.000 A 
ATOM     22  H   UNL     1      53.806   6.192  17.748  0.00  0.00    +0.000 HD
ENDBRANCH   9  12
ENDBRANCH   7  10
ENDBRANCH   1   7
BRANCH   4  23
ATOM     23  C   UNL     1      47.284   6.332  12.873  0.00  0.00    +0.000 C 
BRANCH  23  24
ATOM     24  C   UNL     1      45.796   6.435  12.512  0.00  0.00    +0.000 C 
BRANCH  24  25
ATOM     25  O   UNL     1      45.234   7.575  13.177  0.00  0.00    +0.000 OA
ATOM     26  H   UNL     1      44.328   7.707  12.845  0.00  0.00    +0.000 HD
ENDBRANCH  24  25
BRANCH  24  27
ATOM     27  C   UNL     1      45.595   6.562  10.989  0.00  0.00    +0.000 C 
BRANCH  27  28
ATOM     28  C   UNL     1      45.351   5.222  10.333  0.00  0.00    +0.000 A 
ATOM     29  C   UNL     1      44.763   4.176  11.043  0.00  0.00    +0.000 A 
ATOM     30  C   UNL     1      44.471   2.989  10.378  0.00  0.00    +0.000 A 
ATOM     31  C   UNL     1      44.789   2.866   9.032  0.00  0.00    +0.000 A 
ATOM     32  C   UNL     1      45.399   3.941   8.406  0.00  0.00    +0.000 A 
ATOM     33  N   UNL     1      45.687   5.109   9.023  0.00  0.00    +0.000 NA
ENDBRANCH  27  28
ENDBRANCH  24  27
ENDBRANCH  23  24
ENDBRANCH   4  23
TORSDOF 8
ENDMDL
