MODEL 1
REMARK VINA RESULT:    -8.106      0.000      0.000
REMARK INTER + INTRA:         -12.230
REMARK INTER:                 -11.423
REMARK INTRA:                  -0.807
REMARK UNBOUND:                -0.807
REMARK  Name = 
REMARK  8 active torsions:
REMARK  status: ('A' for Active; 'I' for Inactive)
REMARK    1  A    between atoms: N_1  and  C_2
REMARK    2  A    between atoms: C_2  and  C_3
REMARK    3  A    between atoms: C_6  and  O_7
REMARK    4  A    between atoms: O_7  and  C_8
REMARK    5  A    between atoms: C_8  and  C_9
REMARK    6  A    between atoms: C_9  and  O_10
REMARK    7  A    between atoms: C_9  and  C_11
REMARK    8  A    between atoms: C_14  and  C_15
REMARK                            x       y       z     vdW  Elec       q    Type
REMARK                         _______ _______ _______ _____ _____    ______ ____
ROOT
ATOM      1  C   UNL     1      43.475   5.153  12.246  0.00  0.00    +0.000 C 
ENDROOT
BRANCH   1   2
ATOM      2  C   UNL     1      44.889   5.589  12.566  0.00  0.00    +0.000 A 
ATOM      3  C   UNL     1      45.667   4.953  13.542  0.00  0.00    +0.000 A 
ATOM      4  C   UNL     1      46.985   5.361  13.782  0.00  0.00    +0.000 A 
ATOM      5  C   UNL     1      47.549   6.422  13.062  0.00  0.00    +0.000 A 
ATOM      6  C   UNL     1      46.768   7.090  12.121  0.00  0.00    +0.000 A 
ATOM      7  C   UNL     1      45.455   6.677  11.892  0.00  0.00    +0.000 A 
ATOM      8  F   UNL     1      44.728   7.360  10.997  0.00  0.00    +0.000 F 
BRANCH   5   9
ATOM      9  C   UNL     1      48.971   6.775  13.342  0.00  0.00    +0.000 C 
ATOM     10  N   UNL     1      49.780   7.122  12.297  0.00  0.00    +0.000 N 
ATOM     11  O   UNL     1      49.421   6.747  14.480  0.00  0.00    +0.000 OA
ATOM     12  H   UNL     1      49.510   7.159  11.329  0.00  0.00    +0.000 HD
ATOM     13  H   UNL     1      50.743   7.335  12.527  0.00  0.00    +0.000 HD
ENDBRANCH   5   9
ENDBRANCH   1   2
BRANCH   1  14
ATOM     14  O   UNL     1      42.740   4.880  13.446  0.00  0.00    +0.000 OA
ATOM     15  H   UNL     1      42.416   5.745  13.759  0.00  0.00    +0.000 HD
ENDBRANCH   1  14
BRANCH   1  16
ATOM     16  C   UNL     1      43.388   3.920  11.320  0.00  0.00    +0.000 C 
BRANCH  16  17
ATOM     17  O   UNL     1      43.570   4.321   9.952  0.00  0.00    +0.000 OA
BRANCH  17  21
ATOM     18  C   UNL     1      46.472   2.322   7.680  0.00  0.00    +0.000 A 
ATOM     19  C   UNL     1      45.658   1.586   8.551  0.00  0.00    +0.000 A 
ATOM     20  C   UNL     1      44.675   2.215   9.318  0.00  0.00    +0.000 A 
ATOM     21  C   UNL     1      44.485   3.596   9.233  0.00  0.00    +0.000 A 
ATOM     22  C   UNL     1      45.285   4.334   8.358  0.00  0.00    +0.000 A 
ATOM     23  C   UNL     1      46.272   3.706   7.588  0.00  0.00    +0.000 A 
BRANCH  18  24
ATOM     24  C   UNL     1      47.560   1.635   6.895  0.00  0.00    +0.000 C 
BRANCH  24  25
ATOM     25  N   UNL     1      48.562   2.582   6.417  0.00  0.00    +0.000 NA
ATOM     26  H   UNL     1      48.238   2.998   5.546  0.00  0.00    +0.000 HD
ATOM     27  H   UNL     1      49.414   2.070   6.194  0.00  0.00    +0.000 HD
ENDBRANCH  24  25
ENDBRANCH  18  24
ENDBRANCH  17  21
ENDBRANCH  16  17
ENDBRANCH   1  16
TORSDOF 8
ENDMDL
MODEL 2
REMARK VINA RESULT:    -7.940      1.043      1.396
REMARK INTER + INTRA:         -11.995
REMARK INTER:                 -11.324
REMARK INTRA:                  -0.671
REMARK UNBOUND:                -0.807
REMARK  Name = 
REMARK  8 active torsions:
REMARK  status: ('A' for Active; 'I' for Inactive)
REMARK    1  A    between atoms: N_1  and  C_2
REMARK    2  A    between atoms: C_2  and  C_3
REMARK    3  A    between atoms: C_6  and  O_7
REMARK    4  A    between atoms: O_7  and  C_8
REMARK    5  A    between atoms: C_8  and  C_9
REMARK    6  A    between atoms: C_9  and  O_10
REMARK    7  A    between atoms: C_9  and  C_11
REMARK    8  A    between atoms: C_14  and  C_15
REMARK                            x       y       z     vdW  Elec       q    Type
REMARK                         _______ _______ _______ _____ _____    ______ ____
ROOT
ATOM      1  C   UNL     1      43.322   5.385  12.303  0.00  0.00    +0.000 C 
ENDROOT
BRANCH   1   2
ATOM      2  C   UNL     1      44.761   5.741  12.612  0.00  0.00    +0.000 A 
ATOM      3  C   UNL     1      45.234   7.059  12.566  0.00  0.00    +0.000 A 
ATOM      4  C   UNL     1      46.563   7.352  12.896  0.00  0.00    +0.000 A 
ATOM      5  C   UNL     1      47.451   6.334  13.267  0.00  0.00    +0.000 A 
ATOM      6  C   UNL     1      47.001   5.016  13.272  0.00  0.00    +0.000 A 
ATOM      7  C   UNL     1      45.677   4.733  12.938  0.00  0.00    +0.000 A 
ATOM      8  F   UNL     1      45.289   3.451  12.931  0.00  0.00    +0.000 F 
BRANCH   5   9
ATOM      9  C   UNL     1      48.839   6.726  13.646  0.00  0.00    +0.000 C 
ATOM     10  N   UNL     1      49.706   7.110  12.663  0.00  0.00    +0.000 N 
ATOM     11  O   UNL     1      49.212   6.698  14.812  0.00  0.00    +0.000 OA
ATOM     12  H   UNL     1      49.501   7.150  11.678  0.00  0.00    +0.000 HD
ATOM     13  H   UNL     1      50.644   7.349  12.959  0.00  0.00    +0.000 HD
ENDBRANCH   5   9
ENDBRANCH   1   2
BRANCH   1  14
ATOM     14  O   UNL     1      42.647   4.922  13.479  0.00  0.00    +0.000 OA
ATOM     15  H   UNL     1      41.978   5.601  13.684  0.00  0.00    +0.000 HD
ENDBRANCH   1  14
BRANCH   1  16
ATOM     16  C   UNL     1      43.158   4.330  11.188  0.00  0.00    +0.000 C 
BRANCH  16  17
ATOM     17  O   UNL     1      43.794   4.787   9.983  0.00  0.00    +0.000 OA
BRANCH  17  21
ATOM     18  C   UNL     1      46.282   2.151   7.876  0.00  0.00    +0.000 A 
ATOM     19  C   UNL     1      45.399   1.639   8.835  0.00  0.00    +0.000 A 
ATOM     20  C   UNL     1      44.548   2.484   9.552  0.00  0.00    +0.000 A 
ATOM     21  C   UNL     1      44.565   3.862   9.325  0.00  0.00    +0.000 A 
ATOM     22  C   UNL     1      45.433   4.378   8.362  0.00  0.00    +0.000 A 
ATOM     23  C   UNL     1      46.288   3.532   7.643  0.00  0.00    +0.000 A 
BRANCH  18  24
ATOM     24  C   UNL     1      47.227   1.231   7.146  0.00  0.00    +0.000 C 
BRANCH  24  25
ATOM     25  N   UNL     1      48.358   1.956   6.579  0.00  0.00    +0.000 NA
ATOM     26  H   UNL     1      48.741   2.580   7.287  0.00  0.00    +0.000 HD
ATOM     27  H   UNL     1      48.021   2.550   5.823  0.00  0.00    +0.000 HD
ENDBRANCH  24  25
ENDBRANCH  18  24
ENDBRANCH  17  21
ENDBRANCH  16  17
ENDBRANCH   1  16
TORSDOF 8
ENDMDL
MODEL 3
REMARK VINA RESULT:    -7.831      2.095      6.113
REMARK INTER + INTRA:         -11.843
REMARK INTER:                 -10.984
REMARK INTRA:                  -0.858
REMARK UNBOUND:                -0.807
REMARK  Name = 
REMARK  8 active torsions:
REMARK  status: ('A' for Active; 'I' for Inactive)
REMARK    1  A    between atoms: N_1  and  C_2
REMARK    2  A    between atoms: C_2  and  C_3
REMARK    3  A    between atoms: C_6  and  O_7
REMARK    4  A    between atoms: O_7  and  C_8
REMARK    5  A    between atoms: C_8  and  C_9
REMARK    6  A    between atoms: C_9  and  O_10
REMARK    7  A    between atoms: C_9  and  C_11
REMARK    8  A    between atoms: C_14  and  C_15
REMARK                            x       y       z     vdW  Elec       q    Type
REMARK                         _______ _______ _______ _____ _____    ______ ____
ROOT
ATOM      1  C   UNL     1      43.631   4.127  10.469  0.00  0.00    +0.000 C 
ENDROOT
BRANCH   1   2
ATOM      2  C   UNL     1      44.653   3.678   9.446  0.00  0.00    +0.000 A 
ATOM      3  C   UNL     1      45.435   4.585   8.720  0.00  0.00    +0.000 A 
ATOM      4  C   UNL     1      46.397   4.129   7.810  0.00  0.00    +0.000 A 
ATOM      5  C   UNL     1      46.590   2.758   7.598  0.00  0.00    +0.000 A 
ATOM      6  C   UNL     1      45.786   1.850   8.283  0.00  0.00    +0.000 A 
ATOM      7  C   UNL     1      44.828   2.314   9.184  0.00  0.00    +0.000 A 
ATOM      8  F   UNL     1      44.058   1.411   9.806  0.00  0.00    +0.000 F 
BRANCH   5   9
ATOM      9  C   UNL     1      47.661   2.345   6.646  0.00  0.00    +0.000 C 
ATOM     10  N   UNL     1      47.832   3.063   5.496  0.00  0.00    +0.000 N 
ATOM     11  O   UNL     1      48.375   1.376   6.873  0.00  0.00    +0.000 OA
ATOM     12  H   UNL     1      47.288   3.861   5.213  0.00  0.00    +0.000 HD
ATOM     13  H   UNL     1      48.556   2.738   4.867  0.00  0.00    +0.000 HD
ENDBRANCH   5   9
ENDBRANCH   1   2
BRANCH   1  14
ATOM     14  O   UNL     1      43.195   5.467  10.202  0.00  0.00    +0.000 OA
ATOM     15  H   UNL     1      42.492   5.650  10.853  0.00  0.00    +0.000 HD
ENDBRANCH   1  14
BRANCH   1  16
ATOM     16  C   UNL     1      44.122   4.048  11.930  0.00  0.00    +0.000 C 
BRANCH  16  17
ATOM     17  O   UNL     1      44.306   5.372  12.459  0.00  0.00    +0.000 OA
BRANCH  17  21
ATOM     18  C   UNL     1      48.232   6.816  12.738  0.00  0.00    +0.000 A 
ATOM     19  C   UNL     1      47.808   5.813  13.618  0.00  0.00    +0.000 A 
ATOM     20  C   UNL     1      46.511   5.299  13.551  0.00  0.00    +0.000 A 
ATOM     21  C   UNL     1      45.607   5.782  12.602  0.00  0.00    +0.000 A 
ATOM     22  C   UNL     1      46.026   6.774  11.713  0.00  0.00    +0.000 A 
ATOM     23  C   UNL     1      47.327   7.290  11.779  0.00  0.00    +0.000 A 
BRANCH  18  24
ATOM     24  C   UNL     1      49.620   7.393  12.854  0.00  0.00    +0.000 C 
BRANCH  24  25
ATOM     25  N   UNL     1      50.178   7.193  14.187  0.00  0.00    +0.000 NA
ATOM     26  H   UNL     1      50.361   8.101  14.610  0.00  0.00    +0.000 HD
ATOM     27  H   UNL     1      51.081   6.729  14.097  0.00  0.00    +0.000 HD
ENDBRANCH  24  25
ENDBRANCH  18  24
ENDBRANCH  17  21
ENDBRANCH  16  17
ENDBRANCH   1  16
TORSDOF 8
ENDMDL
MODEL 4
REMARK VINA RESULT:    -7.324      1.942      2.187
REMARK INTER + INTRA:         -11.128
REMARK INTER:                 -10.334
REMARK INTRA:                  -0.794
REMARK UNBOUND:                -0.807
REMARK  Name = 
REMARK  8 active torsions:
REMARK  status: ('A' for Active; 'I' for Inactive)
REMARK    1  A    between atoms: N_1  and  C_2
REMARK    2  A    between atoms: C_2  and  C_3
REMARK    3  A    between atoms: C_6  and  O_7
REMARK    4  A    between atoms: O_7  and  C_8
REMARK    5  A    between atoms: C_8  and  C_9
REMARK    6  A    between atoms: C_9  and  O_10
REMARK    7  A    between atoms: C_9  and  C_11
REMARK    8  A    between atoms: C_14  and  C_15
REMARK                            x       y       z     vdW  Elec       q    Type
REMARK                         _______ _______ _______ _____ _____    ______ ____
ROOT
ATOM      1  C   UNL     1      44.483   3.416  12.498  0.00  0.00    +0.000 C 
ENDROOT
BRANCH   1   2
ATOM      2  C   UNL     1      44.985   4.843  12.439  0.00  0.00    +0.000 A 
ATOM      3  C   UNL     1      46.329   5.156  12.197  0.00  0.00    +0.000 A 
ATOM      4  C   UNL     1      46.747   6.490  12.111  0.00  0.00    +0.000 A 
ATOM      5  C   UNL     1      45.835   7.540  12.277  0.00  0.00    +0.000 A 
ATOM      6  C   UNL     1      44.505   7.238  12.562  0.00  0.00    +0.000 A 
ATOM      7  C   UNL     1      44.099   5.907  12.649  0.00  0.00    +0.000 A 
ATOM      8  F   UNL     1      42.817   5.657  12.950  0.00  0.00    +0.000 F 
BRANCH   5   9
ATOM      9  C   UNL     1      46.344   8.934  12.130  0.00  0.00    +0.000 C 
ATOM     10  N   UNL     1      47.693   9.143  12.113  0.00  0.00    +0.000 N 
ATOM     11  O   UNL     1      45.577   9.884  12.037  0.00  0.00    +0.000 OA
ATOM     12  H   UNL     1      48.402   8.433  12.199  0.00  0.00    +0.000 HD
ATOM     13  H   UNL     1      47.998  10.105  12.031  0.00  0.00    +0.000 HD
ENDBRANCH   5   9
ENDBRANCH   1   2
BRANCH   1  14
ATOM     14  O   UNL     1      45.574   2.497  12.640  0.00  0.00    +0.000 OA
ATOM     15  H   UNL     1      45.561   2.214  13.573  0.00  0.00    +0.000 HD
ENDBRANCH   1  14
BRANCH   1  16
ATOM     16  C   UNL     1      43.633   2.994  11.281  0.00  0.00    +0.000 C 
BRANCH  16  17
ATOM     17  O   UNL     1      43.967   3.807  10.144  0.00  0.00    +0.000 OA
BRANCH  17  21
ATOM     18  C   UNL     1      46.714   2.333   7.340  0.00  0.00    +0.000 A 
ATOM     19  C   UNL     1      46.078   1.438   8.210  0.00  0.00    +0.000 A 
ATOM     20  C   UNL     1      45.151   1.889   9.153  0.00  0.00    +0.000 A 
ATOM     21  C   UNL     1      44.841   3.248   9.246  0.00  0.00    +0.000 A 
ATOM     22  C   UNL     1      45.462   4.144   8.374  0.00  0.00    +0.000 A 
ATOM     23  C   UNL     1      46.393   3.694   7.429  0.00  0.00    +0.000 A 
BRANCH  18  24
ATOM     24  C   UNL     1      47.747   1.835   6.362  0.00  0.00    +0.000 C 
BRANCH  24  25
ATOM     25  N   UNL     1      48.168   2.885   5.440  0.00  0.00    +0.000 NA
ATOM     26  H   UNL     1      47.543   2.891   4.636  0.00  0.00    +0.000 HD
ATOM     27  H   UNL     1      49.094   2.655   5.084  0.00  0.00    +0.000 HD
ENDBRANCH  24  25
ENDBRANCH  18  24
ENDBRANCH  17  21
ENDBRANCH  16  17
ENDBRANCH   1  16
TORSDOF 8
ENDMDL
MODEL 5
REMARK VINA RESULT:    -7.240      2.631      6.647
REMARK INTER + INTRA:         -11.010
REMARK INTER:                 -10.743
REMARK INTRA:                  -0.267
REMARK UNBOUND:                -0.807
REMARK  Name = 
REMARK  8 active torsions:
REMARK  status: ('A' for Active; 'I' for Inactive)
REMARK    1  A    between atoms: N_1  and  C_2
REMARK    2  A    between atoms: C_2  and  C_3
REMARK    3  A    between atoms: C_6  and  O_7
REMARK    4  A    between atoms: O_7  and  C_8
REMARK    5  A    between atoms: C_8  and  C_9
REMARK    6  A    between atoms: C_9  and  O_10
REMARK    7  A    between atoms: C_9  and  C_11
REMARK    8  A    between atoms: C_14  and  C_15
REMARK                            x       y       z     vdW  Elec       q    Type
REMARK                         _______ _______ _______ _____ _____    ______ ____
ROOT
ATOM      1  C   UNL     1      44.313   5.054  10.638  0.00  0.00    +0.000 C 
ENDROOT
BRANCH   1   2
ATOM      2  C   UNL     1      45.061   4.222   9.617  0.00  0.00    +0.000 A 
ATOM      3  C   UNL     1      45.855   4.798   8.618  0.00  0.00    +0.000 A 
ATOM      4  C   UNL     1      46.562   3.993   7.715  0.00  0.00    +0.000 A 
ATOM      5  C   UNL     1      46.480   2.596   7.784  0.00  0.00    +0.000 A 
ATOM      6  C   UNL     1      45.657   2.016   8.746  0.00  0.00    +0.000 A 
ATOM      7  C   UNL     1      44.954   2.826   9.638  0.00  0.00    +0.000 A 
ATOM      8  F   UNL     1      44.154   2.231  10.533  0.00  0.00    +0.000 F 
BRANCH   5   9
ATOM      9  C   UNL     1      47.293   1.803   6.817  0.00  0.00    +0.000 C 
ATOM     10  N   UNL     1      48.349   2.406   6.196  0.00  0.00    +0.000 N 
ATOM     11  O   UNL     1      47.023   0.635   6.568  0.00  0.00    +0.000 OA
ATOM     12  H   UNL     1      48.640   3.362   6.321  0.00  0.00    +0.000 HD
ATOM     13  H   UNL     1      48.863   1.840   5.533  0.00  0.00    +0.000 HD
ENDBRANCH   5   9
ENDBRANCH   1   2
BRANCH   1  14
ATOM     14  O   UNL     1      43.060   5.507  10.109  0.00  0.00    +0.000 OA
ATOM     15  H   UNL     1      42.403   4.837  10.377  0.00  0.00    +0.000 HD
ENDBRANCH   1  14
BRANCH   1  16
ATOM     16  C   UNL     1      45.102   6.274  11.159  0.00  0.00    +0.000 C 
BRANCH  16  17
ATOM     17  O   UNL     1      46.470   5.905  11.404  0.00  0.00    +0.000 OA
BRANCH  17  21
ATOM     18  C   UNL     1      47.340   4.849  15.367  0.00  0.00    +0.000 A 
ATOM     19  C   UNL     1      47.918   6.004  14.824  0.00  0.00    +0.000 A 
ATOM     20  C   UNL     1      47.646   6.394  13.511  0.00  0.00    +0.000 A 
ATOM     21  C   UNL     1      46.791   5.634  12.710  0.00  0.00    +0.000 A 
ATOM     22  C   UNL     1      46.201   4.488  13.248  0.00  0.00    +0.000 A 
ATOM     23  C   UNL     1      46.473   4.095  14.565  0.00  0.00    +0.000 A 
BRANCH  18  24
ATOM     24  C   UNL     1      47.681   4.417  16.770  0.00  0.00    +0.000 C 
BRANCH  24  25
ATOM     25  N   UNL     1      46.787   3.367  17.245  0.00  0.00    +0.000 NA
ATOM     26  H   UNL     1      46.759   2.617  16.556  0.00  0.00    +0.000 HD
ATOM     27  H   UNL     1      45.841   3.743  17.301  0.00  0.00    +0.000 HD
ENDBRANCH  24  25
ENDBRANCH  18  24
ENDBRANCH  17  21
ENDBRANCH  16  17
ENDBRANCH   1  16
TORSDOF 8
ENDMDL
MODEL 6
REMARK VINA RESULT:    -6.830      1.857      2.299
REMARK INTER + INTRA:         -10.432
REMARK INTER:                 -10.272
REMARK INTRA:                  -0.160
REMARK UNBOUND:                -0.807
REMARK  Name = 
REMARK  8 active torsions:
REMARK  status: ('A' for Active; 'I' for Inactive)
REMARK    1  A    between atoms: N_1  and  C_2
REMARK    2  A    between atoms: C_2  and  C_3
REMARK    3  A    between atoms: C_6  and  O_7
REMARK    4  A    between atoms: O_7  and  C_8
REMARK    5  A    between atoms: C_8  and  C_9
REMARK    6  A    between atoms: C_9  and  O_10
REMARK    7  A    between atoms: C_9  and  C_11
REMARK    8  A    between atoms: C_14  and  C_15
REMARK                            x       y       z     vdW  Elec       q    Type
REMARK                         _______ _______ _______ _____ _____    ______ ____
ROOT
ATOM      1  C   UNL     1      44.313   5.493  10.838  0.00  0.00    +0.000 C 
ENDROOT
BRANCH   1   2
ATOM      2  C   UNL     1      45.155   5.292  12.080  0.00  0.00    +0.000 A 
ATOM      3  C   UNL     1      44.702   4.553  13.181  0.00  0.00    +0.000 A 
ATOM      4  C   UNL     1      45.526   4.358  14.297  0.00  0.00    +0.000 A 
ATOM      5  C   UNL     1      46.814   4.907  14.342  0.00  0.00    +0.000 A 
ATOM      6  C   UNL     1      47.256   5.680  13.271  0.00  0.00    +0.000 A 
ATOM      7  C   UNL     1      46.426   5.872  12.166  0.00  0.00    +0.000 A 
ATOM      8  F   UNL     1      46.877   6.643  11.166  0.00  0.00    +0.000 F 
BRANCH   5   9
ATOM      9  C   UNL     1      47.649   4.622  15.544  0.00  0.00    +0.000 C 
ATOM     10  N   UNL     1      47.265   3.621  16.390  0.00  0.00    +0.000 N 
ATOM     11  O   UNL     1      48.658   5.273  15.786  0.00  0.00    +0.000 OA
ATOM     12  H   UNL     1      46.448   3.043  16.288  0.00  0.00    +0.000 HD
ATOM     13  H   UNL     1      47.848   3.473  17.205  0.00  0.00    +0.000 HD
ENDBRANCH   5   9
ENDBRANCH   1   2
BRANCH   1  14
ATOM     14  O   UNL     1      43.406   6.590  11.007  0.00  0.00    +0.000 OA
ATOM     15  H   UNL     1      42.790   6.542  10.252  0.00  0.00    +0.000 HD
ENDBRANCH   1  14
BRANCH   1  16
ATOM     16  C   UNL     1      43.510   4.246  10.410  0.00  0.00    +0.000 C 
BRANCH  16  17
ATOM     17  O   UNL     1      44.389   3.115  10.285  0.00  0.00    +0.000 OA
BRANCH  17  21
ATOM     18  C   UNL     1      46.693   2.734   6.803  0.00  0.00    +0.000 A 
ATOM     19  C   UNL     1      46.270   4.007   7.208  0.00  0.00    +0.000 A 
ATOM     20  C   UNL     1      45.509   4.176   8.367  0.00  0.00    +0.000 A 
ATOM     21  C   UNL     1      45.150   3.073   9.145  0.00  0.00    +0.000 A 
ATOM     22  C   UNL     1      45.578   1.803   8.755  0.00  0.00    +0.000 A 
ATOM     23  C   UNL     1      46.341   1.631   7.593  0.00  0.00    +0.000 A 
BRANCH  18  24
ATOM     24  C   UNL     1      47.474   2.564   5.526  0.00  0.00    +0.000 C 
BRANCH  24  25
ATOM     25  N   UNL     1      48.660   1.739   5.723  0.00  0.00    +0.000 NA
ATOM     26  H   UNL     1      48.381   0.847   6.128  0.00  0.00    +0.000 HD
ATOM     27  H   UNL     1      49.263   2.191   6.408  0.00  0.00    +0.000 HD
ENDBRANCH  24  25
ENDBRANCH  18  24
ENDBRANCH  17  21
ENDBRANCH  16  17
ENDBRANCH   1  16
TORSDOF 8
ENDMDL
MODEL 7
REMARK VINA RESULT:    -6.458      1.859      2.052
REMARK INTER + INTRA:          -9.907
REMARK INTER:                  -9.289
REMARK INTRA:                  -0.618
REMARK UNBOUND:                -0.807
REMARK  Name = 
REMARK  8 active torsions:
REMARK  status: ('A' for Active; 'I' for Inactive)
REMARK    1  A    between atoms: N_1  and  C_2
REMARK    2  A    between atoms: C_2  and  C_3
REMARK    3  A    between atoms: C_6  and  O_7
REMARK    4  A    between atoms: O_7  and  C_8
REMARK    5  A    between atoms: C_8  and  C_9
REMARK    6  A    between atoms: C_9  and  O_10
REMARK    7  A    between atoms: C_9  and  C_11
REMARK    8  A    between atoms: C_14  and  C_15
REMARK                            x       y       z     vdW  Elec       q    Type
REMARK                         _______ _______ _______ _____ _____    ______ ____
ROOT
ATOM      1  C   UNL     1      44.532   6.820  11.021  0.00  0.00    +0.000 C 
ENDROOT
BRANCH   1   2
ATOM      2  C   UNL     1      45.735   7.299  11.806  0.00  0.00    +0.000 A 
ATOM      3  C   UNL     1      45.617   8.134  12.924  0.00  0.00    +0.000 A 
ATOM      4  C   UNL     1      46.752   8.524  13.647  0.00  0.00    +0.000 A 
ATOM      5  C   UNL     1      48.029   8.098  13.261  0.00  0.00    +0.000 A 
ATOM      6  C   UNL     1      48.160   7.303  12.124  0.00  0.00    +0.000 A 
ATOM      7  C   UNL     1      47.024   6.923  11.409  0.00  0.00    +0.000 A 
ATOM      8  F   UNL     1      47.193   6.179  10.307  0.00  0.00    +0.000 F 
BRANCH   5   9
ATOM      9  C   UNL     1      49.186   8.518  14.102  0.00  0.00    +0.000 C 
ATOM     10  N   UNL     1      49.201   9.784  14.616  0.00  0.00    +0.000 N 
ATOM     11  O   UNL     1      50.118   7.756  14.328  0.00  0.00    +0.000 OA
ATOM     12  H   UNL     1      48.495  10.486  14.474  0.00  0.00    +0.000 HD
ATOM     13  H   UNL     1      50.014  10.036  15.165  0.00  0.00    +0.000 HD
ENDBRANCH   5   9
ENDBRANCH   1   2
BRANCH   1  14
ATOM     14  O   UNL     1      43.370   7.594  11.346  0.00  0.00    +0.000 OA
ATOM     15  H   UNL     1      42.803   7.007  11.880  0.00  0.00    +0.000 HD
ENDBRANCH   1  14
BRANCH   1  16
ATOM     16  C   UNL     1      44.203   5.325  11.217  0.00  0.00    +0.000 C 
BRANCH  16  17
ATOM     17  O   UNL     1      43.652   4.781  10.006  0.00  0.00    +0.000 OA
BRANCH  17  21
ATOM     18  C   UNL     1      46.141   2.099   7.959  0.00  0.00    +0.000 A 
ATOM     19  C   UNL     1      45.238   1.605   8.909  0.00  0.00    +0.000 A 
ATOM     20  C   UNL     1      44.386   2.466   9.606  0.00  0.00    +0.000 A 
ATOM     21  C   UNL     1      44.422   3.842   9.368  0.00  0.00    +0.000 A 
ATOM     22  C   UNL     1      45.311   4.340   8.414  0.00  0.00    +0.000 A 
ATOM     23  C   UNL     1      46.166   3.478   7.715  0.00  0.00    +0.000 A 
BRANCH  18  24
ATOM     24  C   UNL     1      47.085   1.162   7.251  0.00  0.00    +0.000 C 
BRANCH  24  25
ATOM     25  N   UNL     1      46.940  -0.211   7.721  0.00  0.00    +0.000 NA
ATOM     26  H   UNL     1      47.664  -0.404   8.412  0.00  0.00    +0.000 HD
ATOM     27  H   UNL     1      47.109  -0.844   6.941  0.00  0.00    +0.000 HD
ENDBRANCH  24  25
ENDBRANCH  18  24
ENDBRANCH  17  21
ENDBRANCH  16  17
ENDBRANCH   1  16
TORSDOF 8
ENDMDL
MODEL 8
REMARK VINA RESULT:    -6.113      4.873      6.199
REMARK INTER + INTRA:          -9.421
REMARK INTER:                  -9.003
REMARK INTRA:                  -0.418
REMARK UNBOUND:                -0.807
REMARK  Name = 
REMARK  8 active torsions:
REMARK  status: ('A' for Active; 'I' for Inactive)
REMARK    1  A    between atoms: N_1  and  C_2
REMARK    2  A    between atoms: C_2  and  C_3
REMARK    3  A    between atoms: C_6  and  O_7
REMARK    4  A    between atoms: O_7  and  C_8
REMARK    5  A    between atoms: C_8  and  C_9
REMARK    6  A    between atoms: C_9  and  O_10
REMARK    7  A    between atoms: C_9  and  C_11
REMARK    8  A    between atoms: C_14  and  C_15
REMARK                            x       y       z     vdW  Elec       q    Type
REMARK                         _______ _______ _______ _____ _____    ______ ____
ROOT
ATOM      1  C   UNL     1      47.451   3.928  16.636  0.00  0.00    +0.000 C 
ENDROOT
BRANCH   1   2
ATOM      2  C   UNL     1      48.849   3.479  17.004  0.00  0.00    +0.000 A 
ATOM      3  C   UNL     1      49.303   2.174  16.771  0.00  0.00    +0.000 A 
ATOM      4  C   UNL     1      50.617   1.808  17.091  0.00  0.00    +0.000 A 
ATOM      5  C   UNL     1      51.500   2.733  17.662  0.00  0.00    +0.000 A 
ATOM      6  C   UNL     1      51.044   4.020  17.937  0.00  0.00    +0.000 A 
ATOM      7  C   UNL     1      49.733   4.374  17.619  0.00  0.00    +0.000 A 
ATOM      8  F   UNL     1      49.324   5.613  17.922  0.00  0.00    +0.000 F 
BRANCH   5   9
ATOM      9  C   UNL     1      52.896   2.284  17.936  0.00  0.00    +0.000 C 
ATOM     10  N   UNL     1      53.090   1.073  18.537  0.00  0.00    +0.000 N 
ATOM     11  O   UNL     1      53.858   2.983  17.644  0.00  0.00    +0.000 OA
ATOM     12  H   UNL     1      52.368   0.436  18.830  0.00  0.00    +0.000 HD
ATOM     13  H   UNL     1      54.051   0.814  18.724  0.00  0.00    +0.000 HD
ENDBRANCH   5   9
ENDBRANCH   1   2
BRANCH   1  14
ATOM     14  O   UNL     1      46.470   3.248  17.430  0.00  0.00    +0.000 OA
ATOM     15  H   UNL     1      46.028   2.624  16.825  0.00  0.00    +0.000 HD
ENDBRANCH   1  14
BRANCH   1  16
ATOM     16  C   UNL     1      47.099   3.740  15.145  0.00  0.00    +0.000 C 
BRANCH  16  17
ATOM     17  O   UNL     1      46.771   5.010  14.555  0.00  0.00    +0.000 OA
BRANCH  17  21
ATOM     18  C   UNL     1      44.793   4.609  10.880  0.00  0.00    +0.000 A 
ATOM     19  C   UNL     1      45.153   5.886  11.327  0.00  0.00    +0.000 A 
ATOM     20  C   UNL     1      45.821   6.060  12.542  0.00  0.00    +0.000 A 
ATOM     21  C   UNL     1      46.140   4.958  13.338  0.00  0.00    +0.000 A 
ATOM     22  C   UNL     1      45.795   3.681  12.893  0.00  0.00    +0.000 A 
ATOM     23  C   UNL     1      45.125   3.504  11.675  0.00  0.00    +0.000 A 
BRANCH  18  24
ATOM     24  C   UNL     1      44.032   4.442   9.590  0.00  0.00    +0.000 C 
BRANCH  24  25
ATOM     25  N   UNL     1      44.917   4.482   8.431  0.00  0.00    +0.000 NA
ATOM     26  H   UNL     1      45.557   5.268   8.528  0.00  0.00    +0.000 HD
ATOM     27  H   UNL     1      44.358   4.666   7.599  0.00  0.00    +0.000 HD
ENDBRANCH  24  25
ENDBRANCH  18  24
ENDBRANCH  17  21
ENDBRANCH  16  17
ENDBRANCH   1  16
TORSDOF 8
ENDMDL
MODEL 9
REMARK VINA RESULT:    -5.875      3.042      7.103
REMARK INTER + INTRA:          -9.086
REMARK INTER:                  -8.271
REMARK INTRA:                  -0.815
REMARK UNBOUND:                -0.807
REMARK  Name = 
REMARK  8 active torsions:
REMARK  status: ('A' for Active; 'I' for Inactive)
REMARK    1  A    between atoms: N_1  and  C_2
REMARK    2  A    between atoms: C_2  and  C_3
REMARK    3  A    between atoms: C_6  and  O_7
REMARK    4  A    between atoms: O_7  and  C_8
REMARK    5  A    between atoms: C_8  and  C_9
REMARK    6  A    between atoms: C_9  and  O_10
REMARK    7  A    between atoms: C_9  and  C_11
REMARK    8  A    between atoms: C_14  and  C_15
REMARK                            x       y       z     vdW  Elec       q    Type
REMARK                         _______ _______ _______ _____ _____    ______ ____
ROOT
ATOM      1  C   UNL     1      45.504   7.003  12.879  0.00  0.00    +0.000 C 
ENDROOT
BRANCH   1   2
ATOM      2  C   UNL     1      45.311   5.957  11.800  0.00  0.00    +0.000 A 
ATOM      3  C   UNL     1      45.775   6.136  10.491  0.00  0.00    +0.000 A 
ATOM      4  C   UNL     1      45.611   5.128   9.532  0.00  0.00    +0.000 A 
ATOM      5  C   UNL     1      44.968   3.927   9.857  0.00  0.00    +0.000 A 
ATOM      6  C   UNL     1      44.464   3.759  11.145  0.00  0.00    +0.000 A 
ATOM      7  C   UNL     1      44.630   4.769  12.092  0.00  0.00    +0.000 A 
ATOM      8  F   UNL     1      44.109   4.580  13.312  0.00  0.00    +0.000 F 
BRANCH   5   9
ATOM      9  C   UNL     1      44.867   2.883   8.797  0.00  0.00    +0.000 C 
ATOM     10  N   UNL     1      44.743   1.576   9.171  0.00  0.00    +0.000 N 
ATOM     11  O   UNL     1      44.903   3.178   7.608  0.00  0.00    +0.000 OA
ATOM     12  H   UNL     1      44.721   1.232  10.117  0.00  0.00    +0.000 HD
ATOM     13  H   UNL     1      44.697   0.896   8.422  0.00  0.00    +0.000 HD
ENDBRANCH   5   9
ENDBRANCH   1   2
BRANCH   1  14
ATOM     14  O   UNL     1      44.750   8.186  12.584  0.00  0.00    +0.000 OA
ATOM     15  H   UNL     1      45.088   8.507  11.727  0.00  0.00    +0.000 HD
ENDBRANCH   1  14
BRANCH   1  16
ATOM     16  C   UNL     1      46.977   7.400  13.117  0.00  0.00    +0.000 C 
BRANCH  16  17
ATOM     17  O   UNL     1      47.786   6.220  13.255  0.00  0.00    +0.000 OA
BRANCH  17  21
ATOM     18  C   UNL     1      48.038   4.749  17.173  0.00  0.00    +0.000 A 
ATOM     19  C   UNL     1      47.269   4.055  16.230  0.00  0.00    +0.000 A 
ATOM     20  C   UNL     1      47.167   4.508  14.913  0.00  0.00    +0.000 A 
ATOM     21  C   UNL     1      47.832   5.669  14.510  0.00  0.00    +0.000 A 
ATOM     22  C   UNL     1      48.610   6.359  15.442  0.00  0.00    +0.000 A 
ATOM     23  C   UNL     1      48.713   5.907  16.763  0.00  0.00    +0.000 A 
BRANCH  18  24
ATOM     24  C   UNL     1      48.099   4.272  18.601  0.00  0.00    +0.000 C 
BRANCH  24  25
ATOM     25  N   UNL     1      47.558   5.263  19.526  0.00  0.00    +0.000 NA
ATOM     26  H   UNL     1      46.553   5.121  19.613  0.00  0.00    +0.000 HD
ATOM     27  H   UNL     1      47.685   6.190  19.123  0.00  0.00    +0.000 HD
ENDBRANCH  24  25
ENDBRANCH  18  24
ENDBRANCH  17  21
ENDBRANCH  16  17
ENDBRANCH   1  16
TORSDOF 8
ENDMDL
