MODEL 1
REMARK VINA RESULT:    -8.525      0.000      0.000
REMARK INTER + INTRA:         -11.519
REMARK INTER:                 -11.017
REMARK INTRA:                  -0.503
REMARK UNBOUND:                -0.503
REMARK  Name = 
REMARK  5 active torsions:
REMARK  status: ('A' for Active; 'I' for Inactive)
REMARK    1  A    between atoms: C_2  and  C_4
REMARK    2  A    between atoms: C_7  and  O_8
REMARK    3  A    between atoms: O_8  and  C_9
REMARK    4  A    between atoms: C_9  and  C_10
REMARK    5  A    between atoms: C_14  and  C_15
REMARK                            x       y       z     vdW  Elec       q    Type
REMARK                         _______ _______ _______ _____ _____    ______ ____
ROOT
ATOM      1  C   UNL     1      43.476   4.339  11.041  0.00  0.00    +0.000 C 
ENDROOT
BRANCH   1   2
ATOM      2  C   UNL     1      44.646   4.708  11.919  0.00  0.00    +0.000 A 
ATOM      3  C   UNL     1      45.059   3.880  12.956  0.00  0.00    +0.000 A 
ATOM      4  N   UNL     1      46.070   4.200  13.791  0.00  0.00    +0.000 NA
ATOM      5  C   UNL     1      46.659   5.397  13.551  0.00  0.00    +0.000 A 
ATOM      6  C   UNL     1      46.274   6.256  12.523  0.00  0.00    +0.000 A 
ATOM      7  N   UNL     1      45.242   5.917  11.706  0.00  0.00    +0.000 NA
BRANCH   6   8
ATOM      8  C   UNL     1      46.922   7.552  12.267  0.00  0.00    +0.000 A 
ATOM      9  C   UNL     1      48.278   7.653  11.921  0.00  0.00    +0.000 A 
ATOM     10  C   UNL     1      48.855   8.898  11.659  0.00  0.00    +0.000 A 
ATOM     11  C   UNL     1      48.059  10.024  11.756  0.00  0.00    +0.000 A 
ATOM     12  N   UNL     1      46.756   9.987  12.099  0.00  0.00    +0.000 NA
ATOM     13  C   UNL     1      46.229   8.762  12.352  0.00  0.00    +0.000 A 
ENDBRANCH   6   8
ENDBRANCH   1   2
BRANCH   1  14
ATOM     14  O   UNL     1      43.687   4.769   9.690  0.00  0.00    +0.000 OA
BRANCH  14  18
ATOM     15  C   UNL     1      46.341   2.293   7.748  0.00  0.00    +0.000 A 
ATOM     16  C   UNL     1      45.431   1.752   8.657  0.00  0.00    +0.000 A 
ATOM     17  C   UNL     1      44.531   2.599   9.306  0.00  0.00    +0.000 A 
ATOM     18  C   UNL     1      44.576   3.957   9.019  0.00  0.00    +0.000 A 
ATOM     19  N   UNL     1      45.439   4.504   8.141  0.00  0.00    +0.000 NA
ATOM     20  C   UNL     1      46.314   3.665   7.535  0.00  0.00    +0.000 A 
BRANCH  15  22
ATOM     21  N   UNL     1      48.477   2.145   6.596  0.00  0.00    +0.000 N 
ATOM     22  C   UNL     1      47.355   1.496   7.032  0.00  0.00    +0.000 C 
ATOM     23  O   UNL     1      47.216   0.293   6.862  0.00  0.00    +0.000 OA
ATOM     24  H   UNL     1      49.203   1.561   6.200  0.00  0.00    +0.000 HD
ATOM     25  H   UNL     1      48.744   3.060   6.928  0.00  0.00    +0.000 HD
ENDBRANCH  15  22
ENDBRANCH  14  18
ENDBRANCH   1  14
TORSDOF 5
ENDMDL
MODEL 2
REMARK VINA RESULT:    -8.488      1.392      1.568
REMARK INTER + INTRA:         -11.471
REMARK INTER:                 -10.792
REMARK INTRA:                  -0.680
REMARK UNBOUND:                -0.503
REMARK  Name = 
REMARK  5 active torsions:
REMARK  status: ('A' for Active; 'I' for Inactive)
REMARK    1  A    between atoms: C_2  and  C_4
REMARK    2  A    between atoms: C_7  and  O_8
REMARK    3  A    between atoms: O_8  and  C_9
REMARK    4  A    between atoms: C_9  and  C_10
REMARK    5  A    between atoms: C_14  and  C_15
REMARK                            x       y       z     vdW  Elec       q    Type
REMARK                         _______ _______ _______ _____ _____    ______ ____
ROOT
ATOM      1  C   UNL     1      44.002   5.210  10.754  0.00  0.00    +0.000 C 
ENDROOT
BRANCH   1   2
ATOM      2  C   UNL     1      45.033   5.109  11.851  0.00  0.00    +0.000 A 
ATOM      3  C   UNL     1      44.869   4.232  12.916  0.00  0.00    +0.000 A 
ATOM      4  N   UNL     1      45.746   4.150  13.940  0.00  0.00    +0.000 NA
ATOM      5  C   UNL     1      46.806   4.990  13.860  0.00  0.00    +0.000 A 
ATOM      6  C   UNL     1      47.006   5.885  12.809  0.00  0.00    +0.000 A 
ATOM      7  N   UNL     1      46.099   5.959  11.799  0.00  0.00    +0.000 NA
BRANCH   6   8
ATOM      8  C   UNL     1      48.161   6.791  12.729  0.00  0.00    +0.000 A 
ATOM      9  C   UNL     1      48.441   7.544  11.578  0.00  0.00    +0.000 A 
ATOM     10  C   UNL     1      49.532   8.416  11.546  0.00  0.00    +0.000 A 
ATOM     11  C   UNL     1      50.330   8.511  12.670  0.00  0.00    +0.000 A 
ATOM     12  N   UNL     1      50.119   7.800  13.795  0.00  0.00    +0.000 NA
ATOM     13  C   UNL     1      49.052   6.960  13.791  0.00  0.00    +0.000 A 
ENDBRANCH   6   8
ENDBRANCH   1   2
BRANCH   1  14
ATOM     14  O   UNL     1      43.685   3.917  10.222  0.00  0.00    +0.000 OA
BRANCH  14  18
ATOM     15  C   UNL     1      46.458   2.621   7.469  0.00  0.00    +0.000 A 
ATOM     16  C   UNL     1      45.927   1.718   8.391  0.00  0.00    +0.000 A 
ATOM     17  C   UNL     1      44.983   2.166   9.318  0.00  0.00    +0.000 A 
ATOM     18  C   UNL     1      44.605   3.502   9.283  0.00  0.00    +0.000 A 
ATOM     19  N   UNL     1      45.095   4.392   8.399  0.00  0.00    +0.000 NA
ATOM     20  C   UNL     1      46.023   3.939   7.521  0.00  0.00    +0.000 A 
BRANCH  15  22
ATOM     21  N   UNL     1      47.478   2.949   5.288  0.00  0.00    +0.000 N 
ATOM     22  C   UNL     1      47.483   2.263   6.470  0.00  0.00    +0.000 C 
ATOM     23  O   UNL     1      48.326   1.408   6.701  0.00  0.00    +0.000 OA
ATOM     24  H   UNL     1      48.251   2.759   4.660  0.00  0.00    +0.000 HD
ATOM     25  H   UNL     1      46.974   3.814   5.158  0.00  0.00    +0.000 HD
ENDBRANCH  15  22
ENDBRANCH  14  18
ENDBRANCH   1  14
TORSDOF 5
ENDMDL
MODEL 3
REMARK VINA RESULT:    -8.214      1.768      3.348
REMARK INTER + INTRA:         -11.118
REMARK INTER:                 -10.557
REMARK INTRA:                  -0.561
REMARK UNBOUND:                -0.503
REMARK  Name = 
REMARK  5 active torsions:
REMARK  status: ('A' for Active; 'I' for Inactive)
REMARK    1  A    between atoms: C_2  and  C_4
REMARK    2  A    between atoms: C_7  and  O_8
REMARK    3  A    between atoms: O_8  and  C_9
REMARK    4  A    between atoms: C_9  and  C_10
REMARK    5  A    between atoms: C_14  and  C_15
REMARK                            x       y       z     vdW  Elec       q    Type
REMARK                         _______ _______ _______ _____ _____    ______ ____
ROOT
ATOM      1  C   UNL     1      43.914   4.500  11.366  0.00  0.00    +0.000 C 
ENDROOT
BRANCH   1   2
ATOM      2  C   UNL     1      45.011   5.345  11.966  0.00  0.00    +0.000 A 
ATOM      3  C   UNL     1      45.398   6.545  11.381  0.00  0.00    +0.000 A 
ATOM      4  N   UNL     1      46.407   7.303  11.861  0.00  0.00    +0.000 NA
ATOM      5  C   UNL     1      47.026   6.809  12.960  0.00  0.00    +0.000 A 
ATOM      6  C   UNL     1      46.669   5.609  13.576  0.00  0.00    +0.000 A 
ATOM      7  N   UNL     1      45.659   4.857  13.062  0.00  0.00    +0.000 NA
BRANCH   6   8
ATOM      8  C   UNL     1      47.344   5.083  14.772  0.00  0.00    +0.000 A 
ATOM      9  C   UNL     1      47.064   3.807  15.286  0.00  0.00    +0.000 A 
ATOM     10  C   UNL     1      47.744   3.327  16.407  0.00  0.00    +0.000 A 
ATOM     11  C   UNL     1      48.691   4.142  17.000  0.00  0.00    +0.000 A 
ATOM     12  N   UNL     1      48.988   5.380  16.559  0.00  0.00    +0.000 NA
ATOM     13  C   UNL     1      48.306   5.816  15.470  0.00  0.00    +0.000 A 
ENDBRANCH   6   8
ENDBRANCH   1   2
BRANCH   1  14
ATOM     14  O   UNL     1      43.791   4.735   9.958  0.00  0.00    +0.000 OA
BRANCH  14  18
ATOM     15  C   UNL     1      46.339   2.310   7.819  0.00  0.00    +0.000 A 
ATOM     16  C   UNL     1      45.457   1.743   8.740  0.00  0.00    +0.000 A 
ATOM     17  C   UNL     1      44.593   2.573   9.457  0.00  0.00    +0.000 A 
ATOM     18  C   UNL     1      44.643   3.941   9.222  0.00  0.00    +0.000 A 
ATOM     19  N   UNL     1      45.479   4.513   8.332  0.00  0.00    +0.000 NA
ATOM     20  C   UNL     1      46.320   3.690   7.661  0.00  0.00    +0.000 A 
BRANCH  15  22
ATOM     21  N   UNL     1      48.368   2.208   6.485  0.00  0.00    +0.000 N 
ATOM     22  C   UNL     1      47.315   1.531   7.033  0.00  0.00    +0.000 C 
ATOM     23  O   UNL     1      47.206   0.320   6.903  0.00  0.00    +0.000 OA
ATOM     24  H   UNL     1      49.078   1.640   6.038  0.00  0.00    +0.000 HD
ATOM     25  H   UNL     1      48.628   3.141   6.770  0.00  0.00    +0.000 HD
ENDBRANCH  15  22
ENDBRANCH  14  18
ENDBRANCH   1  14
TORSDOF 5
ENDMDL
MODEL 4
REMARK VINA RESULT:    -7.913      1.514      2.110
REMARK INTER + INTRA:         -10.728
REMARK INTER:                 -10.213
REMARK INTRA:                  -0.515
REMARK UNBOUND:                -0.503
REMARK  Name = 
REMARK  5 active torsions:
REMARK  status: ('A' for Active; 'I' for Inactive)
REMARK    1  A    between atoms: C_2  and  C_4
REMARK    2  A    between atoms: C_7  and  O_8
REMARK    3  A    between atoms: O_8  and  C_9
REMARK    4  A    between atoms: C_9  and  C_10
REMARK    5  A    between atoms: C_14  and  C_15
REMARK                            x       y       z     vdW  Elec       q    Type
REMARK                         _______ _______ _______ _____ _____    ______ ____
ROOT
ATOM      1  C   UNL     1      44.310   3.034  11.311  0.00  0.00    +0.000 C 
ENDROOT
BRANCH   1   2
ATOM      2  C   UNL     1      44.313   4.536  11.453  0.00  0.00    +0.000 A 
ATOM      3  C   UNL     1      43.170   5.286  11.208  0.00  0.00    +0.000 A 
ATOM      4  N   UNL     1      43.148   6.634  11.277  0.00  0.00    +0.000 NA
ATOM      5  C   UNL     1      44.329   7.213  11.603  0.00  0.00    +0.000 A 
ATOM      6  C   UNL     1      45.499   6.496  11.856  0.00  0.00    +0.000 A 
ATOM      7  N   UNL     1      45.497   5.140  11.763  0.00  0.00    +0.000 NA
BRANCH   6   8
ATOM      8  C   UNL     1      46.775   7.133  12.212  0.00  0.00    +0.000 A 
ATOM      9  C   UNL     1      47.907   6.386  12.575  0.00  0.00    +0.000 A 
ATOM     10  C   UNL     1      49.112   7.023  12.881  0.00  0.00    +0.000 A 
ATOM     11  C   UNL     1      49.158   8.403  12.825  0.00  0.00    +0.000 A 
ATOM     12  N   UNL     1      48.100   9.171  12.499  0.00  0.00    +0.000 NA
ATOM     13  C   UNL     1      46.944   8.520  12.211  0.00  0.00    +0.000 A 
ENDBRANCH   6   8
ENDBRANCH   1   2
BRANCH   1  14
ATOM     14  O   UNL     1      43.783   2.636  10.039  0.00  0.00    +0.000 OA
BRANCH  14  18
ATOM     15  C   UNL     1      46.669   2.461   7.109  0.00  0.00    +0.000 A 
ATOM     16  C   UNL     1      45.951   3.642   7.300  0.00  0.00    +0.000 A 
ATOM     17  C   UNL     1      44.978   3.693   8.300  0.00  0.00    +0.000 A 
ATOM     18  C   UNL     1      44.762   2.559   9.072  0.00  0.00    +0.000 A 
ATOM     19  N   UNL     1      45.447   1.409   8.913  0.00  0.00    +0.000 NA
ATOM     20  C   UNL     1      46.374   1.377   7.925  0.00  0.00    +0.000 A 
BRANCH  15  22
ATOM     21  N   UNL     1      47.694   3.175   5.024  0.00  0.00    +0.000 N 
ATOM     22  C   UNL     1      47.695   2.287   6.062  0.00  0.00    +0.000 C 
ATOM     23  O   UNL     1      48.536   1.403   6.136  0.00  0.00    +0.000 OA
ATOM     24  H   UNL     1      48.468   3.101   4.374  0.00  0.00    +0.000 HD
ATOM     25  H   UNL     1      47.192   4.051   5.051  0.00  0.00    +0.000 HD
ENDBRANCH  15  22
ENDBRANCH  14  18
ENDBRANCH   1  14
TORSDOF 5
ENDMDL
MODEL 5
REMARK VINA RESULT:    -7.564      2.739      7.159
REMARK INTER + INTRA:         -10.278
REMARK INTER:                  -9.810
REMARK INTRA:                  -0.468
REMARK UNBOUND:                -0.503
REMARK  Name = 
REMARK  5 active torsions:
REMARK  status: ('A' for Active; 'I' for Inactive)
REMARK    1  A    between atoms: C_2  and  C_4
REMARK    2  A    between atoms: C_7  and  O_8
REMARK    3  A    between atoms: O_8  and  C_9
REMARK    4  A    between atoms: C_9  and  C_10
REMARK    5  A    between atoms: C_14  and  C_15
REMARK                            x       y       z     vdW  Elec       q    Type
REMARK                         _______ _______ _______ _____ _____    ______ ____
ROOT
ATOM      1  C   UNL     1      44.754   6.246  11.231  0.00  0.00    +0.000 C 
ENDROOT
BRANCH   1   2
ATOM      2  C   UNL     1      44.521   4.844  10.724  0.00  0.00    +0.000 A 
ATOM      3  C   UNL     1      43.617   3.993  11.348  0.00  0.00    +0.000 A 
ATOM      4  N   UNL     1      43.418   2.717  10.953  0.00  0.00    +0.000 NA
ATOM      5  C   UNL     1      44.169   2.317   9.898  0.00  0.00    +0.000 A 
ATOM      6  C   UNL     1      45.087   3.140   9.245  0.00  0.00    +0.000 A 
ATOM      7  N   UNL     1      45.279   4.416   9.675  0.00  0.00    +0.000 NA
BRANCH   6   8
ATOM      8  C   UNL     1      45.895   2.699   8.099  0.00  0.00    +0.000 A 
ATOM      9  C   UNL     1      46.174   3.543   7.013  0.00  0.00    +0.000 A 
ATOM     10  C   UNL     1      46.968   3.100   5.953  0.00  0.00    +0.000 A 
ATOM     11  C   UNL     1      47.463   1.810   5.998  0.00  0.00    +0.000 A 
ATOM     12  N   UNL     1      47.214   0.952   7.006  0.00  0.00    +0.000 NA
ATOM     13  C   UNL     1      46.435   1.413   8.018  0.00  0.00    +0.000 A 
ENDBRANCH   6   8
ENDBRANCH   1   2
BRANCH   1  14
ATOM     14  O   UNL     1      46.117   6.646  11.037  0.00  0.00    +0.000 OA
BRANCH  14  18
ATOM     15  C   UNL     1      48.310   6.676  14.521  0.00  0.00    +0.000 A 
ATOM     16  C   UNL     1      48.499   7.688  13.578  0.00  0.00    +0.000 A 
ATOM     17  C   UNL     1      47.747   7.672  12.402  0.00  0.00    +0.000 A 
ATOM     18  C   UNL     1      46.832   6.644  12.216  0.00  0.00    +0.000 A 
ATOM     19  N   UNL     1      46.624   5.661  13.114  0.00  0.00    +0.000 NA
ATOM     20  C   UNL     1      47.378   5.687  14.240  0.00  0.00    +0.000 A 
BRANCH  15  22
ATOM     21  N   UNL     1      48.369   6.636  16.950  0.00  0.00    +0.000 N 
ATOM     22  C   UNL     1      49.073   6.579  15.780  0.00  0.00    +0.000 C 
ATOM     23  O   UNL     1      50.286   6.418  15.780  0.00  0.00    +0.000 OA
ATOM     24  H   UNL     1      48.899   6.464  17.797  0.00  0.00    +0.000 HD
ATOM     25  H   UNL     1      47.368   6.516  16.994  0.00  0.00    +0.000 HD
ENDBRANCH  15  22
ENDBRANCH  14  18
ENDBRANCH   1  14
TORSDOF 5
ENDMDL
MODEL 6
REMARK VINA RESULT:    -7.264      3.997      7.987
REMARK INTER + INTRA:          -9.890
REMARK INTER:                  -9.467
REMARK INTRA:                  -0.423
REMARK UNBOUND:                -0.503
REMARK  Name = 
REMARK  5 active torsions:
REMARK  status: ('A' for Active; 'I' for Inactive)
REMARK    1  A    between atoms: C_2  and  C_4
REMARK    2  A    between atoms: C_7  and  O_8
REMARK    3  A    between atoms: O_8  and  C_9
REMARK    4  A    between atoms: C_9  and  C_10
REMARK    5  A    between atoms: C_14  and  C_15
REMARK                            x       y       z     vdW  Elec       q    Type
REMARK                         _______ _______ _______ _____ _____    ______ ____
ROOT
ATOM      1  C   UNL     1      46.025   5.236  13.941  0.00  0.00    +0.000 C 
ENDROOT
BRANCH   1   2
ATOM      2  C   UNL     1      45.088   5.006  12.781  0.00  0.00    +0.000 A 
ATOM      3  C   UNL     1      43.725   5.249  12.896  0.00  0.00    +0.000 A 
ATOM      4  N   UNL     1      42.850   5.008  11.896  0.00  0.00    +0.000 NA
ATOM      5  C   UNL     1      43.396   4.507  10.762  0.00  0.00    +0.000 A 
ATOM      6  C   UNL     1      44.758   4.249  10.606  0.00  0.00    +0.000 A 
ATOM      7  N   UNL     1      45.614   4.484  11.636  0.00  0.00    +0.000 NA
BRANCH   6   8
ATOM      8  C   UNL     1      45.341   3.707   9.370  0.00  0.00    +0.000 A 
ATOM      9  C   UNL     1      45.446   2.328   9.136  0.00  0.00    +0.000 A 
ATOM     10  C   UNL     1      45.981   1.848   7.938  0.00  0.00    +0.000 A 
ATOM     11  C   UNL     1      46.410   2.764   6.996  0.00  0.00    +0.000 A 
ATOM     12  N   UNL     1      46.349   4.098   7.175  0.00  0.00    +0.000 NA
ATOM     13  C   UNL     1      45.827   4.530   8.352  0.00  0.00    +0.000 A 
ENDBRANCH   6   8
ENDBRANCH   1   2
BRANCH   1  14
ATOM     14  O   UNL     1      46.518   3.995  14.462  0.00  0.00    +0.000 OA
BRANCH  14  18
ATOM     15  C   UNL     1      48.469   4.514  18.050  0.00  0.00    +0.000 A 
ATOM     16  C   UNL     1      48.655   5.441  17.023  0.00  0.00    +0.000 A 
ATOM     17  C   UNL     1      47.985   5.259  15.812  0.00  0.00    +0.000 A 
ATOM     18  C   UNL     1      47.152   4.156  15.676  0.00  0.00    +0.000 A 
ATOM     19  N   UNL     1      46.948   3.251  16.653  0.00  0.00    +0.000 NA
ATOM     20  C   UNL     1      47.622   3.438  17.814  0.00  0.00    +0.000 A 
BRANCH  15  22
ATOM     21  N   UNL     1      48.629   3.858  20.385  0.00  0.00    +0.000 N 
ATOM     22  C   UNL     1      49.151   4.591  19.356  0.00  0.00    +0.000 C 
ATOM     23  O   UNL     1      50.164   5.259  19.507  0.00  0.00    +0.000 OA
ATOM     24  H   UNL     1      49.170   3.845  21.241  0.00  0.00    +0.000 HD
ATOM     25  H   UNL     1      47.961   3.114  20.245  0.00  0.00    +0.000 HD
ENDBRANCH  15  22
ENDBRANCH  14  18
ENDBRANCH   1  14
TORSDOF 5
ENDMDL
MODEL 7
REMARK VINA RESULT:    -6.885      5.237      7.490
REMARK INTER + INTRA:          -9.400
REMARK INTER:                  -8.899
REMARK INTRA:                  -0.501
REMARK UNBOUND:                -0.503
REMARK  Name = 
REMARK  5 active torsions:
REMARK  status: ('A' for Active; 'I' for Inactive)
REMARK    1  A    between atoms: C_2  and  C_4
REMARK    2  A    between atoms: C_7  and  O_8
REMARK    3  A    between atoms: O_8  and  C_9
REMARK    4  A    between atoms: C_9  and  C_10
REMARK    5  A    between atoms: C_14  and  C_15
REMARK                            x       y       z     vdW  Elec       q    Type
REMARK                         _______ _______ _______ _____ _____    ______ ____
ROOT
ATOM      1  C   UNL     1      47.160   3.751  15.925  0.00  0.00    +0.000 C 
ENDROOT
BRANCH   1   2
ATOM      2  C   UNL     1      48.347   4.267  16.701  0.00  0.00    +0.000 A 
ATOM      3  C   UNL     1      48.409   5.587  17.131  0.00  0.00    +0.000 A 
ATOM      4  N   UNL     1      49.475   6.096  17.785  0.00  0.00    +0.000 NA
ATOM      5  C   UNL     1      50.492   5.225  17.993  0.00  0.00    +0.000 A 
ATOM      6  C   UNL     1      50.469   3.894  17.576  0.00  0.00    +0.000 A 
ATOM      7  N   UNL     1      49.390   3.412  16.905  0.00  0.00    +0.000 NA
BRANCH   6   8
ATOM      8  C   UNL     1      51.577   2.956  17.810  0.00  0.00    +0.000 A 
ATOM      9  C   UNL     1      51.504   1.606  17.431  0.00  0.00    +0.000 A 
ATOM     10  C   UNL     1      52.586   0.748  17.643  0.00  0.00    +0.000 A 
ATOM     11  C   UNL     1      53.723   1.260  18.240  0.00  0.00    +0.000 A 
ATOM     12  N   UNL     1      53.842   2.542  18.637  0.00  0.00    +0.000 NA
ATOM     13  C   UNL     1      52.771   3.347  18.420  0.00  0.00    +0.000 A 
ENDBRANCH   6   8
ENDBRANCH   1   2
BRANCH   1  14
ATOM     14  O   UNL     1      47.534   3.383  14.591  0.00  0.00    +0.000 OA
BRANCH  14  18
ATOM     15  C   UNL     1      44.801   4.765  11.840  0.00  0.00    +0.000 A 
ATOM     16  C   UNL     1      45.534   5.676  12.602  0.00  0.00    +0.000 A 
ATOM     17  C   UNL     1      46.462   5.198  13.529  0.00  0.00    +0.000 A 
ATOM     18  C   UNL     1      46.623   3.824  13.655  0.00  0.00    +0.000 A 
ATOM     19  N   UNL     1      45.935   2.923  12.926  0.00  0.00    +0.000 NA
ATOM     20  C   UNL     1      45.027   3.410  12.046  0.00  0.00    +0.000 A 
BRANCH  15  22
ATOM     21  N   UNL     1      43.967   4.786   9.557  0.00  0.00    +0.000 N 
ATOM     22  C   UNL     1      43.773   5.159  10.857  0.00  0.00    +0.000 C 
ATOM     23  O   UNL     1      42.768   5.768  11.196  0.00  0.00    +0.000 OA
ATOM     24  H   UNL     1      43.203   4.977   8.920  0.00  0.00    +0.000 HD
ATOM     25  H   UNL     1      44.638   4.083   9.282  0.00  0.00    +0.000 HD
ENDBRANCH  15  22
ENDBRANCH  14  18
ENDBRANCH   1  14
TORSDOF 5
ENDMDL
MODEL 8
REMARK VINA RESULT:    -6.654      4.791      7.455
REMARK INTER + INTRA:          -9.102
REMARK INTER:                  -8.581
REMARK INTRA:                  -0.521
REMARK UNBOUND:                -0.503
REMARK  Name = 
REMARK  5 active torsions:
REMARK  status: ('A' for Active; 'I' for Inactive)
REMARK    1  A    between atoms: C_2  and  C_4
REMARK    2  A    between atoms: C_7  and  O_8
REMARK    3  A    between atoms: O_8  and  C_9
REMARK    4  A    between atoms: C_9  and  C_10
REMARK    5  A    between atoms: C_14  and  C_15
REMARK                            x       y       z     vdW  Elec       q    Type
REMARK                         _______ _______ _______ _____ _____    ______ ____
ROOT
ATOM      1  C   UNL     1      48.595   7.080  14.873  0.00  0.00    +0.000 C 
ENDROOT
BRANCH   1   2
ATOM      2  C   UNL     1      48.960   6.542  16.234  0.00  0.00    +0.000 A 
ATOM      3  C   UNL     1      48.634   7.234  17.394  0.00  0.00    +0.000 A 
ATOM      4  N   UNL     1      48.987   6.807  18.626  0.00  0.00    +0.000 NA
ATOM      5  C   UNL     1      49.689   5.649  18.655  0.00  0.00    +0.000 A 
ATOM      6  C   UNL     1      50.036   4.925  17.514  0.00  0.00    +0.000 A 
ATOM      7  N   UNL     1      49.683   5.386  16.285  0.00  0.00    +0.000 NA
BRANCH   6   8
ATOM      8  C   UNL     1      50.796   3.667  17.556  0.00  0.00    +0.000 A 
ATOM      9  C   UNL     1      52.131   3.615  17.985  0.00  0.00    +0.000 A 
ATOM     10  C   UNL     1      52.815   2.398  18.037  0.00  0.00    +0.000 A 
ATOM     11  C   UNL     1      52.146   1.251  17.652  0.00  0.00    +0.000 A 
ATOM     12  N   UNL     1      50.871   1.245  17.217  0.00  0.00    +0.000 NA
ATOM     13  C   UNL     1      50.238   2.445  17.174  0.00  0.00    +0.000 A 
ENDBRANCH   6   8
ENDBRANCH   1   2
BRANCH   1  14
ATOM     14  O   UNL     1      48.492   6.024  13.909  0.00  0.00    +0.000 OA
BRANCH  14  18
ATOM     15  C   UNL     1      44.771   5.939  12.150  0.00  0.00    +0.000 A 
ATOM     16  C   UNL     1      45.759   6.780  11.635  0.00  0.00    +0.000 A 
ATOM     17  C   UNL     1      47.020   6.798  12.235  0.00  0.00    +0.000 A 
ATOM     18  C   UNL     1      47.244   5.971  13.328  0.00  0.00    +0.000 A 
ATOM     19  N   UNL     1      46.311   5.143  13.839  0.00  0.00    +0.000 NA
ATOM     20  C   UNL     1      45.089   5.156  13.251  0.00  0.00    +0.000 A 
BRANCH  15  22
ATOM     21  N   UNL     1      42.835   7.024  11.158  0.00  0.00    +0.000 N 
ATOM     22  C   UNL     1      43.398   5.865  11.614  0.00  0.00    +0.000 C 
ATOM     23  O   UNL     1      42.797   4.802  11.548  0.00  0.00    +0.000 OA
ATOM     24  H   UNL     1      41.935   6.932  10.702  0.00  0.00    +0.000 HD
ATOM     25  H   UNL     1      43.374   7.856  10.964  0.00  0.00    +0.000 HD
ENDBRANCH  15  22
ENDBRANCH  14  18
ENDBRANCH   1  14
TORSDOF 5
ENDMDL
MODEL 9
REMARK VINA RESULT:    -6.478      5.017      7.954
REMARK INTER + INTRA:          -8.874
REMARK INTER:                  -8.272
REMARK INTRA:                  -0.602
REMARK UNBOUND:                -0.503
REMARK  Name = 
REMARK  5 active torsions:
REMARK  status: ('A' for Active; 'I' for Inactive)
REMARK    1  A    between atoms: C_2  and  C_4
REMARK    2  A    between atoms: C_7  and  O_8
REMARK    3  A    between atoms: O_8  and  C_9
REMARK    4  A    between atoms: C_9  and  C_10
REMARK    5  A    between atoms: C_14  and  C_15
REMARK                            x       y       z     vdW  Elec       q    Type
REMARK                         _______ _______ _______ _____ _____    ______ ____
ROOT
ATOM      1  C   UNL     1      48.725   6.531  15.928  0.00  0.00    +0.000 C 
ENDROOT
BRANCH   1   2
ATOM      2  C   UNL     1      48.274   6.571  14.489  0.00  0.00    +0.000 A 
ATOM      3  C   UNL     1      48.934   7.352  13.548  0.00  0.00    +0.000 A 
ATOM      4  N   UNL     1      48.530   7.450  12.263  0.00  0.00    +0.000 NA
ATOM      5  C   UNL     1      47.425   6.730  11.950  0.00  0.00    +0.000 A 
ATOM      6  C   UNL     1      46.734   5.935  12.865  0.00  0.00    +0.000 A 
ATOM      7  N   UNL     1      47.153   5.868  14.157  0.00  0.00    +0.000 NA
BRANCH   6   8
ATOM      8  C   UNL     1      45.538   5.155  12.515  0.00  0.00    +0.000 A 
ATOM      9  C   UNL     1      44.437   5.730  11.861  0.00  0.00    +0.000 A 
ATOM     10  C   UNL     1      43.328   4.953  11.520  0.00  0.00    +0.000 A 
ATOM     11  C   UNL     1      43.339   3.610  11.848  0.00  0.00    +0.000 A 
ATOM     12  N   UNL     1      44.361   3.010  12.489  0.00  0.00    +0.000 NA
ATOM     13  C   UNL     1      45.421   3.795  12.810  0.00  0.00    +0.000 A 
ENDBRANCH   6   8
ENDBRANCH   1   2
BRANCH   1  14
ATOM     14  O   UNL     1      48.177   5.396  16.611  0.00  0.00    +0.000 OA
BRANCH  14  18
ATOM     15  C   UNL     1      50.971   2.484  17.423  0.00  0.00    +0.000 A 
ATOM     16  C   UNL     1      49.662   2.116  17.109  0.00  0.00    +0.000 A 
ATOM     17  C   UNL     1      48.723   3.110  16.830  0.00  0.00    +0.000 A 
ATOM     18  C   UNL     1      49.131   4.437  16.874  0.00  0.00    +0.000 A 
ATOM     19  N   UNL     1      50.390   4.820  17.166  0.00  0.00    +0.000 NA
ATOM     20  C   UNL     1      51.280   3.838  17.450  0.00  0.00    +0.000 A 
BRANCH  15  22
ATOM     21  N   UNL     1      51.652   0.246  18.083  0.00  0.00    +0.000 N 
ATOM     22  C   UNL     1      52.034   1.519  17.765  0.00  0.00    +0.000 C 
ATOM     23  O   UNL     1      53.215   1.834  17.733  0.00  0.00    +0.000 OA
ATOM     24  H   UNL     1      52.400  -0.424  18.213  0.00  0.00    +0.000 HD
ATOM     25  H   UNL     1      50.731  -0.117  17.881  0.00  0.00    +0.000 HD
ENDBRANCH  15  22
ENDBRANCH  14  18
ENDBRANCH   1  14
TORSDOF 5
ENDMDL
