MODEL 1
REMARK VINA RESULT:    -7.802      0.000      0.000
REMARK INTER + INTRA:         -10.081
REMARK INTER:                 -10.082
REMARK INTRA:                   0.001
REMARK UNBOUND:                 0.001
REMARK  Name = 
REMARK  6 active torsions:
REMARK  status: ('A' for Active; 'I' for Inactive)
REMARK    1  A    between atoms: C_1  and  C_2
REMARK    2  A    between atoms: C_2  and  C_3
REMARK    3  A    between atoms: C_2  and  C_16
REMARK    4  A    between atoms: C_3  and  N_4
REMARK    5  A    between atoms: C_9  and  O_10
REMARK    6  A    between atoms: O_10  and  C_11
REMARK                            x       y       z     vdW  Elec       q    Type
REMARK                         _______ _______ _______ _____ _____    ______ ____
ROOT
ATOM      1  N   UNL     1      45.423   5.517  10.964  0.00  0.00    +0.000 N 
ATOM      2  C   UNL     1      46.258   5.561  12.073  0.00  0.00    +0.000 A 
ATOM      3  N   UNL     1      47.257   6.452  12.027  0.00  0.00    +0.000 NA
ATOM      4  C   UNL     1      48.052   6.526  13.111  0.00  0.00    +0.000 A 
ATOM      5  C   UNL     1      47.877   5.761  14.235  0.00  0.00    +0.000 A 
ATOM      6  C   UNL     1      46.818   4.894  14.179  0.00  0.00    +0.000 A 
ATOM      7  N   UNL     1      46.008   4.772  13.121  0.00  0.00    +0.000 NA
ATOM      8  H   UNL     1      45.532   6.418  10.510  0.00  0.00    +0.000 HD
ENDROOT
BRANCH   1   9
ATOM      9  C   UNL     1      44.051   5.146  11.290  0.00  0.00    +0.000 C 
BRANCH   9  11
ATOM     10  C   UNL     1      43.358   2.726  11.642  0.00  0.00    +0.000 C 
ATOM     11  C   UNL     1      43.630   3.828  10.608  0.00  0.00    +0.000 C 
BRANCH  11  12
ATOM     12  C   UNL     1      44.602   3.414   9.514  0.00  0.00    +0.000 A 
ATOM     13  C   UNL     1      45.059   2.086   9.449  0.00  0.00    +0.000 A 
ATOM     14  C   UNL     1      45.946   1.690   8.447  0.00  0.00    +0.000 A 
ATOM     15  C   UNL     1      46.383   2.612   7.498  0.00  0.00    +0.000 A 
ATOM     16 CL   UNL     1      47.485   2.131   6.270  0.00  0.00    +0.000 Cl
ATOM     17  C   UNL     1      45.928   3.928   7.537  0.00  0.00    +0.000 A 
ATOM     18  C   UNL     1      45.040   4.321   8.533  0.00  0.00    +0.000 A 
ENDBRANCH  11  12
ENDBRANCH   9  11
ENDBRANCH   1   9
BRANCH   6  19
ATOM     19  O   UNL     1      46.564   4.110  15.288  0.00  0.00    +0.000 OA
BRANCH  19  20
ATOM     20  C   UNL     1      47.596   4.142  16.310  0.00  0.00    +0.000 C 
ATOM     21  C   UNL     1      47.924   2.803  16.999  0.00  0.00    +0.000 C 
ATOM     22  N   UNL     1      47.703   3.405  18.320  0.00  0.00    +0.000 NA
ATOM     23  C   UNL     1      47.157   4.624  17.705  0.00  0.00    +0.000 C 
ATOM     24  H   UNL     1      48.557   3.556  18.856  0.00  0.00    +0.000 HD
ENDBRANCH  19  20
ENDBRANCH   6  19
TORSDOF 5
ENDMDL
MODEL 2
REMARK VINA RESULT:    -7.716      2.115      3.864
REMARK INTER + INTRA:          -9.971
REMARK INTER:                  -9.229
REMARK INTRA:                  -0.742
REMARK UNBOUND:                 0.001
REMARK  Name = 
REMARK  6 active torsions:
REMARK  status: ('A' for Active; 'I' for Inactive)
REMARK    1  A    between atoms: C_1  and  C_2
REMARK    2  A    between atoms: C_2  and  C_3
REMARK    3  A    between atoms: C_2  and  C_16
REMARK    4  A    between atoms: C_3  and  N_4
REMARK    5  A    between atoms: C_9  and  O_10
REMARK    6  A    between atoms: O_10  and  C_11
REMARK                            x       y       z     vdW  Elec       q    Type
REMARK                         _______ _______ _______ _____ _____    ______ ____
ROOT
ATOM      1  N   UNL     1      44.187   5.332  12.301  0.00  0.00    +0.000 N 
ATOM      2  C   UNL     1      45.492   5.656  12.650  0.00  0.00    +0.000 A 
ATOM      3  N   UNL     1      45.949   5.123  13.791  0.00  0.00    +0.000 NA
ATOM      4  C   UNL     1      47.224   5.403  14.122  0.00  0.00    +0.000 A 
ATOM      5  C   UNL     1      48.055   6.176  13.353  0.00  0.00    +0.000 A 
ATOM      6  C   UNL     1      47.489   6.659  12.203  0.00  0.00    +0.000 A 
ATOM      7  N   UNL     1      46.224   6.420  11.837  0.00  0.00    +0.000 NA
ATOM      8  H   UNL     1      43.981   4.471  12.800  0.00  0.00    +0.000 HD
ENDROOT
BRANCH   1   9
ATOM      9  C   UNL     1      43.972   5.282  10.860  0.00  0.00    +0.000 C 
BRANCH   9  11
ATOM     10  C   UNL     1      43.515   2.876  11.536  0.00  0.00    +0.000 C 
ATOM     11  C   UNL     1      43.705   3.846  10.363  0.00  0.00    +0.000 C 
BRANCH  11  12
ATOM     12  C   UNL     1      44.746   3.389   9.352  0.00  0.00    +0.000 A 
ATOM     13  C   UNL     1      45.039   2.020   9.220  0.00  0.00    +0.000 A 
ATOM     14  C   UNL     1      45.986   1.585   8.292  0.00  0.00    +0.000 A 
ATOM     15  C   UNL     1      46.648   2.507   7.485  0.00  0.00    +0.000 A 
ATOM     16 CL   UNL     1      47.824   1.976   6.351  0.00  0.00    +0.000 Cl
ATOM     17  C   UNL     1      46.359   3.866   7.591  0.00  0.00    +0.000 A 
ATOM     18  C   UNL     1      45.410   4.300   8.512  0.00  0.00    +0.000 A 
ENDBRANCH  11  12
ENDBRANCH   9  11
ENDBRANCH   1   9
BRANCH   6  19
ATOM     19  O   UNL     1      48.277   7.423  11.364  0.00  0.00    +0.000 OA
BRANCH  19  20
ATOM     20  C   UNL     1      49.527   7.881  11.947  0.00  0.00    +0.000 C 
ATOM     21  C   UNL     1      49.794   9.398  11.898  0.00  0.00    +0.000 C 
ATOM     22  N   UNL     1      51.092   9.169  11.251  0.00  0.00    +0.000 NA
ATOM     23  C   UNL     1      50.779   7.744  11.062  0.00  0.00    +0.000 C 
ATOM     24  H   UNL     1      51.894   9.342  11.857  0.00  0.00    +0.000 HD
ENDBRANCH  19  20
ENDBRANCH   6  19
TORSDOF 5
ENDMDL
MODEL 3
REMARK VINA RESULT:    -7.533      2.385      3.092
REMARK INTER + INTRA:          -9.734
REMARK INTER:                  -9.157
REMARK INTRA:                  -0.577
REMARK UNBOUND:                 0.001
REMARK  Name = 
REMARK  6 active torsions:
REMARK  status: ('A' for Active; 'I' for Inactive)
REMARK    1  A    between atoms: C_1  and  C_2
REMARK    2  A    between atoms: C_2  and  C_3
REMARK    3  A    between atoms: C_2  and  C_16
REMARK    4  A    between atoms: C_3  and  N_4
REMARK    5  A    between atoms: C_9  and  O_10
REMARK    6  A    between atoms: O_10  and  C_11
REMARK                            x       y       z     vdW  Elec       q    Type
REMARK                         _______ _______ _______ _____ _____    ______ ____
ROOT
ATOM      1  N   UNL     1      44.177   6.426  10.945  0.00  0.00    +0.000 N 
ATOM      2  C   UNL     1      45.016   7.438  11.394  0.00  0.00    +0.000 A 
ATOM      3  N   UNL     1      44.445   8.631  11.605  0.00  0.00    +0.000 NA
ATOM      4  C   UNL     1      45.242   9.610  12.072  0.00  0.00    +0.000 A 
ATOM      5  C   UNL     1      46.574   9.437  12.351  0.00  0.00    +0.000 A 
ATOM      6  C   UNL     1      47.050   8.174  12.112  0.00  0.00    +0.000 A 
ATOM      7  N   UNL     1      46.302   7.173  11.634  0.00  0.00    +0.000 NA
ATOM      8  H   UNL     1      43.241   6.713  11.216  0.00  0.00    +0.000 HD
ENDROOT
BRANCH   1   9
ATOM      9  C   UNL     1      44.579   5.100  11.399  0.00  0.00    +0.000 C 
BRANCH   9  11
ATOM     10  C   UNL     1      43.385   2.857  11.439  0.00  0.00    +0.000 C 
ATOM     11  C   UNL     1      43.940   3.980  10.553  0.00  0.00    +0.000 C 
BRANCH  11  12
ATOM     12  C   UNL     1      44.872   3.490   9.455  0.00  0.00    +0.000 A 
ATOM     13  C   UNL     1      45.124   2.114   9.313  0.00  0.00    +0.000 A 
ATOM     14  C   UNL     1      45.972   1.649   8.307  0.00  0.00    +0.000 A 
ATOM     15  C   UNL     1      46.575   2.549   7.430  0.00  0.00    +0.000 A 
ATOM     16 CL   UNL     1      47.629   1.982   6.199  0.00  0.00    +0.000 Cl
ATOM     17  C   UNL     1      46.324   3.915   7.547  0.00  0.00    +0.000 A 
ATOM     18  C   UNL     1      45.474   4.378   8.546  0.00  0.00    +0.000 A 
ENDBRANCH  11  12
ENDBRANCH   9  11
ENDBRANCH   1   9
BRANCH   6  19
ATOM     19  O   UNL     1      48.378   7.918  12.396  0.00  0.00    +0.000 OA
BRANCH  19  20
ATOM     20  C   UNL     1      48.718   7.948  13.809  0.00  0.00    +0.000 C 
ATOM     21  C   UNL     1      50.210   7.794  14.161  0.00  0.00    +0.000 C 
ATOM     22  N   UNL     1      49.903   6.679  15.066  0.00  0.00    +0.000 NA
ATOM     23  C   UNL     1      48.513   6.634  14.584  0.00  0.00    +0.000 C 
ATOM     24  H   UNL     1      49.993   6.910  16.054  0.00  0.00    +0.000 HD
ENDBRANCH  19  20
ENDBRANCH   6  19
TORSDOF 5
ENDMDL
MODEL 4
REMARK VINA RESULT:    -7.272      3.542      7.469
REMARK INTER + INTRA:          -9.396
REMARK INTER:                  -8.809
REMARK INTRA:                  -0.587
REMARK UNBOUND:                 0.001
REMARK  Name = 
REMARK  6 active torsions:
REMARK  status: ('A' for Active; 'I' for Inactive)
REMARK    1  A    between atoms: C_1  and  C_2
REMARK    2  A    between atoms: C_2  and  C_3
REMARK    3  A    between atoms: C_2  and  C_16
REMARK    4  A    between atoms: C_3  and  N_4
REMARK    5  A    between atoms: C_9  and  O_10
REMARK    6  A    between atoms: O_10  and  C_11
REMARK                            x       y       z     vdW  Elec       q    Type
REMARK                         _______ _______ _______ _____ _____    ______ ____
ROOT
ATOM      1  N   UNL     1      47.752   5.522  15.368  0.00  0.00    +0.000 N 
ATOM      2  C   UNL     1      47.390   5.866  14.072  0.00  0.00    +0.000 A 
ATOM      3  N   UNL     1      48.240   6.662  13.411  0.00  0.00    +0.000 NA
ATOM      4  C   UNL     1      47.915   6.975  12.142  0.00  0.00    +0.000 A 
ATOM      5  C   UNL     1      46.789   6.513  11.511  0.00  0.00    +0.000 A 
ATOM      6  C   UNL     1      45.997   5.697  12.276  0.00  0.00    +0.000 A 
ATOM      7  N   UNL     1      46.270   5.368  13.544  0.00  0.00    +0.000 NA
ATOM      8  H   UNL     1      48.759   5.653  15.409  0.00  0.00    +0.000 HD
ENDROOT
BRANCH   1   9
ATOM      9  C   UNL     1      47.280   4.201  15.766  0.00  0.00    +0.000 C 
BRANCH   9  11
ATOM     10  C   UNL     1      47.188   5.018  18.171  0.00  0.00    +0.000 C 
ATOM     11  C   UNL     1      47.625   3.882  17.236  0.00  0.00    +0.000 C 
BRANCH  11  12
ATOM     12  C   UNL     1      49.081   3.475  17.406  0.00  0.00    +0.000 A 
ATOM     13  C   UNL     1      49.503   2.200  16.990  0.00  0.00    +0.000 A 
ATOM     14  C   UNL     1      50.837   1.814  17.133  0.00  0.00    +0.000 A 
ATOM     15  C   UNL     1      51.763   2.694  17.688  0.00  0.00    +0.000 A 
ATOM     16 CL   UNL     1      53.402   2.218  17.878  0.00  0.00    +0.000 Cl
ATOM     17  C   UNL     1      51.365   3.967  18.091  0.00  0.00    +0.000 A 
ATOM     18  C   UNL     1      50.037   4.354  17.943  0.00  0.00    +0.000 A 
ENDBRANCH  11  12
ENDBRANCH   9  11
ENDBRANCH   1   9
BRANCH   6  19
ATOM     19  O   UNL     1      44.859   5.170  11.696  0.00  0.00    +0.000 OA
BRANCH  19  20
ATOM     20  C   UNL     1      44.698   3.735  11.856  0.00  0.00    +0.000 C 
ATOM     21  C   UNL     1      44.049   2.979  10.681  0.00  0.00    +0.000 C 
ATOM     22  N   UNL     1      43.045   2.398  11.581  0.00  0.00    +0.000 NA
ATOM     23  C   UNL     1      43.479   3.276  12.678  0.00  0.00    +0.000 C 
ATOM     24  H   UNL     1      43.178   1.405  11.766  0.00  0.00    +0.000 HD
ENDBRANCH  19  20
ENDBRANCH   6  19
TORSDOF 5
ENDMDL
MODEL 5
REMARK VINA RESULT:    -7.255      4.180      7.551
REMARK INTER + INTRA:          -9.375
REMARK INTER:                  -8.796
REMARK INTRA:                  -0.579
REMARK UNBOUND:                 0.001
REMARK  Name = 
REMARK  6 active torsions:
REMARK  status: ('A' for Active; 'I' for Inactive)
REMARK    1  A    between atoms: C_1  and  C_2
REMARK    2  A    between atoms: C_2  and  C_3
REMARK    3  A    between atoms: C_2  and  C_16
REMARK    4  A    between atoms: C_3  and  N_4
REMARK    5  A    between atoms: C_9  and  O_10
REMARK    6  A    between atoms: O_10  and  C_11
REMARK                            x       y       z     vdW  Elec       q    Type
REMARK                         _______ _______ _______ _____ _____    ______ ____
ROOT
ATOM      1  N   UNL     1      45.433   5.477  11.655  0.00  0.00    +0.000 N 
ATOM      2  C   UNL     1      45.223   4.564  10.629  0.00  0.00    +0.000 A 
ATOM      3  N   UNL     1      44.373   3.564  10.893  0.00  0.00    +0.000 NA
ATOM      4  C   UNL     1      44.136   2.692   9.895  0.00  0.00    +0.000 A 
ATOM      5  C   UNL     1      44.701   2.791   8.649  0.00  0.00    +0.000 A 
ATOM      6  C   UNL     1      45.544   3.859   8.486  0.00  0.00    +0.000 A 
ATOM      7  N   UNL     1      45.822   4.744   9.451  0.00  0.00    +0.000 NA
ATOM      8  H   UNL     1      44.621   5.394  12.259  0.00  0.00    +0.000 HD
ENDROOT
BRANCH   1   9
ATOM      9  C   UNL     1      45.717   6.825  11.177  0.00  0.00    +0.000 C 
BRANCH   9  11
ATOM     10  C   UNL     1      45.272   8.870  12.619  0.00  0.00    +0.000 C 
ATOM     11  C   UNL     1      46.256   7.736  12.299  0.00  0.00    +0.000 C 
BRANCH  11  12
ATOM     12  C   UNL     1      47.672   8.216  12.015  0.00  0.00    +0.000 A 
ATOM     13  C   UNL     1      48.708   7.279  11.853  0.00  0.00    +0.000 A 
ATOM     14  C   UNL     1      50.010   7.704  11.586  0.00  0.00    +0.000 A 
ATOM     15  C   UNL     1      50.293   9.063  11.474  0.00  0.00    +0.000 A 
ATOM     16 CL   UNL     1      51.897   9.590  11.159  0.00  0.00    +0.000 Cl
ATOM     17  C   UNL     1      49.275  10.004  11.617  0.00  0.00    +0.000 A 
ATOM     18  C   UNL     1      47.976   9.581  11.878  0.00  0.00    +0.000 A 
ENDBRANCH  11  12
ENDBRANCH   9  11
ENDBRANCH   1   9
BRANCH   6  19
ATOM     19  O   UNL     1      46.128   4.040   7.247  0.00  0.00    +0.000 OA
BRANCH  19  20
ATOM     20  C   UNL     1      46.542   2.816   6.581  0.00  0.00    +0.000 C 
ATOM     21  C   UNL     1      47.931   2.264   6.958  0.00  0.00    +0.000 C 
ATOM     22  N   UNL     1      48.325   2.235   5.544  0.00  0.00    +0.000 NA
ATOM     23  C   UNL     1      47.114   2.976   5.161  0.00  0.00    +0.000 C 
ATOM     24  H   UNL     1      48.382   1.297   5.148  0.00  0.00    +0.000 HD
ENDBRANCH  19  20
ENDBRANCH   6  19
TORSDOF 5
ENDMDL
MODEL 6
REMARK VINA RESULT:    -6.977      3.759      7.669
REMARK INTER + INTRA:          -9.015
REMARK INTER:                  -8.465
REMARK INTRA:                  -0.550
REMARK UNBOUND:                 0.001
REMARK  Name = 
REMARK  6 active torsions:
REMARK  status: ('A' for Active; 'I' for Inactive)
REMARK    1  A    between atoms: C_1  and  C_2
REMARK    2  A    between atoms: C_2  and  C_3
REMARK    3  A    between atoms: C_2  and  C_16
REMARK    4  A    between atoms: C_3  and  N_4
REMARK    5  A    between atoms: C_9  and  O_10
REMARK    6  A    between atoms: O_10  and  C_11
REMARK                            x       y       z     vdW  Elec       q    Type
REMARK                         _______ _______ _______ _____ _____    ______ ____
ROOT
ATOM      1  N   UNL     1      47.151   3.454  14.613  0.00  0.00    +0.000 N 
ATOM      2  C   UNL     1      46.495   3.922  13.482  0.00  0.00    +0.000 A 
ATOM      3  N   UNL     1      45.665   3.060  12.880  0.00  0.00    +0.000 NA
ATOM      4  C   UNL     1      44.998   3.515  11.802  0.00  0.00    +0.000 A 
ATOM      5  C   UNL     1      45.117   4.792  11.319  0.00  0.00    +0.000 A 
ATOM      6  C   UNL     1      45.982   5.592  12.019  0.00  0.00    +0.000 A 
ATOM      7  N   UNL     1      46.678   5.183  13.086  0.00  0.00    +0.000 NA
ATOM      8  H   UNL     1      46.588   2.678  14.949  0.00  0.00    +0.000 HD
ENDROOT
BRANCH   1   9
ATOM      9  C   UNL     1      47.423   4.497  15.595  0.00  0.00    +0.000 C 
BRANCH   9  11
ATOM     10  C   UNL     1      47.097   4.866  18.088  0.00  0.00    +0.000 C 
ATOM     11  C   UNL     1      47.639   3.919  17.009  0.00  0.00    +0.000 C 
BRANCH  11  12
ATOM     12  C   UNL     1      49.081   3.490  17.237  0.00  0.00    +0.000 A 
ATOM     13  C   UNL     1      50.008   4.407  17.763  0.00  0.00    +0.000 A 
ATOM     14  C   UNL     1      51.333   4.026  17.984  0.00  0.00    +0.000 A 
ATOM     15  C   UNL     1      51.745   2.729  17.688  0.00  0.00    +0.000 A 
ATOM     16 CL   UNL     1      53.377   2.261  17.947  0.00  0.00    +0.000 Cl
ATOM     17  C   UNL     1      50.836   1.803  17.181  0.00  0.00    +0.000 A 
ATOM     18  C   UNL     1      49.514   2.181  16.966  0.00  0.00    +0.000 A 
ENDBRANCH  11  12
ENDBRANCH   9  11
ENDBRANCH   1   9
BRANCH   6  19
ATOM     19  O   UNL     1      46.131   6.902  11.606  0.00  0.00    +0.000 OA
BRANCH  19  20
ATOM     20  C   UNL     1      46.109   7.887  12.674  0.00  0.00    +0.000 C 
ATOM     21  C   UNL     1      45.301   9.172  12.410  0.00  0.00    +0.000 C 
ATOM     22  N   UNL     1      46.469   9.999  12.738  0.00  0.00    +0.000 NA
ATOM     23  C   UNL     1      47.337   8.812  12.769  0.00  0.00    +0.000 C 
ATOM     24  H   UNL     1      46.395  10.485  13.631  0.00  0.00    +0.000 HD
ENDBRANCH  19  20
ENDBRANCH   6  19
TORSDOF 5
ENDMDL
MODEL 7
REMARK VINA RESULT:    -6.431      2.242      3.604
REMARK INTER + INTRA:          -8.310
REMARK INTER:                  -8.220
REMARK INTRA:                  -0.089
REMARK UNBOUND:                 0.001
REMARK  Name = 
REMARK  6 active torsions:
REMARK  status: ('A' for Active; 'I' for Inactive)
REMARK    1  A    between atoms: C_1  and  C_2
REMARK    2  A    between atoms: C_2  and  C_3
REMARK    3  A    between atoms: C_2  and  C_16
REMARK    4  A    between atoms: C_3  and  N_4
REMARK    5  A    between atoms: C_9  and  O_10
REMARK    6  A    between atoms: O_10  and  C_11
REMARK                            x       y       z     vdW  Elec       q    Type
REMARK                         _______ _______ _______ _____ _____    ______ ____
ROOT
ATOM      1  N   UNL     1      45.903   4.426  14.462  0.00  0.00    +0.000 N 
ATOM      2  C   UNL     1      46.986   4.650  15.304  0.00  0.00    +0.000 A 
ATOM      3  N   UNL     1      47.064   3.867  16.388  0.00  0.00    +0.000 NA
ATOM      4  C   UNL     1      48.127   4.053  17.193  0.00  0.00    +0.000 A 
ATOM      5  C   UNL     1      49.114   4.972  16.947  0.00  0.00    +0.000 A 
ATOM      6  C   UNL     1      48.940   5.708  15.805  0.00  0.00    +0.000 A 
ATOM      7  N   UNL     1      47.895   5.572  14.981  0.00  0.00    +0.000 NA
ATOM      8  H   UNL     1      45.601   3.477  14.660  0.00  0.00    +0.000 HD
ENDROOT
BRANCH   1   9
ATOM      9  C   UNL     1      46.195   4.707  13.062  0.00  0.00    +0.000 C 
BRANCH   9  11
ATOM     10  C   UNL     1      43.741   4.068  12.893  0.00  0.00    +0.000 C 
ATOM     11  C   UNL     1      44.913   4.784  12.207  0.00  0.00    +0.000 C 
BRANCH  11  12
ATOM     12  C   UNL     1      45.153   4.332  10.775  0.00  0.00    +0.000 A 
ATOM     13  C   UNL     1      45.661   5.241   9.830  0.00  0.00    +0.000 A 
ATOM     14  C   UNL     1      45.892   4.840   8.514  0.00  0.00    +0.000 A 
ATOM     15  C   UNL     1      45.624   3.529   8.126  0.00  0.00    +0.000 A 
ATOM     16 CL   UNL     1      45.895   3.035   6.503  0.00  0.00    +0.000 Cl
ATOM     17  C   UNL     1      45.135   2.610   9.053  0.00  0.00    +0.000 A 
ATOM     18  C   UNL     1      44.909   3.009  10.367  0.00  0.00    +0.000 A 
ENDBRANCH  11  12
ENDBRANCH   9  11
ENDBRANCH   1   9
BRANCH   6  19
ATOM     19  O   UNL     1      49.912   6.636  15.478  0.00  0.00    +0.000 OA
BRANCH  19  20
ATOM     20  C   UNL     1      49.535   8.021  15.701  0.00  0.00    +0.000 C 
ATOM     21  C   UNL     1      48.450   8.277  16.765  0.00  0.00    +0.000 C 
ATOM     22  N   UNL     1      47.650   9.038  15.797  0.00  0.00    +0.000 NA
ATOM     23  C   UNL     1      48.534   8.622  14.697  0.00  0.00    +0.000 C 
ATOM     24  H   UNL     1      47.640  10.043  15.966  0.00  0.00    +0.000 HD
ENDBRANCH  19  20
ENDBRANCH   6  19
TORSDOF 5
ENDMDL
MODEL 8
REMARK VINA RESULT:    -6.062      3.663      5.804
REMARK INTER + INTRA:          -7.832
REMARK INTER:                  -7.334
REMARK INTRA:                  -0.499
REMARK UNBOUND:                 0.001
REMARK  Name = 
REMARK  6 active torsions:
REMARK  status: ('A' for Active; 'I' for Inactive)
REMARK    1  A    between atoms: C_1  and  C_2
REMARK    2  A    between atoms: C_2  and  C_3
REMARK    3  A    between atoms: C_2  and  C_16
REMARK    4  A    between atoms: C_3  and  N_4
REMARK    5  A    between atoms: C_9  and  O_10
REMARK    6  A    between atoms: O_10  and  C_11
REMARK                            x       y       z     vdW  Elec       q    Type
REMARK                         _______ _______ _______ _____ _____    ______ ____
ROOT
ATOM      1  N   UNL     1      46.357   4.677  15.117  0.00  0.00    +0.000 N 
ATOM      2  C   UNL     1      47.202   4.188  16.105  0.00  0.00    +0.000 A 
ATOM      3  N   UNL     1      46.664   3.310  16.962  0.00  0.00    +0.000 NA
ATOM      4  C   UNL     1      47.483   2.804  17.903  0.00  0.00    +0.000 A 
ATOM      5  C   UNL     1      48.812   3.127  18.008  0.00  0.00    +0.000 A 
ATOM      6  C   UNL     1      49.259   4.023  17.073  0.00  0.00    +0.000 A 
ATOM      7  N   UNL     1      48.482   4.565  16.127  0.00  0.00    +0.000 NA
ATOM      8  H   UNL     1      45.612   3.992  15.037  0.00  0.00    +0.000 HD
ENDROOT
BRANCH   1   9
ATOM      9  C   UNL     1      47.049   4.994  13.873  0.00  0.00    +0.000 C 
BRANCH   9  11
ATOM     10  C   UNL     1      45.601   5.116  11.787  0.00  0.00    +0.000 C 
ATOM     11  C   UNL     1      46.205   5.905  12.957  0.00  0.00    +0.000 C 
BRANCH  11  12
ATOM     12  C   UNL     1      46.968   7.149  12.528  0.00  0.00    +0.000 A 
ATOM     13  C   UNL     1      46.376   8.416  12.669  0.00  0.00    +0.000 A 
ATOM     14  C   UNL     1      47.066   9.567  12.285  0.00  0.00    +0.000 A 
ATOM     15  C   UNL     1      48.354   9.467  11.763  0.00  0.00    +0.000 A 
ATOM     16 CL   UNL     1      49.202  10.881  11.279  0.00  0.00    +0.000 Cl
ATOM     17  C   UNL     1      48.962   8.221  11.632  0.00  0.00    +0.000 A 
ATOM     18  C   UNL     1      48.276   7.074  12.019  0.00  0.00    +0.000 A 
ENDBRANCH  11  12
ENDBRANCH   9  11
ENDBRANCH   1   9
BRANCH   6  19
ATOM     19  O   UNL     1      50.595   4.375  17.099  0.00  0.00    +0.000 OA
BRANCH  19  20
ATOM     20  C   UNL     1      51.343   3.850  18.229  0.00  0.00    +0.000 C 
ATOM     21  C   UNL     1      52.514   4.712  18.739  0.00  0.00    +0.000 C 
ATOM     22  N   UNL     1      53.434   3.575  18.611  0.00  0.00    +0.000 NA
ATOM     23  C   UNL     1      52.412   2.790  17.903  0.00  0.00    +0.000 C 
ATOM     24  H   UNL     1      53.724   3.174  19.502  0.00  0.00    +0.000 HD
ENDBRANCH  19  20
ENDBRANCH   6  19
TORSDOF 5
ENDMDL
MODEL 9
REMARK VINA RESULT:    -5.964      4.326      8.268
REMARK INTER + INTRA:          -7.706
REMARK INTER:                  -7.186
REMARK INTRA:                  -0.520
REMARK UNBOUND:                 0.001
REMARK  Name = 
REMARK  6 active torsions:
REMARK  status: ('A' for Active; 'I' for Inactive)
REMARK    1  A    between atoms: C_1  and  C_2
REMARK    2  A    between atoms: C_2  and  C_3
REMARK    3  A    between atoms: C_2  and  C_16
REMARK    4  A    between atoms: C_3  and  N_4
REMARK    5  A    between atoms: C_9  and  O_10
REMARK    6  A    between atoms: O_10  and  C_11
REMARK                            x       y       z     vdW  Elec       q    Type
REMARK                         _______ _______ _______ _____ _____    ______ ____
ROOT
ATOM      1  N   UNL     1      47.202   3.432  14.612  0.00  0.00    +0.000 N 
ATOM      2  C   UNL     1      46.353   3.949  13.643  0.00  0.00    +0.000 A 
ATOM      3  N   UNL     1      45.844   3.068  12.771  0.00  0.00    +0.000 NA
ATOM      4  C   UNL     1      44.993   3.553  11.847  0.00  0.00    +0.000 A 
ATOM      5  C   UNL     1      44.622   4.872  11.775  0.00  0.00    +0.000 A 
ATOM      6  C   UNL     1      45.191   5.680  12.723  0.00  0.00    +0.000 A 
ATOM      7  N   UNL     1      46.053   5.249  13.652  0.00  0.00    +0.000 NA
ATOM      8  H   UNL     1      46.972   2.444  14.673  0.00  0.00    +0.000 HD
ENDROOT
BRANCH   1   9
ATOM      9  C   UNL     1      47.150   4.162  15.873  0.00  0.00    +0.000 C 
BRANCH   9  11
ATOM     10  C   UNL     1      48.808   2.665  17.085  0.00  0.00    +0.000 C 
ATOM     11  C   UNL     1      48.490   4.098  16.635  0.00  0.00    +0.000 C 
BRANCH  11  12
ATOM     12  C   UNL     1      48.558   5.122  17.758  0.00  0.00    +0.000 A 
ATOM     13  C   UNL     1      48.189   4.754  19.064  0.00  0.00    +0.000 A 
ATOM     14  C   UNL     1      48.252   5.681  20.106  0.00  0.00    +0.000 A 
ATOM     15  C   UNL     1      48.687   6.981  19.858  0.00  0.00    +0.000 A 
ATOM     16 CL   UNL     1      48.754   8.128  21.135  0.00  0.00    +0.000 Cl
ATOM     17  C   UNL     1      49.071   7.358  18.573  0.00  0.00    +0.000 A 
ATOM     18  C   UNL     1      49.013   6.433  17.535  0.00  0.00    +0.000 A 
ENDBRANCH  11  12
ENDBRANCH   9  11
ENDBRANCH   1   9
BRANCH   6  19
ATOM     19  O   UNL     1      44.841   7.017  12.729  0.00  0.00    +0.000 OA
BRANCH  19  20
ATOM     20  C   UNL     1      45.859   7.919  12.217  0.00  0.00    +0.000 C 
ATOM     21  C   UNL     1      46.754   8.611  13.263  0.00  0.00    +0.000 C 
ATOM     22  N   UNL     1      46.426   9.928  12.701  0.00  0.00    +0.000 NA
ATOM     23  C   UNL     1      45.387   9.336  11.845  0.00  0.00    +0.000 C 
ATOM     24  H   UNL     1      47.192  10.362  12.187  0.00  0.00    +0.000 HD
ENDBRANCH  19  20
ENDBRANCH   6  19
TORSDOF 5
ENDMDL
