MODEL 1
REMARK VINA RESULT:    -7.830      0.000      0.000
REMARK INTER + INTRA:         -11.930
REMARK INTER:                 -10.576
REMARK INTRA:                  -1.354
REMARK UNBOUND:                -1.354
REMARK  Name = 
REMARK  7 active torsions:
REMARK  status: ('A' for Active; 'I' for Inactive)
REMARK    1  A    between atoms: C_1  and  C_2
REMARK    2  A    between atoms: C_4  and  C_5
REMARK    3  A    between atoms: C_5  and  N_6
REMARK    4  A    between atoms: C_7  and  C_9
REMARK    5  A    between atoms: C_20  and  C_21
REMARK    6  A    between atoms: C_21  and  N_22
REMARK    7  A    between atoms: C_23  and  C_25
REMARK                            x       y       z     vdW  Elec       q    Type
REMARK                         _______ _______ _______ _____ _____    ______ ____
ROOT
ATOM      1  C   UNL     1      49.610   7.144  12.323  0.00  0.00    +0.000 C 
ATOM      2  C   UNL     1      48.204   7.622  12.568  0.00  0.00    +0.000 A 
ATOM      3  C   UNL     1      47.173   7.082  11.772  0.00  0.00    +0.000 A 
ATOM      4  C   UNL     1      45.842   7.499  11.903  0.00  0.00    +0.000 A 
ATOM      5  C   UNL     1      45.540   8.461  12.870  0.00  0.00    +0.000 A 
ATOM      6  C   UNL     1      46.554   9.015  13.660  0.00  0.00    +0.000 A 
ATOM      7  C   UNL     1      47.895   8.608  13.529  0.00  0.00    +0.000 A 
ENDROOT
BRANCH   4   8
ATOM      8  C   UNL     1      44.769   6.901  11.027  0.00  0.00    +0.000 C 
BRANCH   8   9
ATOM      9  N   UNL     1      45.296   5.862  10.175  0.00  0.00    +0.000 N 
ATOM     10  C   UNL     1      44.603   4.690   9.962  0.00  0.00    +0.000 C 
ATOM     11  O   UNL     1      43.495   4.461  10.430  0.00  0.00    +0.000 OA
ATOM     12  H   UNL     1      46.093   6.093   9.594  0.00  0.00    +0.000 HD
BRANCH  10  13
ATOM     13  C   UNL     1      45.267   3.691   9.093  0.00  0.00    +0.000 A 
ATOM     14  C   UNL     1      45.155   2.332   9.398  0.00  0.00    +0.000 A 
ATOM     15  N   UNL     1      45.708   1.305   8.689  0.00  0.00    +0.000 NA
ATOM     16  C   UNL     1      46.421   1.752   7.638  0.00  0.00    +0.000 A 
ATOM     17  N   UNL     1      47.109   0.999   6.730  0.00  0.00    +0.000 N 
ATOM     18  C   UNL     1      47.696   1.860   5.841  0.00  0.00    +0.000 A 
ATOM     19  N   UNL     1      47.426   3.116   6.123  0.00  0.00    +0.000 NA
ATOM     20  C   UNL     1      46.630   3.065   7.239  0.00  0.00    +0.000 A 
ATOM     21  C   UNL     1      46.039   4.084   7.992  0.00  0.00    +0.000 A 
ATOM     22  H   UNL     1      47.165  -0.008   6.733  0.00  0.00    +0.000 HD
ENDBRANCH  10  13
ENDBRANCH   8   9
ENDBRANCH   4   8
BRANCH   7  23
ATOM     23  C   UNL     1      48.939   9.285  14.396  0.00  0.00    +0.000 C 
BRANCH  23  24
ATOM     24  N   UNL     1      49.298   8.460  15.526  0.00  0.00    +0.000 N 
ATOM     25  C   UNL     1      48.703   8.606  16.754  0.00  0.00    +0.000 C 
ATOM     26  O   UNL     1      47.810   9.427  16.957  0.00  0.00    +0.000 OA
ATOM     27  H   UNL     1      50.204   8.006  15.476  0.00  0.00    +0.000 HD
BRANCH  25  28
ATOM     28  C   UNL     1      49.133   7.666  17.802  0.00  0.00    +0.000 A 
ATOM     29  C   UNL     1      49.684   8.141  18.987  0.00  0.00    +0.000 A 
ATOM     30  S   UNL     1      49.987   6.919  20.139  0.00  0.00    +0.000 S 
ATOM     31  C   UNL     1      49.446   5.705  19.077  0.00  0.00    +0.000 A 
ATOM     32  N   UNL     1      49.420   4.399  19.456  0.00  0.00    +0.000 NA
ATOM     33  C   UNL     1      49.003   3.586  18.542  0.00  0.00    +0.000 A 
ATOM     34  N   UNL     1      48.627   3.960  17.278  0.00  0.00    +0.000 N 
ATOM     35  C   UNL     1      48.654   5.264  16.848  0.00  0.00    +0.000 A 
ATOM     36  O   UNL     1      48.347   5.564  15.698  0.00  0.00    +0.000 OA
ATOM     37  C   UNL     1      49.065   6.223  17.853  0.00  0.00    +0.000 A 
ATOM     38  H   UNL     1      48.333   3.274  16.600  0.00  0.00    +0.000 HD
ENDBRANCH  25  28
ENDBRANCH  23  24
ENDBRANCH   7  23
TORSDOF 6
ENDMDL
MODEL 2
REMARK VINA RESULT:    -7.528      3.531      9.159
REMARK INTER + INTRA:         -11.523
REMARK INTER:                 -10.425
REMARK INTRA:                  -1.098
REMARK UNBOUND:                -1.354
REMARK  Name = 
REMARK  7 active torsions:
REMARK  status: ('A' for Active; 'I' for Inactive)
REMARK    1  A    between atoms: C_1  and  C_2
REMARK    2  A    between atoms: C_4  and  C_5
REMARK    3  A    between atoms: C_5  and  N_6
REMARK    4  A    between atoms: C_7  and  C_9
REMARK    5  A    between atoms: C_20  and  C_21
REMARK    6  A    between atoms: C_21  and  N_22
REMARK    7  A    between atoms: C_23  and  C_25
REMARK                            x       y       z     vdW  Elec       q    Type
REMARK                         _______ _______ _______ _____ _____    ______ ____
ROOT
ATOM      1  C   UNL     1      50.204   9.054  11.908  0.00  0.00    +0.000 C 
ATOM      2  C   UNL     1      49.690   8.289  13.097  0.00  0.00    +0.000 A 
ATOM      3  C   UNL     1      50.558   8.106  14.193  0.00  0.00    +0.000 A 
ATOM      4  C   UNL     1      50.176   7.372  15.325  0.00  0.00    +0.000 A 
ATOM      5  C   UNL     1      48.889   6.833  15.362  0.00  0.00    +0.000 A 
ATOM      6  C   UNL     1      48.019   6.996  14.277  0.00  0.00    +0.000 A 
ATOM      7  C   UNL     1      48.397   7.724  13.134  0.00  0.00    +0.000 A 
ENDROOT
BRANCH   4   8
ATOM      8  C   UNL     1      51.137   7.194  16.473  0.00  0.00    +0.000 C 
BRANCH   8   9
ATOM      9  N   UNL     1      51.526   5.813  16.632  0.00  0.00    +0.000 N 
ATOM     10  C   UNL     1      50.975   5.022  17.617  0.00  0.00    +0.000 C 
ATOM     11  O   UNL     1      50.104   5.404  18.388  0.00  0.00    +0.000 OA
ATOM     12  H   UNL     1      52.070   5.391  15.887  0.00  0.00    +0.000 HD
BRANCH  10  13
ATOM     13  C   UNL     1      51.483   3.632  17.695  0.00  0.00    +0.000 A 
ATOM     14  C   UNL     1      50.651   2.574  17.320  0.00  0.00    +0.000 A 
ATOM     15  N   UNL     1      50.984   1.251  17.338  0.00  0.00    +0.000 NA
ATOM     16  C   UNL     1      52.235   1.057  17.793  0.00  0.00    +0.000 A 
ATOM     17  N   UNL     1      52.880  -0.137  17.947  0.00  0.00    +0.000 N 
ATOM     18  C   UNL     1      54.127   0.129  18.446  0.00  0.00    +0.000 A 
ATOM     19  N   UNL     1      54.321   1.419  18.621  0.00  0.00    +0.000 NA
ATOM     20  C   UNL     1      53.151   2.011  18.216  0.00  0.00    +0.000 A 
ATOM     21  C   UNL     1      52.769   3.355  18.174  0.00  0.00    +0.000 A 
ATOM     22  H   UNL     1      52.490  -1.041  17.729  0.00  0.00    +0.000 HD
ENDBRANCH  10  13
ENDBRANCH   8   9
ENDBRANCH   4   8
BRANCH   7  23
ATOM     23  C   UNL     1      47.410   7.823  11.986  0.00  0.00    +0.000 C 
BRANCH  23  24
ATOM     24  N   UNL     1      46.767   6.554  11.737  0.00  0.00    +0.000 N 
ATOM     25  C   UNL     1      45.402   6.424  11.690  0.00  0.00    +0.000 C 
ATOM     26  O   UNL     1      44.647   7.385  11.832  0.00  0.00    +0.000 OA
ATOM     27  H   UNL     1      47.327   5.728  11.915  0.00  0.00    +0.000 HD
BRANCH  25  28
ATOM     28  C   UNL     1      44.884   5.082  11.379  0.00  0.00    +0.000 A 
ATOM     29  C   UNL     1      44.163   4.371  12.331  0.00  0.00    +0.000 A 
ATOM     30  S   UNL     1      43.521   2.901  11.746  0.00  0.00    +0.000 S 
ATOM     31  C   UNL     1      44.230   3.135  10.217  0.00  0.00    +0.000 A 
ATOM     32  N   UNL     1      44.050   2.235   9.213  0.00  0.00    +0.000 NA
ATOM     33  C   UNL     1      44.661   2.532   8.114  0.00  0.00    +0.000 A 
ATOM     34  N   UNL     1      45.451   3.639   7.935  0.00  0.00    +0.000 N 
ATOM     35  C   UNL     1      45.673   4.564   8.926  0.00  0.00    +0.000 A 
ATOM     36  O   UNL     1      46.414   5.526   8.747  0.00  0.00    +0.000 OA
ATOM     37  C   UNL     1      44.966   4.304  10.164  0.00  0.00    +0.000 A 
ATOM     38  H   UNL     1      45.921   3.804   7.058  0.00  0.00    +0.000 HD
ENDBRANCH  25  28
ENDBRANCH  23  24
ENDBRANCH   7  23
TORSDOF 6
ENDMDL
MODEL 3
REMARK VINA RESULT:    -7.427      4.623      7.726
REMARK INTER + INTRA:         -11.386
REMARK INTER:                 -10.345
REMARK INTRA:                  -1.042
REMARK UNBOUND:                -1.354
REMARK  Name = 
REMARK  7 active torsions:
REMARK  status: ('A' for Active; 'I' for Inactive)
REMARK    1  A    between atoms: C_1  and  C_2
REMARK    2  A    between atoms: C_4  and  C_5
REMARK    3  A    between atoms: C_5  and  N_6
REMARK    4  A    between atoms: C_7  and  C_9
REMARK    5  A    between atoms: C_20  and  C_21
REMARK    6  A    between atoms: C_21  and  N_22
REMARK    7  A    between atoms: C_23  and  C_25
REMARK                            x       y       z     vdW  Elec       q    Type
REMARK                         _______ _______ _______ _____ _____    ______ ____
ROOT
ATOM      1  C   UNL     1      46.622  11.154  11.947  0.00  0.00    +0.000 C 
ATOM      2  C   UNL     1      47.598  10.011  12.022  0.00  0.00    +0.000 A 
ATOM      3  C   UNL     1      48.920  10.238  11.588  0.00  0.00    +0.000 A 
ATOM      4  C   UNL     1      49.883   9.219  11.585  0.00  0.00    +0.000 A 
ATOM      5  C   UNL     1      49.513   7.955  12.049  0.00  0.00    +0.000 A 
ATOM      6  C   UNL     1      48.201   7.711  12.473  0.00  0.00    +0.000 A 
ATOM      7  C   UNL     1      47.226   8.726  12.472  0.00  0.00    +0.000 A 
ENDROOT
BRANCH   4   8
ATOM      8  C   UNL     1      51.285   9.502  11.105  0.00  0.00    +0.000 C 
BRANCH   8   9
ATOM      9  N   UNL     1      51.901   8.325  10.541  0.00  0.00    +0.000 N 
ATOM     10  C   UNL     1      52.577   8.376   9.341  0.00  0.00    +0.000 C 
ATOM     11  O   UNL     1      52.742   9.405   8.697  0.00  0.00    +0.000 OA
ATOM     12  H   UNL     1      51.985   7.509  11.136  0.00  0.00    +0.000 HD
BRANCH  10  13
ATOM     13  C   UNL     1      53.136   7.093   8.854  0.00  0.00    +0.000 A 
ATOM     14  C   UNL     1      53.956   6.337   9.695  0.00  0.00    +0.000 A 
ATOM     15  N   UNL     1      54.535   5.141   9.382  0.00  0.00    +0.000 NA
ATOM     16  C   UNL     1      54.245   4.760   8.125  0.00  0.00    +0.000 A 
ATOM     17  N   UNL     1      54.664   3.626   7.490  0.00  0.00    +0.000 N 
ATOM     18  C   UNL     1      54.144   3.645   6.224  0.00  0.00    +0.000 A 
ATOM     19  N   UNL     1      53.416   4.719   6.008  0.00  0.00    +0.000 NA
ATOM     20  C   UNL     1      53.467   5.423   7.185  0.00  0.00    +0.000 A 
ATOM     21  C   UNL     1      52.889   6.642   7.551  0.00  0.00    +0.000 A 
ATOM     22  H   UNL     1      55.254   2.916   7.897  0.00  0.00    +0.000 HD
ENDBRANCH  10  13
ENDBRANCH   8   9
ENDBRANCH   4   8
BRANCH   7  23
ATOM     23  C   UNL     1      45.819   8.370  12.911  0.00  0.00    +0.000 C 
BRANCH  23  24
ATOM     24  N   UNL     1      45.509   6.991  12.615  0.00  0.00    +0.000 N 
ATOM     25  C   UNL     1      44.514   6.638  11.738  0.00  0.00    +0.000 C 
ATOM     26  O   UNL     1      43.846   7.475  11.133  0.00  0.00    +0.000 OA
ATOM     27  H   UNL     1      45.819   6.308  13.298  0.00  0.00    +0.000 HD
BRANCH  25  28
ATOM     28  C   UNL     1      44.340   5.197  11.495  0.00  0.00    +0.000 A 
ATOM     29  C   UNL     1      43.659   4.408  12.414  0.00  0.00    +0.000 A 
ATOM     30  S   UNL     1      43.429   2.797  11.897  0.00  0.00    +0.000 S 
ATOM     31  C   UNL     1      44.280   3.081  10.452  0.00  0.00    +0.000 A 
ATOM     32  N   UNL     1      44.438   2.099   9.523  0.00  0.00    +0.000 NA
ATOM     33  C   UNL     1      45.121   2.451   8.485  0.00  0.00    +0.000 A 
ATOM     34  N   UNL     1      45.676   3.691   8.299  0.00  0.00    +0.000 N 
ATOM     35  C   UNL     1      45.557   4.705   9.218  0.00  0.00    +0.000 A 
ATOM     36  O   UNL     1      46.097   5.794   9.041  0.00  0.00    +0.000 OA
ATOM     37  C   UNL     1      44.754   4.378  10.379  0.00  0.00    +0.000 A 
ATOM     38  H   UNL     1      46.220   3.898   7.476  0.00  0.00    +0.000 HD
ENDBRANCH  25  28
ENDBRANCH  23  24
ENDBRANCH   7  23
TORSDOF 6
ENDMDL
MODEL 4
REMARK VINA RESULT:    -6.770      4.945      8.218
REMARK INTER + INTRA:         -10.498
REMARK INTER:                  -9.313
REMARK INTRA:                  -1.185
REMARK UNBOUND:                -1.354
REMARK  Name = 
REMARK  7 active torsions:
REMARK  status: ('A' for Active; 'I' for Inactive)
REMARK    1  A    between atoms: C_1  and  C_2
REMARK    2  A    between atoms: C_4  and  C_5
REMARK    3  A    between atoms: C_5  and  N_6
REMARK    4  A    between atoms: C_7  and  C_9
REMARK    5  A    between atoms: C_20  and  C_21
REMARK    6  A    between atoms: C_21  and  N_22
REMARK    7  A    between atoms: C_23  and  C_25
REMARK                            x       y       z     vdW  Elec       q    Type
REMARK                         _______ _______ _______ _____ _____    ______ ____
ROOT
ATOM      1  C   UNL     1      46.727  11.205  11.755  0.00  0.00    +0.000 C 
ATOM      2  C   UNL     1      47.649  10.017  11.807  0.00  0.00    +0.000 A 
ATOM      3  C   UNL     1      49.033  10.246  11.668  0.00  0.00    +0.000 A 
ATOM      4  C   UNL     1      49.961   9.195  11.664  0.00  0.00    +0.000 A 
ATOM      5  C   UNL     1      49.487   7.892  11.826  0.00  0.00    +0.000 A 
ATOM      6  C   UNL     1      48.115   7.647  11.954  0.00  0.00    +0.000 A 
ATOM      7  C   UNL     1      47.176   8.695  11.951  0.00  0.00    +0.000 A 
ENDROOT
BRANCH   4   8
ATOM      8  C   UNL     1      51.433   9.483  11.506  0.00  0.00    +0.000 C 
BRANCH   8   9
ATOM      9  N   UNL     1      51.881   9.238  10.155  0.00  0.00    +0.000 N 
ATOM     10  C   UNL     1      52.534   8.073   9.818  0.00  0.00    +0.000 C 
ATOM     11  O   UNL     1      52.744   7.158  10.606  0.00  0.00    +0.000 OA
ATOM     12  H   UNL     1      51.537   9.856   9.430  0.00  0.00    +0.000 HD
BRANCH  10  13
ATOM     13  C   UNL     1      52.971   7.957   8.407  0.00  0.00    +0.000 A 
ATOM     14  C   UNL     1      52.727   6.773   7.707  0.00  0.00    +0.000 A 
ATOM     15  N   UNL     1      53.069   6.527   6.409  0.00  0.00    +0.000 NA
ATOM     16  C   UNL     1      53.711   7.573   5.855  0.00  0.00    +0.000 A 
ATOM     17  N   UNL     1      54.197   7.661   4.582  0.00  0.00    +0.000 N 
ATOM     18  C   UNL     1      54.783   8.891   4.449  0.00  0.00    +0.000 A 
ATOM     19  N   UNL     1      54.702   9.597   5.556  0.00  0.00    +0.000 NA
ATOM     20  C   UNL     1      54.034   8.789   6.442  0.00  0.00    +0.000 A 
ATOM     21  C   UNL     1      53.659   8.999   7.772  0.00  0.00    +0.000 A 
ATOM     22  H   UNL     1      54.129   6.938   3.883  0.00  0.00    +0.000 HD
ENDBRANCH  10  13
ENDBRANCH   8   9
ENDBRANCH   4   8
BRANCH   7  23
ATOM     23  C   UNL     1      45.705   8.342  12.056  0.00  0.00    +0.000 C 
BRANCH  23  24
ATOM     24  N   UNL     1      45.485   6.933  11.832  0.00  0.00    +0.000 N 
ATOM     25  C   UNL     1      44.254   6.431  11.490  0.00  0.00    +0.000 C 
ATOM     26  O   UNL     1      43.273   7.155  11.329  0.00  0.00    +0.000 OA
ATOM     27  H   UNL     1      46.169   6.305  12.239  0.00  0.00    +0.000 HD
BRANCH  25  28
ATOM     28  C   UNL     1      44.186   4.981  11.244  0.00  0.00    +0.000 A 
ATOM     29  C   UNL     1      43.494   4.154  12.121  0.00  0.00    +0.000 A 
ATOM     30  S   UNL     1      43.400   2.531  11.600  0.00  0.00    +0.000 S 
ATOM     31  C   UNL     1      44.328   2.864  10.213  0.00  0.00    +0.000 A 
ATOM     32  N   UNL     1      44.608   1.892   9.303  0.00  0.00    +0.000 NA
ATOM     33  C   UNL     1      45.336   2.283   8.311  0.00  0.00    +0.000 A 
ATOM     34  N   UNL     1      45.825   3.555   8.155  0.00  0.00    +0.000 N 
ATOM     35  C   UNL     1      45.582   4.561   9.057  0.00  0.00    +0.000 A 
ATOM     36  O   UNL     1      46.064   5.681   8.910  0.00  0.00    +0.000 OA
ATOM     37  C   UNL     1      44.725   4.188  10.164  0.00  0.00    +0.000 A 
ATOM     38  H   UNL     1      46.409   3.793   7.368  0.00  0.00    +0.000 HD
ENDBRANCH  25  28
ENDBRANCH  23  24
ENDBRANCH   7  23
TORSDOF 6
ENDMDL
MODEL 5
REMARK VINA RESULT:    -6.693      3.274      4.649
REMARK INTER + INTRA:         -10.395
REMARK INTER:                  -9.189
REMARK INTRA:                  -1.206
REMARK UNBOUND:                -1.354
REMARK  Name = 
REMARK  7 active torsions:
REMARK  status: ('A' for Active; 'I' for Inactive)
REMARK    1  A    between atoms: C_1  and  C_2
REMARK    2  A    between atoms: C_4  and  C_5
REMARK    3  A    between atoms: C_5  and  N_6
REMARK    4  A    between atoms: C_7  and  C_9
REMARK    5  A    between atoms: C_20  and  C_21
REMARK    6  A    between atoms: C_21  and  N_22
REMARK    7  A    between atoms: C_23  and  C_25
REMARK                            x       y       z     vdW  Elec       q    Type
REMARK                         _______ _______ _______ _____ _____    ______ ____
ROOT
ATOM      1  C   UNL     1      52.536   8.402  14.410  0.00  0.00    +0.000 C 
ATOM      2  C   UNL     1      51.238   8.357  15.169  0.00  0.00    +0.000 A 
ATOM      3  C   UNL     1      50.040   8.527  14.444  0.00  0.00    +0.000 A 
ATOM      4  C   UNL     1      48.789   8.540  15.075  0.00  0.00    +0.000 A 
ATOM      5  C   UNL     1      48.741   8.354  16.458  0.00  0.00    +0.000 A 
ATOM      6  C   UNL     1      49.922   8.195  17.193  0.00  0.00    +0.000 A 
ATOM      7  C   UNL     1      51.183   8.189  16.569  0.00  0.00    +0.000 A 
ENDROOT
BRANCH   4   8
ATOM      8  C   UNL     1      47.532   8.733  14.264  0.00  0.00    +0.000 C 
BRANCH   8   9
ATOM      9  N   UNL     1      47.084   7.493  13.676  0.00  0.00    +0.000 N 
ATOM     10  C   UNL     1      45.952   7.441  12.891  0.00  0.00    +0.000 C 
ATOM     11  O   UNL     1      45.278   8.422  12.602  0.00  0.00    +0.000 OA
ATOM     12  H   UNL     1      47.722   6.707  13.699  0.00  0.00    +0.000 HD
BRANCH  10  13
ATOM     13  C   UNL     1      45.581   6.103  12.374  0.00  0.00    +0.000 A 
ATOM     14  C   UNL     1      45.589   5.005  13.237  0.00  0.00    +0.000 A 
ATOM     15  N   UNL     1      45.268   3.722  12.902  0.00  0.00    +0.000 NA
ATOM     16  C   UNL     1      44.954   3.610  11.598  0.00  0.00    +0.000 A 
ATOM     17  N   UNL     1      44.595   2.474  10.931  0.00  0.00    +0.000 N 
ATOM     18  C   UNL     1      44.375   2.816   9.623  0.00  0.00    +0.000 A 
ATOM     19  N   UNL     1      44.570   4.099   9.411  0.00  0.00    +0.000 NA
ATOM     20  C   UNL     1      44.929   4.609  10.634  0.00  0.00    +0.000 A 
ATOM     21  C   UNL     1      45.258   5.910  11.024  0.00  0.00    +0.000 A 
ATOM     22  H   UNL     1      44.516   1.558  11.345  0.00  0.00    +0.000 HD
ENDBRANCH  10  13
ENDBRANCH   8   9
ENDBRANCH   4   8
BRANCH   7  23
ATOM     23  C   UNL     1      52.416   8.049  17.442  0.00  0.00    +0.000 C 
BRANCH  23  24
ATOM     24  N   UNL     1      52.815   6.667  17.569  0.00  0.00    +0.000 N 
ATOM     25  C   UNL     1      52.905   6.043  18.788  0.00  0.00    +0.000 C 
ATOM     26  O   UNL     1      52.626   6.615  19.840  0.00  0.00    +0.000 OA
ATOM     27  H   UNL     1      53.326   6.276  16.785  0.00  0.00    +0.000 HD
BRANCH  25  28
ATOM     28  C   UNL     1      53.278   4.619  18.766  0.00  0.00    +0.000 A 
ATOM     29  C   UNL     1      54.471   4.197  19.341  0.00  0.00    +0.000 A 
ATOM     30  S   UNL     1      54.665   2.501  19.349  0.00  0.00    +0.000 S 
ATOM     31  C   UNL     1      53.189   2.272  18.534  0.00  0.00    +0.000 A 
ATOM     32  N   UNL     1      52.734   1.024  18.241  0.00  0.00    +0.000 NA
ATOM     33  C   UNL     1      51.609   1.002  17.605  0.00  0.00    +0.000 A 
ATOM     34  N   UNL     1      50.909   2.117  17.220  0.00  0.00    +0.000 N 
ATOM     35  C   UNL     1      51.340   3.394  17.480  0.00  0.00    +0.000 A 
ATOM     36  O   UNL     1      50.709   4.373  17.090  0.00  0.00    +0.000 OA
ATOM     37  C   UNL     1      52.572   3.474  18.238  0.00  0.00    +0.000 A 
ATOM     38  H   UNL     1      50.046   2.034  16.704  0.00  0.00    +0.000 HD
ENDBRANCH  25  28
ENDBRANCH  23  24
ENDBRANCH   7  23
TORSDOF 6
ENDMDL
MODEL 6
REMARK VINA RESULT:    -6.665      3.898      8.497
REMARK INTER + INTRA:         -10.356
REMARK INTER:                  -9.123
REMARK INTRA:                  -1.233
REMARK UNBOUND:                -1.354
REMARK  Name = 
REMARK  7 active torsions:
REMARK  status: ('A' for Active; 'I' for Inactive)
REMARK    1  A    between atoms: C_1  and  C_2
REMARK    2  A    between atoms: C_4  and  C_5
REMARK    3  A    between atoms: C_5  and  N_6
REMARK    4  A    between atoms: C_7  and  C_9
REMARK    5  A    between atoms: C_20  and  C_21
REMARK    6  A    between atoms: C_21  and  N_22
REMARK    7  A    between atoms: C_23  and  C_25
REMARK                            x       y       z     vdW  Elec       q    Type
REMARK                         _______ _______ _______ _____ _____    ______ ____
ROOT
ATOM      1  C   UNL     1      50.542   7.861  13.596  0.00  0.00    +0.000 C 
ATOM      2  C   UNL     1      49.830   8.084  14.904  0.00  0.00    +0.000 A 
ATOM      3  C   UNL     1      50.422   7.570  16.076  0.00  0.00    +0.000 A 
ATOM      4  C   UNL     1      49.809   7.696  17.330  0.00  0.00    +0.000 A 
ATOM      5  C   UNL     1      48.590   8.372  17.408  0.00  0.00    +0.000 A 
ATOM      6  C   UNL     1      47.984   8.878  16.252  0.00  0.00    +0.000 A 
ATOM      7  C   UNL     1      48.589   8.749  14.988  0.00  0.00    +0.000 A 
ENDROOT
BRANCH   4   8
ATOM      8  C   UNL     1      50.472   7.126  18.559  0.00  0.00    +0.000 C 
BRANCH   8   9
ATOM      9  N   UNL     1      51.085   5.847  18.288  0.00  0.00    +0.000 N 
ATOM     10  C   UNL     1      50.340   4.688  18.262  0.00  0.00    +0.000 C 
ATOM     11  O   UNL     1      49.126   4.655  18.419  0.00  0.00    +0.000 OA
ATOM     12  H   UNL     1      52.034   5.849  17.934  0.00  0.00    +0.000 HD
BRANCH  10  13
ATOM     13  C   UNL     1      51.093   3.437  18.005  0.00  0.00    +0.000 A 
ATOM     14  C   UNL     1      50.454   2.369  17.372  0.00  0.00    +0.000 A 
ATOM     15  N   UNL     1      51.020   1.164  17.070  0.00  0.00    +0.000 NA
ATOM     16  C   UNL     1      52.300   1.098  17.481  0.00  0.00    +0.000 A 
ATOM     17  N   UNL     1      53.155   0.041  17.348  0.00  0.00    +0.000 N 
ATOM     18  C   UNL     1      54.348   0.402  17.914  0.00  0.00    +0.000 A 
ATOM     19  N   UNL     1      54.312   1.623  18.401  0.00  0.00    +0.000 NA
ATOM     20  C   UNL     1      53.042   2.071  18.137  0.00  0.00    +0.000 A 
ATOM     21  C   UNL     1      52.423   3.292  18.420  0.00  0.00    +0.000 A 
ATOM     22  H   UNL     1      52.927  -0.838  16.910  0.00  0.00    +0.000 HD
ENDBRANCH  10  13
ENDBRANCH   8   9
ENDBRANCH   4   8
BRANCH   7  23
ATOM     23  C   UNL     1      47.849   9.292  13.780  0.00  0.00    +0.000 C 
BRANCH  23  24
ATOM     24  N   UNL     1      46.726   8.454  13.431  0.00  0.00    +0.000 N 
ATOM     25  C   UNL     1      46.771   7.572  12.381  0.00  0.00    +0.000 C 
ATOM     26  O   UNL     1      47.779   7.424  11.692  0.00  0.00    +0.000 OA
ATOM     27  H   UNL     1      45.820   8.760  13.770  0.00  0.00    +0.000 HD
BRANCH  25  28
ATOM     28  C   UNL     1      45.570   6.747  12.170  0.00  0.00    +0.000 A 
ATOM     29  C   UNL     1      44.402   7.321  11.684  0.00  0.00    +0.000 A 
ATOM     30  S   UNL     1      43.163   6.189  11.367  0.00  0.00    +0.000 S 
ATOM     31  C   UNL     1      44.124   4.899  11.919  0.00  0.00    +0.000 A 
ATOM     32  N   UNL     1      43.664   3.619  11.898  0.00  0.00    +0.000 NA
ATOM     33  C   UNL     1      44.494   2.745  12.364  0.00  0.00    +0.000 A 
ATOM     34  N   UNL     1      45.735   3.039  12.867  0.00  0.00    +0.000 N 
ATOM     35  C   UNL     1      46.233   4.317  12.924  0.00  0.00    +0.000 A 
ATOM     36  O   UNL     1      47.333   4.553  13.413  0.00  0.00    +0.000 OA
ATOM     37  C   UNL     1      45.361   5.330  12.364  0.00  0.00    +0.000 A 
ATOM     38  H   UNL     1      46.329   2.313  13.239  0.00  0.00    +0.000 HD
ENDBRANCH  25  28
ENDBRANCH  23  24
ENDBRANCH   7  23
TORSDOF 6
ENDMDL
MODEL 7
REMARK VINA RESULT:    -6.566      5.291      7.835
REMARK INTER + INTRA:         -10.223
REMARK INTER:                  -9.267
REMARK INTRA:                  -0.955
REMARK UNBOUND:                -1.354
REMARK  Name = 
REMARK  7 active torsions:
REMARK  status: ('A' for Active; 'I' for Inactive)
REMARK    1  A    between atoms: C_1  and  C_2
REMARK    2  A    between atoms: C_4  and  C_5
REMARK    3  A    between atoms: C_5  and  N_6
REMARK    4  A    between atoms: C_7  and  C_9
REMARK    5  A    between atoms: C_20  and  C_21
REMARK    6  A    between atoms: C_21  and  N_22
REMARK    7  A    between atoms: C_23  and  C_25
REMARK                            x       y       z     vdW  Elec       q    Type
REMARK                         _______ _______ _______ _____ _____    ______ ____
ROOT
ATOM      1  C   UNL     1      49.761  11.202  10.477  0.00  0.00    +0.000 C 
ATOM      2  C   UNL     1      49.929  10.128  11.517  0.00  0.00    +0.000 A 
ATOM      3  C   UNL     1      48.794   9.740  12.259  0.00  0.00    +0.000 A 
ATOM      4  C   UNL     1      48.868   8.778  13.275  0.00  0.00    +0.000 A 
ATOM      5  C   UNL     1      50.102   8.177  13.532  0.00  0.00    +0.000 A 
ATOM      6  C   UNL     1      51.240   8.559  12.812  0.00  0.00    +0.000 A 
ATOM      7  C   UNL     1      51.177   9.531  11.796  0.00  0.00    +0.000 A 
ENDROOT
BRANCH   4   8
ATOM      8  C   UNL     1      47.631   8.397  14.051  0.00  0.00    +0.000 C 
BRANCH   8   9
ATOM      9  N   UNL     1      47.033   7.188  13.536  0.00  0.00    +0.000 N 
ATOM     10  C   UNL     1      45.921   7.231  12.722  0.00  0.00    +0.000 C 
ATOM     11  O   UNL     1      45.393   8.270  12.345  0.00  0.00    +0.000 OA
ATOM     12  H   UNL     1      47.558   6.328  13.633  0.00  0.00    +0.000 HD
BRANCH  10  13
ATOM     13  C   UNL     1      45.384   5.920  12.287  0.00  0.00    +0.000 A 
ATOM     14  C   UNL     1      44.810   5.065  13.230  0.00  0.00    +0.000 A 
ATOM     15  N   UNL     1      44.275   3.836  12.974  0.00  0.00    +0.000 NA
ATOM     16  C   UNL     1      44.381   3.507  11.673  0.00  0.00    +0.000 A 
ATOM     17  N   UNL     1      43.958   2.353  11.078  0.00  0.00    +0.000 N 
ATOM     18  C   UNL     1      44.274   2.435   9.749  0.00  0.00    +0.000 A 
ATOM     19  N   UNL     1      44.872   3.569   9.455  0.00  0.00    +0.000 NA
ATOM     20  C   UNL     1      44.943   4.250  10.644  0.00  0.00    +0.000 A 
ATOM     21  C   UNL     1      45.474   5.506  10.952  0.00  0.00    +0.000 A 
ATOM     22  H   UNL     1      43.501   1.589  11.552  0.00  0.00    +0.000 HD
ENDBRANCH  10  13
ENDBRANCH   8   9
ENDBRANCH   4   8
BRANCH   7  23
ATOM     23  C   UNL     1      52.463   9.915  11.089  0.00  0.00    +0.000 C 
BRANCH  23  24
ATOM     24  N   UNL     1      52.577   9.255   9.809  0.00  0.00    +0.000 N 
ATOM     25  C   UNL     1      53.785   8.842   9.306  0.00  0.00    +0.000 C 
ATOM     26  O   UNL     1      54.837   8.985   9.927  0.00  0.00    +0.000 OA
ATOM     27  H   UNL     1      51.805   9.393   9.167  0.00  0.00    +0.000 HD
BRANCH  25  28
ATOM     28  C   UNL     1      53.747   8.140   8.013  0.00  0.00    +0.000 A 
ATOM     29  C   UNL     1      53.745   8.860   6.825  0.00  0.00    +0.000 A 
ATOM     30  S   UNL     1      53.846   7.880   5.430  0.00  0.00    +0.000 S 
ATOM     31  C   UNL     1      53.839   6.457   6.362  0.00  0.00    +0.000 A 
ATOM     32  N   UNL     1      53.928   5.232   5.776  0.00  0.00    +0.000 NA
ATOM     33  C   UNL     1      53.893   4.241   6.604  0.00  0.00    +0.000 A 
ATOM     34  N   UNL     1      53.758   4.363   7.963  0.00  0.00    +0.000 N 
ATOM     35  C   UNL     1      53.648   5.578   8.594  0.00  0.00    +0.000 A 
ATOM     36  O   UNL     1      53.492   5.655   9.809  0.00  0.00    +0.000 OA
ATOM     37  C   UNL     1      53.735   6.726   7.714  0.00  0.00    +0.000 A 
ATOM     38  H   UNL     1      53.714   3.548   8.555  0.00  0.00    +0.000 HD
ENDBRANCH  25  28
ENDBRANCH  23  24
ENDBRANCH   7  23
TORSDOF 6
ENDMDL
MODEL 8
REMARK VINA RESULT:    -6.138      5.233      7.460
REMARK INTER + INTRA:          -9.645
REMARK INTER:                  -9.199
REMARK INTRA:                  -0.445
REMARK UNBOUND:                -1.354
REMARK  Name = 
REMARK  7 active torsions:
REMARK  status: ('A' for Active; 'I' for Inactive)
REMARK    1  A    between atoms: C_1  and  C_2
REMARK    2  A    between atoms: C_4  and  C_5
REMARK    3  A    between atoms: C_5  and  N_6
REMARK    4  A    between atoms: C_7  and  C_9
REMARK    5  A    between atoms: C_20  and  C_21
REMARK    6  A    between atoms: C_21  and  N_22
REMARK    7  A    between atoms: C_23  and  C_25
REMARK                            x       y       z     vdW  Elec       q    Type
REMARK                         _______ _______ _______ _____ _____    ______ ____
ROOT
ATOM      1  C   UNL     1      48.115  10.972  12.930  0.00  0.00    +0.000 C 
ATOM      2  C   UNL     1      49.203  10.023  12.506  0.00  0.00    +0.000 A 
ATOM      3  C   UNL     1      50.104  10.450  11.509  0.00  0.00    +0.000 A 
ATOM      4  C   UNL     1      51.122   9.617  11.025  0.00  0.00    +0.000 A 
ATOM      5  C   UNL     1      51.249   8.339  11.573  0.00  0.00    +0.000 A 
ATOM      6  C   UNL     1      50.356   7.896  12.556  0.00  0.00    +0.000 A 
ATOM      7  C   UNL     1      49.326   8.723  13.041  0.00  0.00    +0.000 A 
ENDROOT
BRANCH   4   8
ATOM      8  C   UNL     1      52.060  10.110   9.952  0.00  0.00    +0.000 C 
BRANCH   8   9
ATOM      9  N   UNL     1      52.626   9.017   9.198  0.00  0.00    +0.000 N 
ATOM     10  C   UNL     1      52.841   9.120   7.840  0.00  0.00    +0.000 C 
ATOM     11  O   UNL     1      52.615  10.133   7.190  0.00  0.00    +0.000 OA
ATOM     12  H   UNL     1      53.034   8.250   9.720  0.00  0.00    +0.000 HD
BRANCH  10  13
ATOM     13  C   UNL     1      53.397   7.917   7.177  0.00  0.00    +0.000 A 
ATOM     14  C   UNL     1      54.347   8.067   6.165  0.00  0.00    +0.000 A 
ATOM     15  N   UNL     1      54.945   7.054   5.472  0.00  0.00    +0.000 NA
ATOM     16  C   UNL     1      54.490   5.848   5.861  0.00  0.00    +0.000 A 
ATOM     17  N   UNL     1      54.866   4.630   5.373  0.00  0.00    +0.000 N 
ATOM     18  C   UNL     1      54.147   3.677   6.043  0.00  0.00    +0.000 A 
ATOM     19  N   UNL     1      53.334   4.209   6.930  0.00  0.00    +0.000 NA
ATOM     20  C   UNL     1      53.539   5.562   6.831  0.00  0.00    +0.000 A 
ATOM     21  C   UNL     1      52.958   6.631   7.519  0.00  0.00    +0.000 A 
ATOM     22  H   UNL     1      55.550   4.481   4.647  0.00  0.00    +0.000 HD
ENDBRANCH  10  13
ENDBRANCH   8   9
ENDBRANCH   4   8
BRANCH   7  23
ATOM     23  C   UNL     1      48.378   8.154  14.079  0.00  0.00    +0.000 C 
BRANCH  23  24
ATOM     24  N   UNL     1      47.144   7.708  13.475  0.00  0.00    +0.000 N 
ATOM     25  C   UNL     1      47.015   6.462  12.915  0.00  0.00    +0.000 C 
ATOM     26  O   UNL     1      47.933   5.642  12.920  0.00  0.00    +0.000 OA
ATOM     27  H   UNL     1      46.497   8.436  13.193  0.00  0.00    +0.000 HD
BRANCH  25  28
ATOM     28  C   UNL     1      45.687   6.122  12.378  0.00  0.00    +0.000 A 
ATOM     29  C   UNL     1      44.877   7.112  11.836  0.00  0.00    +0.000 A 
ATOM     30  S   UNL     1      43.441   6.513  11.134  0.00  0.00    +0.000 S 
ATOM     31  C   UNL     1      43.823   4.916  11.578  0.00  0.00    +0.000 A 
ATOM     32  N   UNL     1      43.004   3.879  11.254  0.00  0.00    +0.000 NA
ATOM     33  C   UNL     1      43.412   2.727  11.671  0.00  0.00    +0.000 A 
ATOM     34  N   UNL     1      44.554   2.519  12.400  0.00  0.00    +0.000 N 
ATOM     35  C   UNL     1      45.400   3.538  12.765  0.00  0.00    +0.000 A 
ATOM     36  O   UNL     1      46.397   3.327  13.449  0.00  0.00    +0.000 OA
ATOM     37  C   UNL     1      45.016   4.847  12.275  0.00  0.00    +0.000 A 
ATOM     38  H   UNL     1      44.807   1.596  12.718  0.00  0.00    +0.000 HD
ENDBRANCH  25  28
ENDBRANCH  23  24
ENDBRANCH   7  23
TORSDOF 6
ENDMDL
MODEL 9
REMARK VINA RESULT:    -6.028      5.445      8.393
REMARK INTER + INTRA:          -9.497
REMARK INTER:                  -8.421
REMARK INTRA:                  -1.075
REMARK UNBOUND:                -1.354
REMARK  Name = 
REMARK  7 active torsions:
REMARK  status: ('A' for Active; 'I' for Inactive)
REMARK    1  A    between atoms: C_1  and  C_2
REMARK    2  A    between atoms: C_4  and  C_5
REMARK    3  A    between atoms: C_5  and  N_6
REMARK    4  A    between atoms: C_7  and  C_9
REMARK    5  A    between atoms: C_20  and  C_21
REMARK    6  A    between atoms: C_21  and  N_22
REMARK    7  A    between atoms: C_23  and  C_25
REMARK                            x       y       z     vdW  Elec       q    Type
REMARK                         _______ _______ _______ _____ _____    ______ ____
ROOT
ATOM      1  C   UNL     1      49.362  11.140  10.481  0.00  0.00    +0.000 C 
ATOM      2  C   UNL     1      49.803  10.327  11.669  0.00  0.00    +0.000 A 
ATOM      3  C   UNL     1      48.808   9.825  12.533  0.00  0.00    +0.000 A 
ATOM      4  C   UNL     1      49.130   9.094  13.685  0.00  0.00    +0.000 A 
ATOM      5  C   UNL     1      50.477   8.843  13.957  0.00  0.00    +0.000 A 
ATOM      6  C   UNL     1      51.476   9.344  13.114  0.00  0.00    +0.000 A 
ATOM      7  C   UNL     1      51.162  10.087  11.961  0.00  0.00    +0.000 A 
ENDROOT
BRANCH   4   8
ATOM      8  C   UNL     1      48.036   8.580  14.588  0.00  0.00    +0.000 C 
BRANCH   8   9
ATOM      9  N   UNL     1      47.116   7.726  13.876  0.00  0.00    +0.000 N 
ATOM     10  C   UNL     1      47.474   6.452  13.491  0.00  0.00    +0.000 C 
ATOM     11  O   UNL     1      48.557   5.941  13.752  0.00  0.00    +0.000 OA
ATOM     12  H   UNL     1      46.146   8.015  13.835  0.00  0.00    +0.000 HD
BRANCH  10  13
ATOM     13  C   UNL     1      46.452   5.689  12.739  0.00  0.00    +0.000 A 
ATOM     14  C   UNL     1      46.145   6.058  11.426  0.00  0.00    +0.000 A 
ATOM     15  N   UNL     1      45.232   5.447  10.617  0.00  0.00    +0.000 NA
ATOM     16  C   UNL     1      44.614   4.428  11.242  0.00  0.00    +0.000 A 
ATOM     17  N   UNL     1      43.645   3.613  10.729  0.00  0.00    +0.000 N 
ATOM     18  C   UNL     1      43.294   2.723  11.709  0.00  0.00    +0.000 A 
ATOM     19  N   UNL     1      43.977   2.917  12.816  0.00  0.00    +0.000 NA
ATOM     20  C   UNL     1      44.807   3.975  12.540  0.00  0.00    +0.000 A 
ATOM     21  C   UNL     1      45.757   4.626  13.331  0.00  0.00    +0.000 A 
ATOM     22  H   UNL     1      43.268   3.675   9.796  0.00  0.00    +0.000 HD
ENDBRANCH  10  13
ENDBRANCH   8   9
ENDBRANCH   4   8
BRANCH   7  23
ATOM     23  C   UNL     1      52.304  10.626  11.121  0.00  0.00    +0.000 C 
BRANCH  23  24
ATOM     24  N   UNL     1      52.542   9.798   9.962  0.00  0.00    +0.000 N 
ATOM     25  C   UNL     1      53.419   8.743   9.987  0.00  0.00    +0.000 C 
ATOM     26  O   UNL     1      54.034   8.424  11.004  0.00  0.00    +0.000 OA
ATOM     27  H   UNL     1      52.296  10.204   9.066  0.00  0.00    +0.000 HD
BRANCH  25  28
ATOM     28  C   UNL     1      53.527   7.955   8.748  0.00  0.00    +0.000 A 
ATOM     29  C   UNL     1      53.474   6.567   8.794  0.00  0.00    +0.000 A 
ATOM     30  S   UNL     1      53.468   5.831   7.253  0.00  0.00    +0.000 S 
ATOM     31  C   UNL     1      53.592   7.337   6.471  0.00  0.00    +0.000 A 
ATOM     32  N   UNL     1      53.614   7.426   5.114  0.00  0.00    +0.000 NA
ATOM     33  C   UNL     1      53.730   8.630   4.660  0.00  0.00    +0.000 A 
ATOM     34  N   UNL     1      53.844   9.751   5.441  0.00  0.00    +0.000 N 
ATOM     35  C   UNL     1      53.844   9.706   6.813  0.00  0.00    +0.000 A 
ATOM     36  O   UNL     1      53.985  10.723   7.486  0.00  0.00    +0.000 OA
ATOM     37  C   UNL     1      53.664   8.382   7.374  0.00  0.00    +0.000 A 
ATOM     38  H   UNL     1      53.956  10.664   5.026  0.00  0.00    +0.000 HD
ENDBRANCH  25  28
ENDBRANCH  23  24
ENDBRANCH   7  23
TORSDOF 6
ENDMDL
