MODEL 1
REMARK VINA RESULT:    -8.533      0.000      0.000
REMARK INTER + INTRA:         -11.735
REMARK INTER:                 -11.027
REMARK INTRA:                  -0.708
REMARK UNBOUND:                -0.708
REMARK  Name = 
REMARK  5 active torsions:
REMARK  status: ('A' for Active; 'I' for Inactive)
REMARK    1  A    between atoms: C_2  and  C_3
REMARK    2  A    between atoms: C_7  and  O_8
REMARK    3  A    between atoms: O_8  and  C_9
REMARK    4  A    between atoms: C_9  and  C_10
REMARK    5  A    between atoms: C_14  and  C_15
REMARK                            x       y       z     vdW  Elec       q    Type
REMARK                         _______ _______ _______ _____ _____    ______ ____
ROOT
ATOM      1  C   UNL     1      43.632   5.090  10.791  0.00  0.00    +0.000 A 
ATOM      2  C   UNL     1      42.960   4.137  11.544  0.00  0.00    +0.000 A 
ATOM      3  N   UNL     1      43.106   2.807  11.383  0.00  0.00    +0.000 NA
ATOM      4  C   UNL     1      43.953   2.403  10.406  0.00  0.00    +0.000 A 
ATOM      5  C   UNL     1      44.670   3.252   9.559  0.00  0.00    +0.000 A 
ATOM      6  C   UNL     1      44.481   4.627   9.778  0.00  0.00    +0.000 A 
ENDROOT
BRANCH   5   7
ATOM      7  C   UNL     1      45.575   2.738   8.510  0.00  0.00    +0.000 A 
ATOM      8  C   UNL     1      46.129   3.591   7.534  0.00  0.00    +0.000 A 
ATOM      9  C   UNL     1      46.980   3.107   6.535  0.00  0.00    +0.000 A 
ATOM     10  C   UNL     1      47.306   1.755   6.497  0.00  0.00    +0.000 A 
ATOM     11  C   UNL     1      46.774   0.903   7.452  0.00  0.00    +0.000 A 
ATOM     12  F   UNL     1      47.084  -0.400   7.421  0.00  0.00    +0.000 F 
ATOM     13  C   UNL     1      45.918   1.376   8.443  0.00  0.00    +0.000 A 
ENDBRANCH   5   7
BRANCH   1  14
ATOM     14  C   UNL     1      43.444   6.557  11.055  0.00  0.00    +0.000 C 
BRANCH  14  15
ATOM     15  O   UNL     1      43.998   6.881  12.329  0.00  0.00    +0.000 OA
BRANCH  15  20
ATOM     16  C   UNL     1      47.003   5.207  13.505  0.00  0.00    +0.000 A 
ATOM     17  C   UNL     1      48.024   5.998  12.972  0.00  0.00    +0.000 A 
ATOM     18  C   UNL     1      47.706   7.120  12.206  0.00  0.00    +0.000 A 
ATOM     19  C   UNL     1      46.368   7.454  11.969  0.00  0.00    +0.000 A 
ATOM     20  C   UNL     1      45.341   6.664  12.492  0.00  0.00    +0.000 A 
ATOM     21  C   UNL     1      45.665   5.541  13.259  0.00  0.00    +0.000 A 
BRANCH  16  23
ATOM     22  N   UNL     1      47.586   3.140  14.963  0.00  0.00    +0.000 NA
ATOM     23  C   UNL     1      47.325   4.062  14.306  0.00  0.00    +0.000 C 
ENDBRANCH  16  23
ENDBRANCH  15  20
ENDBRANCH  14  15
ENDBRANCH   1  14
TORSDOF 5
ENDMDL
MODEL 2
REMARK VINA RESULT:    -8.168      1.813      2.370
REMARK INTER + INTRA:         -11.263
REMARK INTER:                 -10.330
REMARK INTRA:                  -0.934
REMARK UNBOUND:                -0.708
REMARK  Name = 
REMARK  5 active torsions:
REMARK  status: ('A' for Active; 'I' for Inactive)
REMARK    1  A    between atoms: C_2  and  C_3
REMARK    2  A    between atoms: C_7  and  O_8
REMARK    3  A    between atoms: O_8  and  C_9
REMARK    4  A    between atoms: C_9  and  C_10
REMARK    5  A    between atoms: C_14  and  C_15
REMARK                            x       y       z     vdW  Elec       q    Type
REMARK                         _______ _______ _______ _____ _____    ______ ____
ROOT
ATOM      1  C   UNL     1      43.993   5.223  10.985  0.00  0.00    +0.000 A 
ATOM      2  C   UNL     1      43.188   4.307  11.647  0.00  0.00    +0.000 A 
ATOM      3  N   UNL     1      43.159   2.988  11.368  0.00  0.00    +0.000 NA
ATOM      4  C   UNL     1      43.961   2.562  10.362  0.00  0.00    +0.000 A 
ATOM      5  C   UNL     1      44.798   3.379   9.598  0.00  0.00    +0.000 A 
ATOM      6  C   UNL     1      44.790   4.742   9.938  0.00  0.00    +0.000 A 
ENDROOT
BRANCH   5   7
ATOM      7  C   UNL     1      45.644   2.843   8.511  0.00  0.00    +0.000 A 
ATOM      8  C   UNL     1      46.153   3.678   7.496  0.00  0.00    +0.000 A 
ATOM      9  C   UNL     1      46.948   3.173   6.462  0.00  0.00    +0.000 A 
ATOM     10  C   UNL     1      47.262   1.819   6.426  0.00  0.00    +0.000 A 
ATOM     11  C   UNL     1      46.773   0.984   7.419  0.00  0.00    +0.000 A 
ATOM     12  F   UNL     1      47.071  -0.321   7.391  0.00  0.00    +0.000 F 
ATOM     13  C   UNL     1      45.972   1.478   8.445  0.00  0.00    +0.000 A 
ENDBRANCH   5   7
BRANCH   1  14
ATOM     14  C   UNL     1      43.997   6.673  11.379  0.00  0.00    +0.000 C 
BRANCH  14  15
ATOM     15  O   UNL     1      44.583   6.809  12.672  0.00  0.00    +0.000 OA
BRANCH  15  20
ATOM     16  C   UNL     1      47.980   8.016  12.210  0.00  0.00    +0.000 A 
ATOM     17  C   UNL     1      48.750   6.981  12.750  0.00  0.00    +0.000 A 
ATOM     18  C   UNL     1      48.124   5.851  13.275  0.00  0.00    +0.000 A 
ATOM     19  C   UNL     1      46.729   5.751  13.266  0.00  0.00    +0.000 A 
ATOM     20  C   UNL     1      45.951   6.783  12.736  0.00  0.00    +0.000 A 
ATOM     21  C   UNL     1      46.584   7.915  12.210  0.00  0.00    +0.000 A 
BRANCH  16  23
ATOM     22  N   UNL     1      49.131  10.111  11.199  0.00  0.00    +0.000 NA
ATOM     23  C   UNL     1      48.620   9.172  11.654  0.00  0.00    +0.000 C 
ENDBRANCH  16  23
ENDBRANCH  15  20
ENDBRANCH  14  15
ENDBRANCH   1  14
TORSDOF 5
ENDMDL
MODEL 3
REMARK VINA RESULT:    -7.957      1.947      2.542
REMARK INTER + INTRA:         -10.990
REMARK INTER:                 -10.245
REMARK INTRA:                  -0.745
REMARK UNBOUND:                -0.708
REMARK  Name = 
REMARK  5 active torsions:
REMARK  status: ('A' for Active; 'I' for Inactive)
REMARK    1  A    between atoms: C_2  and  C_3
REMARK    2  A    between atoms: C_7  and  O_8
REMARK    3  A    between atoms: O_8  and  C_9
REMARK    4  A    between atoms: C_9  and  C_10
REMARK    5  A    between atoms: C_14  and  C_15
REMARK                            x       y       z     vdW  Elec       q    Type
REMARK                         _______ _______ _______ _____ _____    ______ ____
ROOT
ATOM      1  C   UNL     1      44.371   5.306  11.232  0.00  0.00    +0.000 A 
ATOM      2  C   UNL     1      43.398   4.483  11.779  0.00  0.00    +0.000 A 
ATOM      3  N   UNL     1      43.156   3.222  11.367  0.00  0.00    +0.000 NA
ATOM      4  C   UNL     1      43.913   2.763  10.341  0.00  0.00    +0.000 A 
ATOM      5  C   UNL     1      44.906   3.493   9.683  0.00  0.00    +0.000 A 
ATOM      6  C   UNL     1      45.115   4.798  10.160  0.00  0.00    +0.000 A 
ENDROOT
BRANCH   5   7
ATOM      7  C   UNL     1      45.691   2.926   8.567  0.00  0.00    +0.000 A 
ATOM      8  C   UNL     1      46.173   3.738   7.520  0.00  0.00    +0.000 A 
ATOM      9  C   UNL     1      46.910   3.204   6.458  0.00  0.00    +0.000 A 
ATOM     10  C   UNL     1      47.192   1.842   6.424  0.00  0.00    +0.000 A 
ATOM     11  C   UNL     1      46.729   1.030   7.448  0.00  0.00    +0.000 A 
ATOM     12  F   UNL     1      46.998  -0.282   7.423  0.00  0.00    +0.000 F 
ATOM     13  C   UNL     1      45.986   1.553   8.503  0.00  0.00    +0.000 A 
ENDBRANCH   5   7
BRANCH   1  14
ATOM     14  C   UNL     1      44.606   6.689  11.771  0.00  0.00    +0.000 C 
BRANCH  14  15
ATOM     15  O   UNL     1      45.833   6.709  12.497  0.00  0.00    +0.000 OA
BRANCH  15  20
ATOM     16  C   UNL     1      48.967   8.329  11.620  0.00  0.00    +0.000 A 
ATOM     17  C   UNL     1      48.632   9.685  11.654  0.00  0.00    +0.000 A 
ATOM     18  C   UNL     1      47.333  10.072  11.982  0.00  0.00    +0.000 A 
ATOM     19  C   UNL     1      46.364   9.106  12.275  0.00  0.00    +0.000 A 
ATOM     20  C   UNL     1      46.688   7.748  12.236  0.00  0.00    +0.000 A 
ATOM     21  C   UNL     1      47.992   7.365  11.906  0.00  0.00    +0.000 A 
BRANCH  16  23
ATOM     22  N   UNL     1      51.389   7.605  11.029  0.00  0.00    +0.000 NA
ATOM     23  C   UNL     1      50.306   7.927  11.299  0.00  0.00    +0.000 C 
ENDBRANCH  16  23
ENDBRANCH  15  20
ENDBRANCH  14  15
ENDBRANCH   1  14
TORSDOF 5
ENDMDL
MODEL 4
REMARK VINA RESULT:    -7.906      3.251      6.501
REMARK INTER + INTRA:         -10.925
REMARK INTER:                 -10.093
REMARK INTRA:                  -0.833
REMARK UNBOUND:                -0.708
REMARK  Name = 
REMARK  5 active torsions:
REMARK  status: ('A' for Active; 'I' for Inactive)
REMARK    1  A    between atoms: C_2  and  C_3
REMARK    2  A    between atoms: C_7  and  O_8
REMARK    3  A    between atoms: O_8  and  C_9
REMARK    4  A    between atoms: C_9  and  C_10
REMARK    5  A    between atoms: C_14  and  C_15
REMARK                            x       y       z     vdW  Elec       q    Type
REMARK                         _______ _______ _______ _____ _____    ______ ____
ROOT
ATOM      1  C   UNL     1      45.016   4.937  11.831  0.00  0.00    +0.000 A 
ATOM      2  C   UNL     1      44.992   4.052  12.899  0.00  0.00    +0.000 A 
ATOM      3  N   UNL     1      45.901   4.044  13.894  0.00  0.00    +0.000 NA
ATOM      4  C   UNL     1      46.901   4.955  13.811  0.00  0.00    +0.000 A 
ATOM      5  C   UNL     1      47.060   5.884  12.779  0.00  0.00    +0.000 A 
ATOM      6  C   UNL     1      46.080   5.848  11.774  0.00  0.00    +0.000 A 
ENDROOT
BRANCH   5   7
ATOM      7  C   UNL     1      48.180   6.848  12.753  0.00  0.00    +0.000 A 
ATOM      8  C   UNL     1      48.411   7.677  11.637  0.00  0.00    +0.000 A 
ATOM      9  C   UNL     1      49.475   8.585  11.605  0.00  0.00    +0.000 A 
ATOM     10  C   UNL     1      50.328   8.692  12.699  0.00  0.00    +0.000 A 
ATOM     11  C   UNL     1      50.112   7.887  13.807  0.00  0.00    +0.000 A 
ATOM     12  F   UNL     1      50.929   7.986  14.864  0.00  0.00    +0.000 F 
ATOM     13  C   UNL     1      49.062   6.974  13.841  0.00  0.00    +0.000 A 
ENDBRANCH   5   7
BRANCH   1  14
ATOM     14  C   UNL     1      43.945   4.908  10.778  0.00  0.00    +0.000 C 
BRANCH  14  15
ATOM     15  O   UNL     1      43.950   3.635  10.135  0.00  0.00    +0.000 OA
BRANCH  15  20
ATOM     16  C   UNL     1      46.207   1.758   7.991  0.00  0.00    +0.000 A 
ATOM     17  C   UNL     1      46.812   2.762   7.229  0.00  0.00    +0.000 A 
ATOM     18  C   UNL     1      46.466   4.097   7.438  0.00  0.00    +0.000 A 
ATOM     19  C   UNL     1      45.513   4.434   8.405  0.00  0.00    +0.000 A 
ATOM     20  C   UNL     1      44.897   3.437   9.165  0.00  0.00    +0.000 A 
ATOM     21  C   UNL     1      45.248   2.100   8.952  0.00  0.00    +0.000 A 
BRANCH  16  23
ATOM     22  N   UNL     1      46.868  -0.724   7.619  0.00  0.00    +0.000 NA
ATOM     23  C   UNL     1      46.571   0.386   7.791  0.00  0.00    +0.000 C 
ENDBRANCH  16  23
ENDBRANCH  15  20
ENDBRANCH  14  15
ENDBRANCH   1  14
TORSDOF 5
ENDMDL
MODEL 5
REMARK VINA RESULT:    -7.744      2.274      3.139
REMARK INTER + INTRA:         -10.715
REMARK INTER:                  -9.960
REMARK INTRA:                  -0.755
REMARK UNBOUND:                -0.708
REMARK  Name = 
REMARK  5 active torsions:
REMARK  status: ('A' for Active; 'I' for Inactive)
REMARK    1  A    between atoms: C_2  and  C_3
REMARK    2  A    between atoms: C_7  and  O_8
REMARK    3  A    between atoms: O_8  and  C_9
REMARK    4  A    between atoms: C_9  and  C_10
REMARK    5  A    between atoms: C_14  and  C_15
REMARK                            x       y       z     vdW  Elec       q    Type
REMARK                         _______ _______ _______ _____ _____    ______ ____
ROOT
ATOM      1  C   UNL     1      44.583   4.664  11.936  0.00  0.00    +0.000 A 
ATOM      2  C   UNL     1      43.521   3.845  12.291  0.00  0.00    +0.000 A 
ATOM      3  N   UNL     1      43.135   2.762  11.588  0.00  0.00    +0.000 NA
ATOM      4  C   UNL     1      43.833   2.490  10.458  0.00  0.00    +0.000 A 
ATOM      5  C   UNL     1      44.903   3.245   9.972  0.00  0.00    +0.000 A 
ATOM      6  C   UNL     1      45.262   4.358  10.750  0.00  0.00    +0.000 A 
ENDROOT
BRANCH   5   7
ATOM      7  C   UNL     1      45.616   2.889   8.728  0.00  0.00    +0.000 A 
ATOM      8  C   UNL     1      45.955   3.867   7.770  0.00  0.00    +0.000 A 
ATOM      9  C   UNL     1      46.624   3.533   6.587  0.00  0.00    +0.000 A 
ATOM     10  C   UNL     1      46.980   2.211   6.341  0.00  0.00    +0.000 A 
ATOM     11  C   UNL     1      46.658   1.238   7.275  0.00  0.00    +0.000 A 
ATOM     12  F   UNL     1      46.999  -0.037   7.045  0.00  0.00    +0.000 F 
ATOM     13  C   UNL     1      45.984   1.561   8.449  0.00  0.00    +0.000 A 
ENDBRANCH   5   7
BRANCH   1  14
ATOM     14  C   UNL     1      44.976   5.835  12.792  0.00  0.00    +0.000 C 
BRANCH  14  15
ATOM     15  O   UNL     1      46.357   6.126  12.586  0.00  0.00    +0.000 OA
BRANCH  15  20
ATOM     16  C   UNL     1      45.785   9.670  12.013  0.00  0.00    +0.000 A 
ATOM     17  C   UNL     1      47.082  10.173  11.881  0.00  0.00    +0.000 A 
ATOM     18  C   UNL     1      48.175   9.312  11.980  0.00  0.00    +0.000 A 
ATOM     19  C   UNL     1      47.976   7.947  12.212  0.00  0.00    +0.000 A 
ATOM     20  C   UNL     1      46.683   7.436  12.353  0.00  0.00    +0.000 A 
ATOM     21  C   UNL     1      45.591   8.304  12.253  0.00  0.00    +0.000 A 
BRANCH  16  23
ATOM     22  N   UNL     1      43.751  11.268  11.798  0.00  0.00    +0.000 NA
ATOM     23  C   UNL     1      44.658  10.549  11.896  0.00  0.00    +0.000 C 
ENDBRANCH  16  23
ENDBRANCH  15  20
ENDBRANCH  14  15
ENDBRANCH   1  14
TORSDOF 5
ENDMDL
MODEL 6
REMARK VINA RESULT:    -7.742      1.741      2.238
REMARK INTER + INTRA:         -10.713
REMARK INTER:                 -10.008
REMARK INTRA:                  -0.706
REMARK UNBOUND:                -0.708
REMARK  Name = 
REMARK  5 active torsions:
REMARK  status: ('A' for Active; 'I' for Inactive)
REMARK    1  A    between atoms: C_2  and  C_3
REMARK    2  A    between atoms: C_7  and  O_8
REMARK    3  A    between atoms: O_8  and  C_9
REMARK    4  A    between atoms: C_9  and  C_10
REMARK    5  A    between atoms: C_14  and  C_15
REMARK                            x       y       z     vdW  Elec       q    Type
REMARK                         _______ _______ _______ _____ _____    ______ ____
ROOT
ATOM      1  C   UNL     1      44.957   5.813  11.975  0.00  0.00    +0.000 A 
ATOM      2  C   UNL     1      43.613   5.550  12.198  0.00  0.00    +0.000 A 
ATOM      3  N   UNL     1      42.885   4.672  11.479  0.00  0.00    +0.000 NA
ATOM      4  C   UNL     1      43.527   4.034  10.470  0.00  0.00    +0.000 A 
ATOM      5  C   UNL     1      44.866   4.223  10.120  0.00  0.00    +0.000 A 
ATOM      6  C   UNL     1      45.574   5.146  10.908  0.00  0.00    +0.000 A 
ENDROOT
BRANCH   5   7
ATOM      7  C   UNL     1      45.499   3.493   9.002  0.00  0.00    +0.000 A 
ATOM      8  C   UNL     1      46.035   4.173   7.890  0.00  0.00    +0.000 A 
ATOM      9  C   UNL     1      46.629   3.484   6.826  0.00  0.00    +0.000 A 
ATOM     10  C   UNL     1      46.709   2.096   6.857  0.00  0.00    +0.000 A 
ATOM     11  C   UNL     1      46.190   1.412   7.946  0.00  0.00    +0.000 A 
ATOM     12  F   UNL     1      46.265   0.075   7.983  0.00  0.00    +0.000 F 
ATOM     13  C   UNL     1      45.589   2.090   9.003  0.00  0.00    +0.000 A 
ENDBRANCH   5   7
BRANCH   1  14
ATOM     14  C   UNL     1      45.710   6.780  12.844  0.00  0.00    +0.000 C 
BRANCH  14  15
ATOM     15  O   UNL     1      47.098   6.456  12.814  0.00  0.00    +0.000 OA
BRANCH  15  20
ATOM     16  C   UNL     1      47.750   4.899  16.033  0.00  0.00    +0.000 A 
ATOM     17  C   UNL     1      48.807   5.662  16.536  0.00  0.00    +0.000 A 
ATOM     18  C   UNL     1      49.312   6.726  15.788  0.00  0.00    +0.000 A 
ATOM     19  C   UNL     1      48.767   7.028  14.536  0.00  0.00    +0.000 A 
ATOM     20  C   UNL     1      47.715   6.266  14.023  0.00  0.00    +0.000 A 
ATOM     21  C   UNL     1      47.211   5.201  14.776  0.00  0.00    +0.000 A 
BRANCH  16  23
ATOM     22  N   UNL     1      46.785   2.941  17.439  0.00  0.00    +0.000 NA
ATOM     23  C   UNL     1      47.216   3.815  16.805  0.00  0.00    +0.000 C 
ENDBRANCH  16  23
ENDBRANCH  15  20
ENDBRANCH  14  15
ENDBRANCH   1  14
TORSDOF 5
ENDMDL
MODEL 7
REMARK VINA RESULT:    -7.545      1.485      1.732
REMARK INTER + INTRA:         -10.458
REMARK INTER:                  -9.745
REMARK INTRA:                  -0.713
REMARK UNBOUND:                -0.708
REMARK  Name = 
REMARK  5 active torsions:
REMARK  status: ('A' for Active; 'I' for Inactive)
REMARK    1  A    between atoms: C_2  and  C_3
REMARK    2  A    between atoms: C_7  and  O_8
REMARK    3  A    between atoms: O_8  and  C_9
REMARK    4  A    between atoms: C_9  and  C_10
REMARK    5  A    between atoms: C_14  and  C_15
REMARK                            x       y       z     vdW  Elec       q    Type
REMARK                         _______ _______ _______ _____ _____    ______ ____
ROOT
ATOM      1  C   UNL     1      44.393   5.358  11.468  0.00  0.00    +0.000 A 
ATOM      2  C   UNL     1      43.356   4.572  11.950  0.00  0.00    +0.000 A 
ATOM      3  N   UNL     1      43.038   3.358  11.459  0.00  0.00    +0.000 NA
ATOM      4  C   UNL     1      43.781   2.910  10.418  0.00  0.00    +0.000 A 
ATOM      5  C   UNL     1      44.832   3.608   9.819  0.00  0.00    +0.000 A 
ATOM      6  C   UNL     1      45.120   4.865  10.377  0.00  0.00    +0.000 A 
ENDROOT
BRANCH   5   7
ATOM      7  C   UNL     1      45.597   3.057   8.682  0.00  0.00    +0.000 A 
ATOM      8  C   UNL     1      46.033   3.878   7.622  0.00  0.00    +0.000 A 
ATOM      9  C   UNL     1      46.752   3.358   6.540  0.00  0.00    +0.000 A 
ATOM     10  C   UNL     1      47.060   2.002   6.499  0.00  0.00    +0.000 A 
ATOM     11  C   UNL     1      46.642   1.182   7.535  0.00  0.00    +0.000 A 
ATOM     12  F   UNL     1      46.936  -0.125   7.502  0.00  0.00    +0.000 F 
ATOM     13  C   UNL     1      45.918   1.690   8.610  0.00  0.00    +0.000 A 
ENDBRANCH   5   7
BRANCH   1  14
ATOM     14  C   UNL     1      44.710   6.687  12.093  0.00  0.00    +0.000 C 
BRANCH  14  15
ATOM     15  O   UNL     1      45.863   7.241  11.461  0.00  0.00    +0.000 OA
BRANCH  15  20
ATOM     16  C   UNL     1      48.269   7.497  14.174  0.00  0.00    +0.000 A 
ATOM     17  C   UNL     1      48.701   8.822  14.077  0.00  0.00    +0.000 A 
ATOM     18  C   UNL     1      48.176   9.654  13.088  0.00  0.00    +0.000 A 
ATOM     19  C   UNL     1      47.219   9.165  12.192  0.00  0.00    +0.000 A 
ATOM     20  C   UNL     1      46.787   7.839  12.277  0.00  0.00    +0.000 A 
ATOM     21  C   UNL     1      47.317   7.010  13.270  0.00  0.00    +0.000 A 
BRANCH  16  23
ATOM     22  N   UNL     1      49.228   5.957  16.030  0.00  0.00    +0.000 NA
ATOM     23  C   UNL     1      48.794   6.643  15.199  0.00  0.00    +0.000 C 
ENDBRANCH  16  23
ENDBRANCH  15  20
ENDBRANCH  14  15
ENDBRANCH   1  14
TORSDOF 5
ENDMDL
MODEL 8
REMARK VINA RESULT:    -6.908      2.656      3.769
REMARK INTER + INTRA:          -9.635
REMARK INTER:                  -9.065
REMARK INTRA:                  -0.570
REMARK UNBOUND:                -0.708
REMARK  Name = 
REMARK  5 active torsions:
REMARK  status: ('A' for Active; 'I' for Inactive)
REMARK    1  A    between atoms: C_2  and  C_3
REMARK    2  A    between atoms: C_7  and  O_8
REMARK    3  A    between atoms: O_8  and  C_9
REMARK    4  A    between atoms: C_9  and  C_10
REMARK    5  A    between atoms: C_14  and  C_15
REMARK                            x       y       z     vdW  Elec       q    Type
REMARK                         _______ _______ _______ _____ _____    ______ ____
ROOT
ATOM      1  C   UNL     1      45.189   4.640  13.109  0.00  0.00    +0.000 A 
ATOM      2  C   UNL     1      43.833   4.927  13.164  0.00  0.00    +0.000 A 
ATOM      3  N   UNL     1      42.981   4.748  12.134  0.00  0.00    +0.000 NA
ATOM      4  C   UNL     1      43.513   4.274  10.982  0.00  0.00    +0.000 A 
ATOM      5  C   UNL     1      44.862   3.970  10.782  0.00  0.00    +0.000 A 
ATOM      6  C   UNL     1      45.699   4.173  11.891  0.00  0.00    +0.000 A 
ENDROOT
BRANCH   5   7
ATOM      7  C   UNL     1      45.372   3.459   9.492  0.00  0.00    +0.000 A 
ATOM      8  C   UNL     1      45.690   4.330   8.431  0.00  0.00    +0.000 A 
ATOM      9  C   UNL     1      46.166   3.849   7.206  0.00  0.00    +0.000 A 
ATOM     10  C   UNL     1      46.345   2.483   7.020  0.00  0.00    +0.000 A 
ATOM     11  C   UNL     1      46.042   1.613   8.055  0.00  0.00    +0.000 A 
ATOM     12  F   UNL     1      46.213   0.296   7.883  0.00  0.00    +0.000 F 
ATOM     13  C   UNL     1      45.558   2.083   9.273  0.00  0.00    +0.000 A 
ENDBRANCH   5   7
BRANCH   1  14
ATOM     14  C   UNL     1      46.069   4.833  14.312  0.00  0.00    +0.000 C 
BRANCH  14  15
ATOM     15  O   UNL     1      46.816   3.640  14.545  0.00  0.00    +0.000 OA
BRANCH  15  20
ATOM     16  C   UNL     1      47.807   4.601  17.908  0.00  0.00    +0.000 A 
ATOM     17  C   UNL     1      48.724   3.605  18.254  0.00  0.00    +0.000 A 
ATOM     18  C   UNL     1      49.025   2.591  17.345  0.00  0.00    +0.000 A 
ATOM     19  C   UNL     1      48.410   2.567  16.089  0.00  0.00    +0.000 A 
ATOM     20  C   UNL     1      47.486   3.554  15.737  0.00  0.00    +0.000 A 
ATOM     21  C   UNL     1      47.188   4.569  16.652  0.00  0.00    +0.000 A 
BRANCH  16  23
ATOM     22  N   UNL     1      47.267   6.502  19.591  0.00  0.00    +0.000 NA
ATOM     23  C   UNL     1      47.506   5.654  18.834  0.00  0.00    +0.000 C 
ENDBRANCH  16  23
ENDBRANCH  15  20
ENDBRANCH  14  15
ENDBRANCH   1  14
TORSDOF 5
ENDMDL
MODEL 9
REMARK VINA RESULT:    -6.773      2.847      4.439
REMARK INTER + INTRA:          -9.461
REMARK INTER:                  -8.602
REMARK INTRA:                  -0.859
REMARK UNBOUND:                -0.708
REMARK  Name = 
REMARK  5 active torsions:
REMARK  status: ('A' for Active; 'I' for Inactive)
REMARK    1  A    between atoms: C_2  and  C_3
REMARK    2  A    between atoms: C_7  and  O_8
REMARK    3  A    between atoms: O_8  and  C_9
REMARK    4  A    between atoms: C_9  and  C_10
REMARK    5  A    between atoms: C_14  and  C_15
REMARK                            x       y       z     vdW  Elec       q    Type
REMARK                         _______ _______ _______ _____ _____    ______ ____
ROOT
ATOM      1  C   UNL     1      47.269   7.778  12.500  0.00  0.00    +0.000 A 
ATOM      2  C   UNL     1      46.295   8.762  12.581  0.00  0.00    +0.000 A 
ATOM      3  N   UNL     1      45.056   8.642  12.064  0.00  0.00    +0.000 NA
ATOM      4  C   UNL     1      44.778   7.485  11.413  0.00  0.00    +0.000 A 
ATOM      5  C   UNL     1      45.673   6.427  11.235  0.00  0.00    +0.000 A 
ATOM      6  C   UNL     1      46.946   6.608  11.800  0.00  0.00    +0.000 A 
ENDROOT
BRANCH   5   7
ATOM      7  C   UNL     1      45.301   5.195  10.509  0.00  0.00    +0.000 A 
ATOM      8  C   UNL     1      44.582   4.159  11.139  0.00  0.00    +0.000 A 
ATOM      9  C   UNL     1      44.234   2.988  10.457  0.00  0.00    +0.000 A 
ATOM     10  C   UNL     1      44.589   2.832   9.121  0.00  0.00    +0.000 A 
ATOM     11  C   UNL     1      45.292   3.843   8.485  0.00  0.00    +0.000 A 
ATOM     12  F   UNL     1      45.636   3.701   7.198  0.00  0.00    +0.000 F 
ATOM     13  C   UNL     1      45.650   5.007   9.160  0.00  0.00    +0.000 A 
ENDBRANCH   5   7
BRANCH   1  14
ATOM     14  C   UNL     1      48.618   7.971  13.134  0.00  0.00    +0.000 C 
BRANCH  14  15
ATOM     15  O   UNL     1      49.042   6.744  13.723  0.00  0.00    +0.000 OA
BRANCH  15  20
ATOM     16  C   UNL     1      47.902   5.148  16.783  0.00  0.00    +0.000 A 
ATOM     17  C   UNL     1      48.289   6.061  17.768  0.00  0.00    +0.000 A 
ATOM     18  C   UNL     1      48.940   7.239  17.406  0.00  0.00    +0.000 A 
ATOM     19  C   UNL     1      49.210   7.509  16.060  0.00  0.00    +0.000 A 
ATOM     20  C   UNL     1      48.833   6.599  15.069  0.00  0.00    +0.000 A 
ATOM     21  C   UNL     1      48.180   5.419  15.438  0.00  0.00    +0.000 A 
BRANCH  16  23
ATOM     22  N   UNL     1      46.671   2.962  17.450  0.00  0.00    +0.000 NA
ATOM     23  C   UNL     1      47.217   3.942  17.150  0.00  0.00    +0.000 C 
ENDBRANCH  16  23
ENDBRANCH  15  20
ENDBRANCH  14  15
ENDBRANCH   1  14
TORSDOF 5
ENDMDL
