MODEL 1
REMARK VINA RESULT:    -7.661      0.000      0.000
REMARK INTER + INTRA:         -11.455
REMARK INTER:                 -10.796
REMARK INTRA:                  -0.658
REMARK UNBOUND:                -0.658
REMARK  Name = 
REMARK  8 active torsions:
REMARK  status: ('A' for Active; 'I' for Inactive)
REMARK    1  A    between atoms: C_1  and  S_2
REMARK    2  A    between atoms: S_2  and  C_3
REMARK    3  A    between atoms: C_5  and  C_6
REMARK    4  A    between atoms: C_11  and  N_12
REMARK    5  A    between atoms: N_12  and  C_13
REMARK    6  A    between atoms: C_13  and  C_14
REMARK    7  A    between atoms: C_17  and  O_18
REMARK    8  A    between atoms: O_18  and  C_19
REMARK                            x       y       z     vdW  Elec       q    Type
REMARK                         _______ _______ _______ _____ _____    ______ ____
ROOT
ATOM      1  N   UNL     1      44.685   6.127  12.075  0.00  0.00    +0.000 N 
ATOM      2  H   UNL     1      44.447   6.912  11.467  0.00  0.00    +0.000 HD
ENDROOT
BRANCH   1   8
ATOM      3  C   UNL     1      46.408   7.673  12.886  0.00  0.00    +0.000 A 
ATOM      4  C   UNL     1      47.643   7.899  13.498  0.00  0.00    +0.000 A 
ATOM      5  C   UNL     1      48.342   6.805  13.979  0.00  0.00    +0.000 A 
ATOM      6  N   UNL     1      47.887   5.524  13.907  0.00  0.00    +0.000 NA
ATOM      7  C   UNL     1      46.697   5.344  13.281  0.00  0.00    +0.000 A 
ATOM      8  C   UNL     1      45.930   6.357  12.708  0.00  0.00    +0.000 A 
BRANCH   5   9
ATOM      9  C   UNL     1      49.681   7.003  14.625  0.00  0.00    +0.000 C 
ATOM     10  N   UNL     1      50.574   7.752  13.906  0.00  0.00    +0.000 N 
ATOM     11  O   UNL     1      49.964   6.533  15.715  0.00  0.00    +0.000 OA
ATOM     12  H   UNL     1      50.298   8.140  13.009  0.00  0.00    +0.000 HD
ATOM     13  H   UNL     1      51.487   7.943  14.294  0.00  0.00    +0.000 HD
ENDBRANCH   5   9
BRANCH   3  15
ATOM     14  C   UNL     1      46.853  10.258  12.048  0.00  0.00    +0.000 C 
ATOM     15  S   UNL     1      45.478   9.096  12.299  0.00  0.00    +0.000 S 
ENDBRANCH   3  15
ENDBRANCH   1   8
BRANCH   1  16
ATOM     16  C   UNL     1      44.226   4.795  11.637  0.00  0.00    +0.000 C 
ATOM     17  C   UNL     1      42.724   4.528  11.758  0.00  0.00    +0.000 C 
ATOM     18  C   UNL     1      43.674   3.832  12.675  0.00  0.00    +0.000 C 
BRANCH  16  19
ATOM     19  C   UNL     1      44.848   4.256  10.345  0.00  0.00    +0.000 A 
ATOM     20  C   UNL     1      44.701   2.918   9.938  0.00  0.00    +0.000 A 
ATOM     21  C   UNL     1      45.127   2.476   8.676  0.00  0.00    +0.000 A 
ATOM     22  C   UNL     1      45.700   3.372   7.780  0.00  0.00    +0.000 A 
ATOM     23  C   UNL     1      45.947   4.678   8.203  0.00  0.00    +0.000 A 
ATOM     24  C   UNL     1      45.525   5.114   9.464  0.00  0.00    +0.000 A 
BRANCH  22  25
ATOM     25  O   UNL     1      46.099   3.090   6.510  0.00  0.00    +0.000 OA
BRANCH  25  26
ATOM     26  C   UNL     1      47.293   2.346   6.307  0.00  0.00    +0.000 C 
ATOM     27  F   UNL     1      48.278   2.622   7.188  0.00  0.00    +0.000 F 
ATOM     28  F   UNL     1      47.002   1.028   6.423  0.00  0.00    +0.000 F 
ATOM     29  F   UNL     1      47.752   2.565   5.056  0.00  0.00    +0.000 F 
ENDBRANCH  25  26
ENDBRANCH  22  25
ENDBRANCH  16  19
ENDBRANCH   1  16
TORSDOF 7
ENDMDL
MODEL 2
REMARK VINA RESULT:    -7.459      1.687      1.978
REMARK INTER + INTRA:         -11.170
REMARK INTER:                 -10.498
REMARK INTRA:                  -0.672
REMARK UNBOUND:                -0.658
REMARK  Name = 
REMARK  8 active torsions:
REMARK  status: ('A' for Active; 'I' for Inactive)
REMARK    1  A    between atoms: C_1  and  S_2
REMARK    2  A    between atoms: S_2  and  C_3
REMARK    3  A    between atoms: C_5  and  C_6
REMARK    4  A    between atoms: C_11  and  N_12
REMARK    5  A    between atoms: N_12  and  C_13
REMARK    6  A    between atoms: C_13  and  C_14
REMARK    7  A    between atoms: C_17  and  O_18
REMARK    8  A    between atoms: O_18  and  C_19
REMARK                            x       y       z     vdW  Elec       q    Type
REMARK                         _______ _______ _______ _____ _____    ______ ____
ROOT
ATOM      1  N   UNL     1      45.356   6.100  12.028  0.00  0.00    +0.000 N 
ATOM      2  H   UNL     1      45.901   6.772  11.486  0.00  0.00    +0.000 HD
ENDROOT
BRANCH   1   8
ATOM      3  C   UNL     1      47.106   6.460  13.709  0.00  0.00    +0.000 A 
ATOM      4  C   UNL     1      47.854   6.005  14.797  0.00  0.00    +0.000 A 
ATOM      5  C   UNL     1      47.536   4.769  15.335  0.00  0.00    +0.000 A 
ATOM      6  N   UNL     1      46.524   3.982  14.878  0.00  0.00    +0.000 NA
ATOM      7  C   UNL     1      45.840   4.448  13.803  0.00  0.00    +0.000 A 
ATOM      8  C   UNL     1      46.103   5.645  13.140  0.00  0.00    +0.000 A 
BRANCH   5   9
ATOM      9  C   UNL     1      48.327   4.236  16.492  0.00  0.00    +0.000 C 
ATOM     10  N   UNL     1      47.672   3.328  17.281  0.00  0.00    +0.000 N 
ATOM     11  O   UNL     1      49.475   4.581  16.723  0.00  0.00    +0.000 OA
ATOM     12  H   UNL     1      46.723   3.052  17.049  0.00  0.00    +0.000 HD
ATOM     13  H   UNL     1      48.156   2.911  18.065  0.00  0.00    +0.000 HD
ENDBRANCH   5   9
BRANCH   3  15
ATOM     14  C   UNL     1      48.711   7.595  11.780  0.00  0.00    +0.000 C 
ATOM     15  S   UNL     1      47.489   8.083  13.035  0.00  0.00    +0.000 S 
ENDBRANCH   3  15
ENDBRANCH   1   8
BRANCH   1  16
ATOM     16  C   UNL     1      44.421   5.248  11.269  0.00  0.00    +0.000 C 
ATOM     17  C   UNL     1      43.020   5.820  11.044  0.00  0.00    +0.000 C 
ATOM     18  C   UNL     1      43.208   4.674  11.981  0.00  0.00    +0.000 C 
BRANCH  16  19
ATOM     19  C   UNL     1      45.001   4.532  10.045  0.00  0.00    +0.000 A 
ATOM     20  C   UNL     1      44.656   3.212   9.709  0.00  0.00    +0.000 A 
ATOM     21  C   UNL     1      45.057   2.624   8.499  0.00  0.00    +0.000 A 
ATOM     22  C   UNL     1      45.806   3.356   7.584  0.00  0.00    +0.000 A 
ATOM     23  C   UNL     1      46.244   4.632   7.942  0.00  0.00    +0.000 A 
ATOM     24  C   UNL     1      45.846   5.211   9.151  0.00  0.00    +0.000 A 
BRANCH  22  25
ATOM     25  O   UNL     1      46.206   2.931   6.355  0.00  0.00    +0.000 OA
BRANCH  25  26
ATOM     26  C   UNL     1      47.339   2.078   6.252  0.00  0.00    +0.000 C 
ATOM     27  F   UNL     1      48.276   2.279   7.201  0.00  0.00    +0.000 F 
ATOM     28  F   UNL     1      46.920   0.794   6.359  0.00  0.00    +0.000 F 
ATOM     29  F   UNL     1      47.908   2.232   5.037  0.00  0.00    +0.000 F 
ENDBRANCH  25  26
ENDBRANCH  22  25
ENDBRANCH  16  19
ENDBRANCH   1  16
TORSDOF 7
ENDMDL
MODEL 3
REMARK VINA RESULT:    -7.100      1.850      2.444
REMARK INTER + INTRA:         -10.663
REMARK INTER:                 -10.206
REMARK INTRA:                  -0.458
REMARK UNBOUND:                -0.658
REMARK  Name = 
REMARK  8 active torsions:
REMARK  status: ('A' for Active; 'I' for Inactive)
REMARK    1  A    between atoms: C_1  and  S_2
REMARK    2  A    between atoms: S_2  and  C_3
REMARK    3  A    between atoms: C_5  and  C_6
REMARK    4  A    between atoms: C_11  and  N_12
REMARK    5  A    between atoms: N_12  and  C_13
REMARK    6  A    between atoms: C_13  and  C_14
REMARK    7  A    between atoms: C_17  and  O_18
REMARK    8  A    between atoms: O_18  and  C_19
REMARK                            x       y       z     vdW  Elec       q    Type
REMARK                         _______ _______ _______ _____ _____    ______ ____
ROOT
ATOM      1  N   UNL     1      44.732   5.407  12.831  0.00  0.00    +0.000 N 
ATOM      2  H   UNL     1      44.234   5.589  13.703  0.00  0.00    +0.000 HD
ENDROOT
BRANCH   1   8
ATOM      3  C   UNL     1      47.131   5.494  13.335  0.00  0.00    +0.000 A 
ATOM      4  C   UNL     1      48.346   6.184  13.335  0.00  0.00    +0.000 A 
ATOM      5  C   UNL     1      48.381   7.442  12.755  0.00  0.00    +0.000 A 
ATOM      6  N   UNL     1      47.306   8.035  12.167  0.00  0.00    +0.000 NA
ATOM      7  C   UNL     1      46.140   7.344  12.213  0.00  0.00    +0.000 A 
ATOM      8  C   UNL     1      45.966   6.100  12.817  0.00  0.00    +0.000 A 
BRANCH   5   9
ATOM      9  C   UNL     1      49.661   8.223  12.752  0.00  0.00    +0.000 C 
ATOM     10  N   UNL     1      50.711   7.631  13.402  0.00  0.00    +0.000 N 
ATOM     11  O   UNL     1      49.768   9.312  12.212  0.00  0.00    +0.000 OA
ATOM     12  H   UNL     1      50.589   6.716  13.826  0.00  0.00    +0.000 HD
ATOM     13  H   UNL     1      51.610   8.093  13.417  0.00  0.00    +0.000 HD
ENDBRANCH   5   9
BRANCH   3  15
ATOM     14  C   UNL     1      47.295   4.282  15.803  0.00  0.00    +0.000 C 
ATOM     15  S   UNL     1      47.092   3.845  14.050  0.00  0.00    +0.000 S 
ENDBRANCH   3  15
ENDBRANCH   1   8
BRANCH   1  16
ATOM     16  C   UNL     1      43.900   5.197  11.630  0.00  0.00    +0.000 C 
ATOM     17  C   UNL     1      43.032   6.380  11.199  0.00  0.00    +0.000 C 
ATOM     18  C   UNL     1      42.389   5.166  11.782  0.00  0.00    +0.000 C 
BRANCH  16  19
ATOM     19  C   UNL     1      44.569   4.462  10.465  0.00  0.00    +0.000 A 
ATOM     20  C   UNL     1      44.372   3.091  10.225  0.00  0.00    +0.000 A 
ATOM     21  C   UNL     1      44.848   2.464   9.062  0.00  0.00    +0.000 A 
ATOM     22  C   UNL     1      45.526   3.205   8.100  0.00  0.00    +0.000 A 
ATOM     23  C   UNL     1      45.820   4.543   8.366  0.00  0.00    +0.000 A 
ATOM     24  C   UNL     1      45.347   5.161   9.528  0.00  0.00    +0.000 A 
BRANCH  22  25
ATOM     25  O   UNL     1      45.985   2.738   6.907  0.00  0.00    +0.000 OA
BRANCH  25  26
ATOM     26  C   UNL     1      47.262   2.116   6.851  0.00  0.00    +0.000 C 
ATOM     27  F   UNL     1      47.392   1.038   7.652  0.00  0.00    +0.000 F 
ATOM     28  F   UNL     1      47.485   1.708   5.579  0.00  0.00    +0.000 F 
ATOM     29  F   UNL     1      48.215   3.017   7.174  0.00  0.00    +0.000 F 
ENDBRANCH  25  26
ENDBRANCH  22  25
ENDBRANCH  16  19
ENDBRANCH   1  16
TORSDOF 7
ENDMDL
MODEL 4
REMARK VINA RESULT:    -7.024      2.373      3.163
REMARK INTER + INTRA:         -10.557
REMARK INTER:                 -10.684
REMARK INTRA:                   0.127
REMARK UNBOUND:                -0.658
REMARK  Name = 
REMARK  8 active torsions:
REMARK  status: ('A' for Active; 'I' for Inactive)
REMARK    1  A    between atoms: C_1  and  S_2
REMARK    2  A    between atoms: S_2  and  C_3
REMARK    3  A    between atoms: C_5  and  C_6
REMARK    4  A    between atoms: C_11  and  N_12
REMARK    5  A    between atoms: N_12  and  C_13
REMARK    6  A    between atoms: C_13  and  C_14
REMARK    7  A    between atoms: C_17  and  O_18
REMARK    8  A    between atoms: O_18  and  C_19
REMARK                            x       y       z     vdW  Elec       q    Type
REMARK                         _______ _______ _______ _____ _____    ______ ____
ROOT
ATOM      1  N   UNL     1      45.459   5.075  12.360  0.00  0.00    +0.000 N 
ATOM      2  H   UNL     1      45.734   4.775  13.296  0.00  0.00    +0.000 HD
ENDROOT
BRANCH   1   8
ATOM      3  C   UNL     1      46.504   7.238  12.858  0.00  0.00    +0.000 A 
ATOM      4  C   UNL     1      46.496   8.633  12.790  0.00  0.00    +0.000 A 
ATOM      5  C   UNL     1      45.471   9.245  12.086  0.00  0.00    +0.000 A 
ATOM      6  N   UNL     1      44.486   8.564  11.439  0.00  0.00    +0.000 NA
ATOM      7  C   UNL     1      44.515   7.213  11.553  0.00  0.00    +0.000 A 
ATOM      8  C   UNL     1      45.458   6.488  12.279  0.00  0.00    +0.000 A 
BRANCH   5   9
ATOM      9  C   UNL     1      45.414  10.741  12.006  0.00  0.00    +0.000 C 
ATOM     10  N   UNL     1      46.599  11.386  12.246  0.00  0.00    +0.000 N 
ATOM     11  O   UNL     1      44.389  11.350  11.747  0.00  0.00    +0.000 OA
ATOM     12  H   UNL     1      47.435  10.846  12.443  0.00  0.00    +0.000 HD
ATOM     13  H   UNL     1      46.636  12.394  12.185  0.00  0.00    +0.000 HD
ENDBRANCH   5   9
BRANCH   3  15
ATOM     14  C   UNL     1      49.257   7.149  12.821  0.00  0.00    +0.000 C 
ATOM     15  S   UNL     1      47.856   6.439  13.736  0.00  0.00    +0.000 S 
ENDBRANCH   3  15
ENDBRANCH   1   8
BRANCH   1  16
ATOM     16  C   UNL     1      44.492   4.215  11.652  0.00  0.00    +0.000 C 
ATOM     17  C   UNL     1      43.015   4.566  11.843  0.00  0.00    +0.000 C 
ATOM     18  C   UNL     1      43.566   3.328  12.467  0.00  0.00    +0.000 C 
BRANCH  16  19
ATOM     19  C   UNL     1      44.856   3.829  10.215  0.00  0.00    +0.000 A 
ATOM     20  C   UNL     1      45.348   4.761   9.285  0.00  0.00    +0.000 A 
ATOM     21  C   UNL     1      45.838   4.369   8.030  0.00  0.00    +0.000 A 
ATOM     22  C   UNL     1      45.861   3.023   7.680  0.00  0.00    +0.000 A 
ATOM     23  C   UNL     1      45.284   2.094   8.547  0.00  0.00    +0.000 A 
ATOM     24  C   UNL     1      44.792   2.491   9.795  0.00  0.00    +0.000 A 
BRANCH  22  25
ATOM     25  O   UNL     1      46.362   2.503   6.526  0.00  0.00    +0.000 OA
BRANCH  25  26
ATOM     26  C   UNL     1      47.735   2.141   6.468  0.00  0.00    +0.000 C 
ATOM     27  F   UNL     1      48.577   3.069   6.967  0.00  0.00    +0.000 F 
ATOM     28  F   UNL     1      47.910   1.005   7.186  0.00  0.00    +0.000 F 
ATOM     29  F   UNL     1      48.078   1.883   5.188  0.00  0.00    +0.000 F 
ENDBRANCH  25  26
ENDBRANCH  22  25
ENDBRANCH  16  19
ENDBRANCH   1  16
TORSDOF 7
ENDMDL
MODEL 5
REMARK VINA RESULT:    -6.514      2.732      3.987
REMARK INTER + INTRA:          -9.838
REMARK INTER:                  -9.167
REMARK INTRA:                  -0.671
REMARK UNBOUND:                -0.658
REMARK  Name = 
REMARK  8 active torsions:
REMARK  status: ('A' for Active; 'I' for Inactive)
REMARK    1  A    between atoms: C_1  and  S_2
REMARK    2  A    between atoms: S_2  and  C_3
REMARK    3  A    between atoms: C_5  and  C_6
REMARK    4  A    between atoms: C_11  and  N_12
REMARK    5  A    between atoms: N_12  and  C_13
REMARK    6  A    between atoms: C_13  and  C_14
REMARK    7  A    between atoms: C_17  and  O_18
REMARK    8  A    between atoms: O_18  and  C_19
REMARK                            x       y       z     vdW  Elec       q    Type
REMARK                         _______ _______ _______ _____ _____    ______ ____
ROOT
ATOM      1  N   UNL     1      47.830   6.863  13.172  0.00  0.00    +0.000 N 
ATOM      2  H   UNL     1      48.568   6.579  12.527  0.00  0.00    +0.000 HD
ENDROOT
BRANCH   1   8
ATOM      3  C   UNL     1      48.546   6.482  15.487  0.00  0.00    +0.000 A 
ATOM      4  C   UNL     1      48.583   5.678  16.628  0.00  0.00    +0.000 A 
ATOM      5  C   UNL     1      47.869   4.490  16.611  0.00  0.00    +0.000 A 
ATOM      6  N   UNL     1      47.118   4.073  15.556  0.00  0.00    +0.000 NA
ATOM      7  C   UNL     1      47.132   4.870  14.458  0.00  0.00    +0.000 A 
ATOM      8  C   UNL     1      47.854   6.055  14.333  0.00  0.00    +0.000 A 
BRANCH   5   9
ATOM      9  C   UNL     1      47.898   3.588  17.809  0.00  0.00    +0.000 C 
ATOM     10  N   UNL     1      46.931   2.618  17.836  0.00  0.00    +0.000 N 
ATOM     11  O   UNL     1      48.721   3.704  18.703  0.00  0.00    +0.000 OA
ATOM     12  H   UNL     1      46.274   2.542  17.066  0.00  0.00    +0.000 HD
ATOM     13  H   UNL     1      46.909   1.962  18.603  0.00  0.00    +0.000 HD
ENDBRANCH   5   9
BRANCH   3  15
ATOM     14  C   UNL     1      48.181   9.078  16.330  0.00  0.00    +0.000 C 
ATOM     15  S   UNL     1      49.437   8.044  15.521  0.00  0.00    +0.000 S 
ENDBRANCH   3  15
ENDBRANCH   1   8
BRANCH   1  16
ATOM     16  C   UNL     1      46.590   7.381  12.564  0.00  0.00    +0.000 C 
ATOM     17  C   UNL     1      46.658   8.804  12.005  0.00  0.00    +0.000 C 
ATOM     18  C   UNL     1      45.867   8.534  13.241  0.00  0.00    +0.000 C 
BRANCH  16  19
ATOM     19  C   UNL     1      45.813   6.404  11.676  0.00  0.00    +0.000 A 
ATOM     20  C   UNL     1      46.192   6.122  10.353  0.00  0.00    +0.000 A 
ATOM     21  C   UNL     1      45.581   5.103   9.606  0.00  0.00    +0.000 A 
ATOM     22  C   UNL     1      44.578   4.327  10.177  0.00  0.00    +0.000 A 
ATOM     23  C   UNL     1      44.117   4.657  11.452  0.00  0.00    +0.000 A 
ATOM     24  C   UNL     1      44.727   5.677  12.190  0.00  0.00    +0.000 A 
BRANCH  22  25
ATOM     25  O   UNL     1      43.946   3.275   9.589  0.00  0.00    +0.000 OA
BRANCH  25  26
ATOM     26  C   UNL     1      44.715   2.319   8.871  0.00  0.00    +0.000 C 
ATOM     27  F   UNL     1      45.942   2.090   9.385  0.00  0.00    +0.000 F 
ATOM     28  F   UNL     1      44.047   1.140   8.874  0.00  0.00    +0.000 F 
ATOM     29  F   UNL     1      44.847   2.721   7.588  0.00  0.00    +0.000 F 
ENDBRANCH  25  26
ENDBRANCH  22  25
ENDBRANCH  16  19
ENDBRANCH   1  16
TORSDOF 7
ENDMDL
MODEL 6
REMARK VINA RESULT:    -6.182      2.908      4.457
REMARK INTER + INTRA:          -9.370
REMARK INTER:                  -8.987
REMARK INTRA:                  -0.383
REMARK UNBOUND:                -0.658
REMARK  Name = 
REMARK  8 active torsions:
REMARK  status: ('A' for Active; 'I' for Inactive)
REMARK    1  A    between atoms: C_1  and  S_2
REMARK    2  A    between atoms: S_2  and  C_3
REMARK    3  A    between atoms: C_5  and  C_6
REMARK    4  A    between atoms: C_11  and  N_12
REMARK    5  A    between atoms: N_12  and  C_13
REMARK    6  A    between atoms: C_13  and  C_14
REMARK    7  A    between atoms: C_17  and  O_18
REMARK    8  A    between atoms: O_18  and  C_19
REMARK                            x       y       z     vdW  Elec       q    Type
REMARK                         _______ _______ _______ _____ _____    ______ ____
ROOT
ATOM      1  N   UNL     1      47.486   6.990  14.437  0.00  0.00    +0.000 N 
ATOM      2  H   UNL     1      47.341   7.936  14.794  0.00  0.00    +0.000 HD
ENDROOT
BRANCH   1   8
ATOM      3  C   UNL     1      49.394   6.791  15.965  0.00  0.00    +0.000 A 
ATOM      4  C   UNL     1      50.158   6.038  16.858  0.00  0.00    +0.000 A 
ATOM      5  C   UNL     1      49.723   4.760  17.172  0.00  0.00    +0.000 A 
ATOM      6  N   UNL     1      48.584   4.206  16.676  0.00  0.00    +0.000 NA
ATOM      7  C   UNL     1      47.885   4.960  15.790  0.00  0.00    +0.000 A 
ATOM      8  C   UNL     1      48.251   6.232  15.354  0.00  0.00    +0.000 A 
BRANCH   5   9
ATOM      9  C   UNL     1      50.525   3.911  18.113  0.00  0.00    +0.000 C 
ATOM     10  N   UNL     1      50.481   2.564  17.868  0.00  0.00    +0.000 N 
ATOM     11  O   UNL     1      51.175   4.379  19.034  0.00  0.00    +0.000 OA
ATOM     12  H   UNL     1      49.943   2.213  17.083  0.00  0.00    +0.000 HD
ATOM     13  H   UNL     1      51.018   1.937  18.451  0.00  0.00    +0.000 HD
ENDBRANCH   5   9
BRANCH   3  15
ATOM     14  C   UNL     1      51.615   8.103  14.999  0.00  0.00    +0.000 C 
ATOM     15  S   UNL     1      49.934   8.465  15.588  0.00  0.00    +0.000 S 
ENDBRANCH   3  15
ENDBRANCH   1   8
BRANCH   1  16
ATOM     16  C   UNL     1      47.592   6.851  12.972  0.00  0.00    +0.000 C 
ATOM     17  C   UNL     1      49.007   6.690  12.412  0.00  0.00    +0.000 C 
ATOM     18  C   UNL     1      48.260   7.960  12.176  0.00  0.00    +0.000 C 
BRANCH  16  19
ATOM     19  C   UNL     1      46.555   5.944  12.302  0.00  0.00    +0.000 A 
ATOM     20  C   UNL     1      46.005   6.230  11.041  0.00  0.00    +0.000 A 
ATOM     21  C   UNL     1      45.188   5.312  10.362  0.00  0.00    +0.000 A 
ATOM     22  C   UNL     1      44.914   4.072  10.928  0.00  0.00    +0.000 A 
ATOM     23  C   UNL     1      45.365   3.809  12.221  0.00  0.00    +0.000 A 
ATOM     24  C   UNL     1      46.175   4.729  12.896  0.00  0.00    +0.000 A 
BRANCH  22  25
ATOM     25  O   UNL     1      44.191   3.072  10.354  0.00  0.00    +0.000 OA
BRANCH  25  26
ATOM     26  C   UNL     1      44.678   2.456   9.169  0.00  0.00    +0.000 C 
ATOM     27  F   UNL     1      44.372   3.116   8.033  0.00  0.00    +0.000 F 
ATOM     28  F   UNL     1      46.029   2.385   9.247  0.00  0.00    +0.000 F 
ATOM     29  F   UNL     1      44.197   1.197   9.087  0.00  0.00    +0.000 F 
ENDBRANCH  25  26
ENDBRANCH  22  25
ENDBRANCH  16  19
ENDBRANCH   1  16
TORSDOF 7
ENDMDL
MODEL 7
REMARK VINA RESULT:    -5.932      4.212      5.960
REMARK INTER + INTRA:          -9.018
REMARK INTER:                  -7.888
REMARK INTRA:                  -1.129
REMARK UNBOUND:                -0.658
REMARK  Name = 
REMARK  8 active torsions:
REMARK  status: ('A' for Active; 'I' for Inactive)
REMARK    1  A    between atoms: C_1  and  S_2
REMARK    2  A    between atoms: S_2  and  C_3
REMARK    3  A    between atoms: C_5  and  C_6
REMARK    4  A    between atoms: C_11  and  N_12
REMARK    5  A    between atoms: N_12  and  C_13
REMARK    6  A    between atoms: C_13  and  C_14
REMARK    7  A    between atoms: C_17  and  O_18
REMARK    8  A    between atoms: O_18  and  C_19
REMARK                            x       y       z     vdW  Elec       q    Type
REMARK                         _______ _______ _______ _____ _____    ______ ____
ROOT
ATOM      1  N   UNL     1      49.210   7.357  14.662  0.00  0.00    +0.000 N 
ATOM      2  H   UNL     1      49.806   6.545  14.828  0.00  0.00    +0.000 HD
ENDROOT
BRANCH   1   8
ATOM      3  C   UNL     1      48.774   7.088  17.061  0.00  0.00    +0.000 A 
ATOM      4  C   UNL     1      48.293   7.595  18.270  0.00  0.00    +0.000 A 
ATOM      5  C   UNL     1      47.844   8.905  18.295  0.00  0.00    +0.000 A 
ATOM      6  N   UNL     1      47.864   9.733  17.214  0.00  0.00    +0.000 NA
ATOM      7  C   UNL     1      48.313   9.194  16.053  0.00  0.00    +0.000 A 
ATOM      8  C   UNL     1      48.736   7.876  15.890  0.00  0.00    +0.000 A 
BRANCH   5   9
ATOM      9  C   UNL     1      47.301   9.482  19.568  0.00  0.00    +0.000 C 
ATOM     10  N   UNL     1      47.389   8.666  20.665  0.00  0.00    +0.000 N 
ATOM     11  O   UNL     1      46.812  10.598  19.632  0.00  0.00    +0.000 OA
ATOM     12  H   UNL     1      47.817   7.749  20.577  0.00  0.00    +0.000 HD
ATOM     13  H   UNL     1      47.063   9.001  21.560  0.00  0.00    +0.000 HD
ENDBRANCH   5   9
BRANCH   3  15
ATOM     14  C   UNL     1      47.849   4.515  17.386  0.00  0.00    +0.000 C 
ATOM     15  S   UNL     1      49.397   5.401  17.036  0.00  0.00    +0.000 S 
ENDBRANCH   3  15
ENDBRANCH   1   8
BRANCH   1  16
ATOM     16  C   UNL     1      48.416   7.347  13.419  0.00  0.00    +0.000 C 
ATOM     17  C   UNL     1      49.211   7.281  12.113  0.00  0.00    +0.000 C 
ATOM     18  C   UNL     1      48.503   8.541  12.483  0.00  0.00    +0.000 C 
BRANCH  16  19
ATOM     19  C   UNL     1      47.162   6.467  13.425  0.00  0.00    +0.000 A 
ATOM     20  C   UNL     1      45.924   6.915  12.934  0.00  0.00    +0.000 A 
ATOM     21  C   UNL     1      44.827   6.051  12.786  0.00  0.00    +0.000 A 
ATOM     22  C   UNL     1      44.951   4.706  13.116  0.00  0.00    +0.000 A 
ATOM     23  C   UNL     1      46.138   4.264  13.700  0.00  0.00    +0.000 A 
ATOM     24  C   UNL     1      47.227   5.130  13.849  0.00  0.00    +0.000 A 
BRANCH  22  25
ATOM     25  O   UNL     1      43.991   3.753  12.965  0.00  0.00    +0.000 OA
BRANCH  25  26
ATOM     26  C   UNL     1      43.751   3.209  11.674  0.00  0.00    +0.000 C 
ATOM     27  F   UNL     1      44.868   2.945  10.965  0.00  0.00    +0.000 F 
ATOM     28  F   UNL     1      43.076   2.043  11.819  0.00  0.00    +0.000 F 
ATOM     29  F   UNL     1      42.974   4.056  10.966  0.00  0.00    +0.000 F 
ENDBRANCH  25  26
ENDBRANCH  22  25
ENDBRANCH  16  19
ENDBRANCH   1  16
TORSDOF 7
ENDMDL
MODEL 8
REMARK VINA RESULT:    -5.891      3.416      5.109
REMARK INTER + INTRA:          -8.960
REMARK INTER:                  -8.025
REMARK INTRA:                  -0.935
REMARK UNBOUND:                -0.658
REMARK  Name = 
REMARK  8 active torsions:
REMARK  status: ('A' for Active; 'I' for Inactive)
REMARK    1  A    between atoms: C_1  and  S_2
REMARK    2  A    between atoms: S_2  and  C_3
REMARK    3  A    between atoms: C_5  and  C_6
REMARK    4  A    between atoms: C_11  and  N_12
REMARK    5  A    between atoms: N_12  and  C_13
REMARK    6  A    between atoms: C_13  and  C_14
REMARK    7  A    between atoms: C_17  and  O_18
REMARK    8  A    between atoms: O_18  and  C_19
REMARK                            x       y       z     vdW  Elec       q    Type
REMARK                         _______ _______ _______ _____ _____    ______ ____
ROOT
ATOM      1  N   UNL     1      48.634   6.646  14.000  0.00  0.00    +0.000 N 
ATOM      2  H   UNL     1      49.046   5.943  13.384  0.00  0.00    +0.000 HD
ENDROOT
BRANCH   1   8
ATOM      3  C   UNL     1      49.406   6.752  16.326  0.00  0.00    +0.000 A 
ATOM      4  C   UNL     1      49.375   6.270  17.636  0.00  0.00    +0.000 A 
ATOM      5  C   UNL     1      48.482   5.255  17.937  0.00  0.00    +0.000 A 
ATOM      6  N   UNL     1      47.619   4.714  17.034  0.00  0.00    +0.000 NA
ATOM      7  C   UNL     1      47.699   5.191  15.767  0.00  0.00    +0.000 A 
ATOM      8  C   UNL     1      48.593   6.167  15.331  0.00  0.00    +0.000 A 
BRANCH   5   9
ATOM      9  C   UNL     1      48.432   4.696  19.328  0.00  0.00    +0.000 C 
ATOM     10  N   UNL     1      48.494   3.330  19.413  0.00  0.00    +0.000 N 
ATOM     11  O   UNL     1      48.343   5.401  20.320  0.00  0.00    +0.000 OA
ATOM     12  H   UNL     1      48.584   2.777  18.567  0.00  0.00    +0.000 HD
ATOM     13  H   UNL     1      48.488   2.889  20.322  0.00  0.00    +0.000 HD
ENDBRANCH   5   9
BRANCH   3  15
ATOM     14  C   UNL     1      52.089   7.161  15.863  0.00  0.00    +0.000 C 
ATOM     15  S   UNL     1      50.534   8.099  15.943  0.00  0.00    +0.000 S 
ENDBRANCH   3  15
ENDBRANCH   1   8
BRANCH   1  16
ATOM     16  C   UNL     1      47.593   7.508  13.409  0.00  0.00    +0.000 C 
ATOM     17  C   UNL     1      48.074   8.833  12.814  0.00  0.00    +0.000 C 
ATOM     18  C   UNL     1      47.276   8.836  14.075  0.00  0.00    +0.000 C 
BRANCH  16  19
ATOM     19  C   UNL     1      46.529   6.800  12.564  0.00  0.00    +0.000 A 
ATOM     20  C   UNL     1      46.697   6.555  11.191  0.00  0.00    +0.000 A 
ATOM     21  C   UNL     1      45.797   5.759  10.464  0.00  0.00    +0.000 A 
ATOM     22  C   UNL     1      44.710   5.174  11.104  0.00  0.00    +0.000 A 
ATOM     23  C   UNL     1      44.470   5.488  12.441  0.00  0.00    +0.000 A 
ATOM     24  C   UNL     1      45.366   6.286  13.161  0.00  0.00    +0.000 A 
BRANCH  22  25
ATOM     25  O   UNL     1      43.801   4.337  10.534  0.00  0.00    +0.000 OA
BRANCH  25  26
ATOM     26  C   UNL     1      44.037   2.935  10.562  0.00  0.00    +0.000 C 
ATOM     27  F   UNL     1      43.185   2.243  11.346  0.00  0.00    +0.000 F 
ATOM     28  F   UNL     1      43.912   2.454   9.301  0.00  0.00    +0.000 F 
ATOM     29  F   UNL     1      45.301   2.700  10.975  0.00  0.00    +0.000 F 
ENDBRANCH  25  26
ENDBRANCH  22  25
ENDBRANCH  16  19
ENDBRANCH   1  16
TORSDOF 7
ENDMDL
MODEL 9
REMARK VINA RESULT:    -5.817      5.708      7.508
REMARK INTER + INTRA:          -8.856
REMARK INTER:                  -8.206
REMARK INTRA:                  -0.650
REMARK UNBOUND:                -0.658
REMARK  Name = 
REMARK  8 active torsions:
REMARK  status: ('A' for Active; 'I' for Inactive)
REMARK    1  A    between atoms: C_1  and  S_2
REMARK    2  A    between atoms: S_2  and  C_3
REMARK    3  A    between atoms: C_5  and  C_6
REMARK    4  A    between atoms: C_11  and  N_12
REMARK    5  A    between atoms: N_12  and  C_13
REMARK    6  A    between atoms: C_13  and  C_14
REMARK    7  A    between atoms: C_17  and  O_18
REMARK    8  A    between atoms: O_18  and  C_19
REMARK                            x       y       z     vdW  Elec       q    Type
REMARK                         _______ _______ _______ _____ _____    ______ ____
ROOT
ATOM      1  N   UNL     1      49.612   4.546  17.359  0.00  0.00    +0.000 N 
ATOM      2  H   UNL     1      50.059   5.384  16.984  0.00  0.00    +0.000 HD
ENDROOT
BRANCH   1   8
ATOM      3  C   UNL     1      51.764   3.708  18.185  0.00  0.00    +0.000 A 
ATOM      4  C   UNL     1      52.704   2.680  18.296  0.00  0.00    +0.000 A 
ATOM      5  C   UNL     1      52.383   1.444  17.758  0.00  0.00    +0.000 A 
ATOM      6  N   UNL     1      51.199   1.168  17.147  0.00  0.00    +0.000 NA
ATOM      7  C   UNL     1      50.326   2.201  17.036  0.00  0.00    +0.000 A 
ATOM      8  C   UNL     1      50.557   3.500  17.484  0.00  0.00    +0.000 A 
BRANCH   5   9
ATOM      9  C   UNL     1      53.372   0.319  17.839  0.00  0.00    +0.000 C 
ATOM     10  N   UNL     1      53.739  -0.225  16.637  0.00  0.00    +0.000 N 
ATOM     11  O   UNL     1      53.822  -0.089  18.897  0.00  0.00    +0.000 OA
ATOM     12  H   UNL     1      53.356   0.151  15.776  0.00  0.00    +0.000 HD
ATOM     13  H   UNL     1      54.420  -0.972  16.618  0.00  0.00    +0.000 HD
ENDBRANCH   5   9
BRANCH   3  15
ATOM     14  C   UNL     1      52.016   4.857  20.675  0.00  0.00    +0.000 C 
ATOM     15  S   UNL     1      52.160   5.302  18.918  0.00  0.00    +0.000 S 
ENDBRANCH   3  15
ENDBRANCH   1   8
BRANCH   1  16
ATOM     16  C   UNL     1      48.201   4.331  16.985  0.00  0.00    +0.000 C 
ATOM     17  C   UNL     1      47.158   4.776  18.013  0.00  0.00    +0.000 C 
ATOM     18  C   UNL     1      47.380   3.321  17.769  0.00  0.00    +0.000 C 
BRANCH  16  19
ATOM     19  C   UNL     1      47.826   4.666  15.538  0.00  0.00    +0.000 A 
ATOM     20  C   UNL     1      47.106   3.778  14.721  0.00  0.00    +0.000 A 
ATOM     21  C   UNL     1      46.621   4.158  13.459  0.00  0.00    +0.000 A 
ATOM     22  C   UNL     1      46.835   5.450  12.991  0.00  0.00    +0.000 A 
ATOM     23  C   UNL     1      47.633   6.313  13.741  0.00  0.00    +0.000 A 
ATOM     24  C   UNL     1      48.119   5.928  14.996  0.00  0.00    +0.000 A 
BRANCH  22  25
ATOM     25  O   UNL     1      46.370   5.964  11.820  0.00  0.00    +0.000 OA
BRANCH  25  26
ATOM     26  C   UNL     1      45.027   6.424  11.749  0.00  0.00    +0.000 C 
ATOM     27  F   UNL     1      44.380   6.437  12.933  0.00  0.00    +0.000 F 
ATOM     28  F   UNL     1      45.033   7.694  11.275  0.00  0.00    +0.000 F 
ATOM     29  F   UNL     1      44.334   5.657  10.881  0.00  0.00    +0.000 F 
ENDBRANCH  25  26
ENDBRANCH  22  25
ENDBRANCH  16  19
ENDBRANCH   1  16
TORSDOF 7
ENDMDL
