MODEL 1
REMARK VINA RESULT:    -7.627      0.000      0.000
REMARK INTER + INTRA:         -11.044
REMARK INTER:                 -10.303
REMARK INTRA:                  -0.741
REMARK UNBOUND:                -0.741
REMARK  Name = 
REMARK  9 active torsions:
REMARK  status: ('A' for Active; 'I' for Inactive)
REMARK    1  A    between atoms: C_1  and  C_2
REMARK    2  A    between atoms: C_3  and  C_4
REMARK    3  A    between atoms: C_4  and  C_5
REMARK    4  A    between atoms: C_4  and  C_6
REMARK    5  A    between atoms: C_4  and  C_17
REMARK    6  A    between atoms: C_6  and  N_7
REMARK    7  A    between atoms: C_11  and  C_12
REMARK    8  A    between atoms: C_21  and  O_22
REMARK    9  A    between atoms: O_22  and  C_23
REMARK                            x       y       z     vdW  Elec       q    Type
REMARK                         _______ _______ _______ _____ _____    ______ ____
ROOT
ATOM      1  C   UNL     1      43.373   4.625  10.888  0.00  0.00    +0.000 C 
ENDROOT
BRANCH   1   2
ATOM      2  N   UNL     1      44.034   5.044   9.653  0.00  0.00    +0.000 N 
ATOM      3  C   UNL     1      44.916   4.206   9.008  0.00  0.00    +0.000 A 
ATOM      4  C   UNL     1      44.804   2.823   9.033  0.00  0.00    +0.000 A 
ATOM      5  C   UNL     1      45.693   2.043   8.298  0.00  0.00    +0.000 A 
ATOM      6  C   UNL     1      46.669   2.658   7.519  0.00  0.00    +0.000 A 
ATOM      7  C   UNL     1      46.711   4.043   7.545  0.00  0.00    +0.000 A 
ATOM      8  N   UNL     1      45.869   4.818   8.277  0.00  0.00    +0.000 NA
ATOM      9  H   UNL     1      44.408   5.992   9.643  0.00  0.00    +0.000 HD
BRANCH   6  10
ATOM     10  C   UNL     1      47.574   1.809   6.710  0.00  0.00    +0.000 C 
ATOM     11  N   UNL     1      48.662   2.377   6.111  0.00  0.00    +0.000 N 
ATOM     12  O   UNL     1      47.357   0.611   6.569  0.00  0.00    +0.000 OA
ATOM     13  H   UNL     1      48.930   3.348   6.158  0.00  0.00    +0.000 HD
ATOM     14  H   UNL     1      49.240   1.758   5.558  0.00  0.00    +0.000 HD
ENDBRANCH   6  10
ENDBRANCH   1   2
BRANCH   1  15
ATOM     15  C   UNL     1      43.877   5.411  12.145  0.00  0.00    +0.000 C 
ATOM     16  C   UNL     1      42.769   5.321  13.219  0.00  0.00    +0.000 C 
BRANCH  15  17
ATOM     17  C   UNL     1      44.191   6.899  11.869  0.00  0.00    +0.000 A 
ATOM     18  C   UNL     1      45.393   7.480  12.317  0.00  0.00    +0.000 A 
ATOM     19  C   UNL     1      45.709   8.811  12.036  0.00  0.00    +0.000 A 
ATOM     20  C   UNL     1      44.825   9.605  11.310  0.00  0.00    +0.000 A 
ATOM     21  C   UNL     1      43.621   9.066  10.865  0.00  0.00    +0.000 A 
ATOM     22  C   UNL     1      43.300   7.736  11.169  0.00  0.00    +0.000 A 
BRANCH  21  23
ATOM     23  O   UNL     1      42.673   9.752  10.153  0.00  0.00    +0.000 OA
ATOM     24  C   UNL     1      41.750  10.504  10.935  0.00  0.00    +0.000 C 
ENDBRANCH  21  23
ENDBRANCH  15  17
BRANCH  15  27
ATOM     25  C   UNL     1      47.172   3.514  13.809  0.00  0.00    +0.000 C 
ATOM     26  C   UNL     1      46.037   4.149  13.139  0.00  0.00    +0.000 C 
ATOM     27  C   UNL     1      45.084   4.692  12.653  0.00  0.00    +0.000 C 
ENDBRANCH  15  27
ENDBRANCH   1  15
TORSDOF 6
ENDMDL
MODEL 2
REMARK VINA RESULT:    -7.561      1.073      1.913
REMARK INTER + INTRA:         -10.955
REMARK INTER:                 -10.230
REMARK INTRA:                  -0.725
REMARK UNBOUND:                -0.741
REMARK  Name = 
REMARK  9 active torsions:
REMARK  status: ('A' for Active; 'I' for Inactive)
REMARK    1  A    between atoms: C_1  and  C_2
REMARK    2  A    between atoms: C_3  and  C_4
REMARK    3  A    between atoms: C_4  and  C_5
REMARK    4  A    between atoms: C_4  and  C_6
REMARK    5  A    between atoms: C_4  and  C_17
REMARK    6  A    between atoms: C_6  and  N_7
REMARK    7  A    between atoms: C_11  and  C_12
REMARK    8  A    between atoms: C_21  and  O_22
REMARK    9  A    between atoms: O_22  and  C_23
REMARK                            x       y       z     vdW  Elec       q    Type
REMARK                         _______ _______ _______ _____ _____    ______ ____
ROOT
ATOM      1  C   UNL     1      43.374   4.614  10.903  0.00  0.00    +0.000 C 
ENDROOT
BRANCH   1   2
ATOM      2  N   UNL     1      44.022   5.018   9.656  0.00  0.00    +0.000 N 
ATOM      3  C   UNL     1      44.913   4.180   9.023  0.00  0.00    +0.000 A 
ATOM      4  C   UNL     1      44.821   2.795   9.078  0.00  0.00    +0.000 A 
ATOM      5  C   UNL     1      45.718   2.014   8.354  0.00  0.00    +0.000 A 
ATOM      6  C   UNL     1      46.680   2.627   7.557  0.00  0.00    +0.000 A 
ATOM      7  C   UNL     1      46.703   4.013   7.555  0.00  0.00    +0.000 A 
ATOM      8  N   UNL     1      45.853   4.791   8.275  0.00  0.00    +0.000 NA
ATOM      9  H   UNL     1      44.382   5.971   9.625  0.00  0.00    +0.000 HD
BRANCH   6  10
ATOM     10  C   UNL     1      47.594   1.775   6.761  0.00  0.00    +0.000 C 
ATOM     11  N   UNL     1      48.727   2.325   6.232  0.00  0.00    +0.000 N 
ATOM     12  O   UNL     1      47.344   0.590   6.567  0.00  0.00    +0.000 OA
ATOM     13  H   UNL     1      49.024   3.283   6.324  0.00  0.00    +0.000 HD
ATOM     14  H   UNL     1      49.309   1.705   5.684  0.00  0.00    +0.000 HD
ENDBRANCH   6  10
ENDBRANCH   1   2
BRANCH   1  15
ATOM     15  C   UNL     1      43.875   5.432  12.142  0.00  0.00    +0.000 C 
ATOM     16  C   UNL     1      42.777   5.344  13.225  0.00  0.00    +0.000 C 
BRANCH  15  17
ATOM     17  C   UNL     1      44.163   6.919  11.835  0.00  0.00    +0.000 A 
ATOM     18  C   UNL     1      43.252   7.693  11.091  0.00  0.00    +0.000 A 
ATOM     19  C   UNL     1      43.479   9.048  10.843  0.00  0.00    +0.000 A 
ATOM     20  C   UNL     1      44.630   9.667  11.322  0.00  0.00    +0.000 A 
ATOM     21  C   UNL     1      45.558   8.928  12.050  0.00  0.00    +0.000 A 
ATOM     22  C   UNL     1      45.336   7.563  12.276  0.00  0.00    +0.000 A 
BRANCH  21  23
ATOM     23  O   UNL     1      46.727   9.425  12.561  0.00  0.00    +0.000 OA
ATOM     24  C   UNL     1      47.416   8.561  13.460  0.00  0.00    +0.000 C 
ENDBRANCH  21  23
ENDBRANCH  15  17
BRANCH  15  27
ATOM     25  C   UNL     1      47.181   3.570  13.822  0.00  0.00    +0.000 C 
ATOM     26  C   UNL     1      46.052   4.208  13.145  0.00  0.00    +0.000 C 
ATOM     27  C   UNL     1      45.096   4.741  12.654  0.00  0.00    +0.000 C 
ENDBRANCH  15  27
ENDBRANCH   1  15
TORSDOF 6
ENDMDL
MODEL 3
REMARK VINA RESULT:    -7.369      4.365      7.501
REMARK INTER + INTRA:         -10.694
REMARK INTER:                  -9.880
REMARK INTRA:                  -0.815
REMARK UNBOUND:                -0.741
REMARK  Name = 
REMARK  9 active torsions:
REMARK  status: ('A' for Active; 'I' for Inactive)
REMARK    1  A    between atoms: C_1  and  C_2
REMARK    2  A    between atoms: C_3  and  C_4
REMARK    3  A    between atoms: C_4  and  C_5
REMARK    4  A    between atoms: C_4  and  C_6
REMARK    5  A    between atoms: C_4  and  C_17
REMARK    6  A    between atoms: C_6  and  N_7
REMARK    7  A    between atoms: C_11  and  C_12
REMARK    8  A    between atoms: C_21  and  O_22
REMARK    9  A    between atoms: O_22  and  C_23
REMARK                            x       y       z     vdW  Elec       q    Type
REMARK                         _______ _______ _______ _____ _____    ______ ____
ROOT
ATOM      1  C   UNL     1      46.306   5.306  12.835  0.00  0.00    +0.000 C 
ENDROOT
BRANCH   1   2
ATOM      2  N   UNL     1      46.396   4.098  13.655  0.00  0.00    +0.000 N 
ATOM      3  C   UNL     1      47.152   4.084  14.806  0.00  0.00    +0.000 A 
ATOM      4  C   UNL     1      47.344   5.205  15.601  0.00  0.00    +0.000 A 
ATOM      5  C   UNL     1      48.063   5.097  16.788  0.00  0.00    +0.000 A 
ATOM      6  C   UNL     1      48.558   3.857  17.183  0.00  0.00    +0.000 A 
ATOM      7  C   UNL     1      48.320   2.787  16.336  0.00  0.00    +0.000 A 
ATOM      8  N   UNL     1      47.643   2.880  15.162  0.00  0.00    +0.000 NA
ATOM      9  H   UNL     1      46.538   3.224  13.152  0.00  0.00    +0.000 HD
BRANCH   6  10
ATOM     10  C   UNL     1      49.282   3.757  18.473  0.00  0.00    +0.000 C 
ATOM     11  N   UNL     1      48.584   3.456  19.607  0.00  0.00    +0.000 N 
ATOM     12  O   UNL     1      50.492   3.947  18.534  0.00  0.00    +0.000 OA
ATOM     13  H   UNL     1      47.593   3.287  19.670  0.00  0.00    +0.000 HD
ATOM     14  H   UNL     1      49.122   3.414  20.464  0.00  0.00    +0.000 HD
ENDBRANCH   6  10
ENDBRANCH   1   2
BRANCH   1  15
ATOM     15  C   UNL     1      44.989   5.373  11.991  0.00  0.00    +0.000 C 
ATOM     16  C   UNL     1      43.823   4.979  12.926  0.00  0.00    +0.000 C 
BRANCH  15  17
ATOM     17  C   UNL     1      44.986   4.437  10.761  0.00  0.00    +0.000 A 
ATOM     18  C   UNL     1      44.345   3.184  10.807  0.00  0.00    +0.000 A 
ATOM     19  C   UNL     1      44.299   2.347   9.689  0.00  0.00    +0.000 A 
ATOM     20  C   UNL     1      44.902   2.734   8.496  0.00  0.00    +0.000 A 
ATOM     21  C   UNL     1      45.556   3.960   8.420  0.00  0.00    +0.000 A 
ATOM     22  C   UNL     1      45.620   4.785   9.551  0.00  0.00    +0.000 A 
BRANCH  21  23
ATOM     23  O   UNL     1      46.192   4.441   7.306  0.00  0.00    +0.000 OA
ATOM     24  C   UNL     1      46.569   3.457   6.348  0.00  0.00    +0.000 C 
ENDBRANCH  21  23
ENDBRANCH  15  17
BRANCH  15  27
ATOM     25  C   UNL     1      44.286   9.356  11.064  0.00  0.00    +0.000 C 
ATOM     26  C   UNL     1      44.594   7.948  11.318  0.00  0.00    +0.000 C 
ATOM     27  C   UNL     1      44.804   6.798  11.584  0.00  0.00    +0.000 C 
ENDBRANCH  15  27
ENDBRANCH   1  15
TORSDOF 6
ENDMDL
MODEL 4
REMARK VINA RESULT:    -7.015      4.689      7.701
REMARK INTER + INTRA:         -10.217
REMARK INTER:                  -9.739
REMARK INTRA:                  -0.478
REMARK UNBOUND:                -0.741
REMARK  Name = 
REMARK  9 active torsions:
REMARK  status: ('A' for Active; 'I' for Inactive)
REMARK    1  A    between atoms: C_1  and  C_2
REMARK    2  A    between atoms: C_3  and  C_4
REMARK    3  A    between atoms: C_4  and  C_5
REMARK    4  A    between atoms: C_4  and  C_6
REMARK    5  A    between atoms: C_4  and  C_17
REMARK    6  A    between atoms: C_6  and  N_7
REMARK    7  A    between atoms: C_11  and  C_12
REMARK    8  A    between atoms: C_21  and  O_22
REMARK    9  A    between atoms: O_22  and  C_23
REMARK                            x       y       z     vdW  Elec       q    Type
REMARK                         _______ _______ _______ _____ _____    ______ ____
ROOT
ATOM      1  C   UNL     1      45.818   5.029  13.549  0.00  0.00    +0.000 C 
ENDROOT
BRANCH   1   2
ATOM      2  N   UNL     1      47.204   5.187  13.988  0.00  0.00    +0.000 N 
ATOM      3  C   UNL     1      47.557   4.956  15.298  0.00  0.00    +0.000 A 
ATOM      4  C   UNL     1      46.913   4.027  16.105  0.00  0.00    +0.000 A 
ATOM      5  C   UNL     1      47.373   3.799  17.399  0.00  0.00    +0.000 A 
ATOM      6  C   UNL     1      48.494   4.481  17.863  0.00  0.00    +0.000 A 
ATOM      7  C   UNL     1      49.082   5.387  16.995  0.00  0.00    +0.000 A 
ATOM      8  N   UNL     1      48.631   5.642  15.739  0.00  0.00    +0.000 NA
ATOM      9  H   UNL     1      47.688   6.019  13.654  0.00  0.00    +0.000 HD
BRANCH   6  10
ATOM     10  C   UNL     1      48.992   4.188  19.228  0.00  0.00    +0.000 C 
ATOM     11  N   UNL     1      48.339   3.263  19.991  0.00  0.00    +0.000 N 
ATOM     12  O   UNL     1      49.974   4.766  19.679  0.00  0.00    +0.000 OA
ATOM     13  H   UNL     1      47.523   2.736  19.722  0.00  0.00    +0.000 HD
ATOM     14  H   UNL     1      48.710   3.110  20.921  0.00  0.00    +0.000 HD
ENDBRANCH   6  10
ENDBRANCH   1   2
BRANCH   1  15
ATOM     15  C   UNL     1      45.535   5.712  12.168  0.00  0.00    +0.000 C 
ATOM     16  C   UNL     1      44.312   6.638  12.355  0.00  0.00    +0.000 C 
BRANCH  15  17
ATOM     17  C   UNL     1      45.240   4.714  11.025  0.00  0.00    +0.000 A 
ATOM     18  C   UNL     1      44.520   3.528  11.269  0.00  0.00    +0.000 A 
ATOM     19  C   UNL     1      44.211   2.638  10.237  0.00  0.00    +0.000 A 
ATOM     20  C   UNL     1      44.622   2.902   8.934  0.00  0.00    +0.000 A 
ATOM     21  C   UNL     1      45.348   4.058   8.662  0.00  0.00    +0.000 A 
ATOM     22  C   UNL     1      45.676   4.936   9.704  0.00  0.00    +0.000 A 
BRANCH  21  23
ATOM     23  O   UNL     1      45.814   4.417   7.424  0.00  0.00    +0.000 OA
ATOM     24  C   UNL     1      46.518   3.398   6.719  0.00  0.00    +0.000 C 
ENDBRANCH  21  23
ENDBRANCH  15  17
BRANCH  15  27
ATOM     25  C   UNL     1      48.896   8.067  11.557  0.00  0.00    +0.000 C 
ATOM     26  C   UNL     1      47.693   7.244  11.680  0.00  0.00    +0.000 C 
ATOM     27  C   UNL     1      46.722   6.560  11.850  0.00  0.00    +0.000 C 
ENDBRANCH  15  27
ENDBRANCH   1  15
TORSDOF 6
ENDMDL
MODEL 5
REMARK VINA RESULT:    -6.298      4.635      7.548
REMARK INTER + INTRA:          -9.248
REMARK INTER:                  -8.498
REMARK INTRA:                  -0.751
REMARK UNBOUND:                -0.741
REMARK  Name = 
REMARK  9 active torsions:
REMARK  status: ('A' for Active; 'I' for Inactive)
REMARK    1  A    between atoms: C_1  and  C_2
REMARK    2  A    between atoms: C_3  and  C_4
REMARK    3  A    between atoms: C_4  and  C_5
REMARK    4  A    between atoms: C_4  and  C_6
REMARK    5  A    between atoms: C_4  and  C_17
REMARK    6  A    between atoms: C_6  and  N_7
REMARK    7  A    between atoms: C_11  and  C_12
REMARK    8  A    between atoms: C_21  and  O_22
REMARK    9  A    between atoms: O_22  and  C_23
REMARK                            x       y       z     vdW  Elec       q    Type
REMARK                         _______ _______ _______ _____ _____    ______ ____
ROOT
ATOM      1  C   UNL     1      46.851   6.198  12.247  0.00  0.00    +0.000 C 
ENDROOT
BRANCH   1   2
ATOM      2  N   UNL     1      47.068   6.301  13.689  0.00  0.00    +0.000 N 
ATOM      3  C   UNL     1      48.302   6.650  14.191  0.00  0.00    +0.000 A 
ATOM      4  C   UNL     1      49.182   7.490  13.523  0.00  0.00    +0.000 A 
ATOM      5  C   UNL     1      50.383   7.854  14.127  0.00  0.00    +0.000 A 
ATOM      6  C   UNL     1      50.677   7.397  15.408  0.00  0.00    +0.000 A 
ATOM      7  C   UNL     1      49.745   6.566  16.008  0.00  0.00    +0.000 A 
ATOM      8  N   UNL     1      48.581   6.179  15.423  0.00  0.00    +0.000 NA
ATOM      9  H   UNL     1      46.678   5.549  14.257  0.00  0.00    +0.000 HD
BRANCH   6  10
ATOM     10  C   UNL     1      51.940   7.835  16.047  0.00  0.00    +0.000 C 
ATOM     11  N   UNL     1      52.960   6.938  16.192  0.00  0.00    +0.000 N 
ATOM     12  O   UNL     1      52.078   8.985  16.452  0.00  0.00    +0.000 OA
ATOM     13  H   UNL     1      52.951   5.973  15.902  0.00  0.00    +0.000 HD
ATOM     14  H   UNL     1      53.795   7.282  16.649  0.00  0.00    +0.000 HD
ENDBRANCH   6  10
ENDBRANCH   1   2
BRANCH   1  15
ATOM     15  C   UNL     1      45.355   5.918  11.875  0.00  0.00    +0.000 C 
ATOM     16  C   UNL     1      44.648   5.421  13.156  0.00  0.00    +0.000 C 
BRANCH  15  17
ATOM     17  C   UNL     1      45.174   4.864  10.759  0.00  0.00    +0.000 A 
ATOM     18  C   UNL     1      44.433   3.689  10.987  0.00  0.00    +0.000 A 
ATOM     19  C   UNL     1      44.226   2.749   9.975  0.00  0.00    +0.000 A 
ATOM     20  C   UNL     1      44.765   2.951   8.707  0.00  0.00    +0.000 A 
ATOM     21  C   UNL     1      45.515   4.096   8.452  0.00  0.00    +0.000 A 
ATOM     22  C   UNL     1      45.739   5.024   9.478  0.00  0.00    +0.000 A 
BRANCH  21  23
ATOM     23  O   UNL     1      46.100   4.395   7.250  0.00  0.00    +0.000 OA
ATOM     24  C   UNL     1      46.535   3.274   6.488  0.00  0.00    +0.000 C 
ENDBRANCH  21  23
ENDBRANCH  15  17
BRANCH  15  27
ATOM     25  C   UNL     1      43.910   9.678  10.878  0.00  0.00    +0.000 C 
ATOM     26  C   UNL     1      44.337   8.316  11.201  0.00  0.00    +0.000 C 
ATOM     27  C   UNL     1      44.751   7.227  11.483  0.00  0.00    +0.000 C 
ENDBRANCH  15  27
ENDBRANCH   1  15
TORSDOF 6
ENDMDL
MODEL 6
REMARK VINA RESULT:    -6.259      3.852      6.884
REMARK INTER + INTRA:          -9.195
REMARK INTER:                  -8.359
REMARK INTRA:                  -0.837
REMARK UNBOUND:                -0.741
REMARK  Name = 
REMARK  9 active torsions:
REMARK  status: ('A' for Active; 'I' for Inactive)
REMARK    1  A    between atoms: C_1  and  C_2
REMARK    2  A    between atoms: C_3  and  C_4
REMARK    3  A    between atoms: C_4  and  C_5
REMARK    4  A    between atoms: C_4  and  C_6
REMARK    5  A    between atoms: C_4  and  C_17
REMARK    6  A    between atoms: C_6  and  N_7
REMARK    7  A    between atoms: C_11  and  C_12
REMARK    8  A    between atoms: C_21  and  O_22
REMARK    9  A    between atoms: O_22  and  C_23
REMARK                            x       y       z     vdW  Elec       q    Type
REMARK                         _______ _______ _______ _____ _____    ______ ____
ROOT
ATOM      1  C   UNL     1      46.317   5.419  12.837  0.00  0.00    +0.000 C 
ENDROOT
BRANCH   1   2
ATOM      2  N   UNL     1      46.600   6.699  13.484  0.00  0.00    +0.000 N 
ATOM      3  C   UNL     1      47.731   7.415  13.160  0.00  0.00    +0.000 A 
ATOM      4  C   UNL     1      48.310   7.389  11.898  0.00  0.00    +0.000 A 
ATOM      5  C   UNL     1      49.412   8.195  11.626  0.00  0.00    +0.000 A 
ATOM      6  C   UNL     1      49.906   9.044  12.612  0.00  0.00    +0.000 A 
ATOM      7  C   UNL     1      49.270   9.014  13.843  0.00  0.00    +0.000 A 
ATOM      8  N   UNL     1      48.210   8.214  14.134  0.00  0.00    +0.000 NA
ATOM      9  H   UNL     1      46.463   6.733  14.493  0.00  0.00    +0.000 HD
BRANCH   6  10
ATOM     10  C   UNL     1      51.051   9.925  12.285  0.00  0.00    +0.000 C 
ATOM     11  N   UNL     1      51.275  10.272  10.983  0.00  0.00    +0.000 N 
ATOM     12  O   UNL     1      51.800  10.340  13.163  0.00  0.00    +0.000 OA
ATOM     13  H   UNL     1      50.728   9.985  10.187  0.00  0.00    +0.000 HD
ATOM     14  H   UNL     1      52.078  10.863  10.811  0.00  0.00    +0.000 HD
ENDBRANCH   6  10
ENDBRANCH   1   2
BRANCH   1  15
ATOM     15  C   UNL     1      44.960   5.420  12.054  0.00  0.00    +0.000 C 
ATOM     16  C   UNL     1      43.859   4.970  13.040  0.00  0.00    +0.000 C 
BRANCH  15  17
ATOM     17  C   UNL     1      44.948   4.485  10.823  0.00  0.00    +0.000 A 
ATOM     18  C   UNL     1      44.292   3.239  10.868  0.00  0.00    +0.000 A 
ATOM     19  C   UNL     1      44.236   2.404   9.751  0.00  0.00    +0.000 A 
ATOM     20  C   UNL     1      44.845   2.784   8.558  0.00  0.00    +0.000 A 
ATOM     21  C   UNL     1      45.514   4.002   8.483  0.00  0.00    +0.000 A 
ATOM     22  C   UNL     1      45.587   4.826   9.615  0.00  0.00    +0.000 A 
BRANCH  21  23
ATOM     23  O   UNL     1      46.157   4.475   7.370  0.00  0.00    +0.000 OA
ATOM     24  C   UNL     1      46.688   3.478   6.503  0.00  0.00    +0.000 C 
ENDBRANCH  21  23
ENDBRANCH  15  17
BRANCH  15  27
ATOM     25  C   UNL     1      44.440   9.421  11.082  0.00  0.00    +0.000 C 
ATOM     26  C   UNL     1      44.540   7.993  11.384  0.00  0.00    +0.000 C 
ATOM     27  C   UNL     1      44.688   6.834  11.658  0.00  0.00    +0.000 C 
ENDBRANCH  15  27
ENDBRANCH   1  15
TORSDOF 6
ENDMDL
MODEL 7
REMARK VINA RESULT:    -6.034      5.411      8.532
REMARK INTER + INTRA:          -8.892
REMARK INTER:                  -8.173
REMARK INTRA:                  -0.719
REMARK UNBOUND:                -0.741
REMARK  Name = 
REMARK  9 active torsions:
REMARK  status: ('A' for Active; 'I' for Inactive)
REMARK    1  A    between atoms: C_1  and  C_2
REMARK    2  A    between atoms: C_3  and  C_4
REMARK    3  A    between atoms: C_4  and  C_5
REMARK    4  A    between atoms: C_4  and  C_6
REMARK    5  A    between atoms: C_4  and  C_17
REMARK    6  A    between atoms: C_6  and  N_7
REMARK    7  A    between atoms: C_11  and  C_12
REMARK    8  A    between atoms: C_21  and  O_22
REMARK    9  A    between atoms: O_22  and  C_23
REMARK                            x       y       z     vdW  Elec       q    Type
REMARK                         _______ _______ _______ _____ _____    ______ ____
ROOT
ATOM      1  C   UNL     1      47.804   4.684  15.998  0.00  0.00    +0.000 C 
ENDROOT
BRANCH   1   2
ATOM      2  N   UNL     1      47.492   5.746  15.042  0.00  0.00    +0.000 N 
ATOM      3  C   UNL     1      46.816   5.466  13.875  0.00  0.00    +0.000 A 
ATOM      4  C   UNL     1      45.879   4.447  13.768  0.00  0.00    +0.000 A 
ATOM      5  C   UNL     1      45.185   4.269  12.574  0.00  0.00    +0.000 A 
ATOM      6  C   UNL     1      45.414   5.133  11.507  0.00  0.00    +0.000 A 
ATOM      7  C   UNL     1      46.363   6.126  11.696  0.00  0.00    +0.000 A 
ATOM      8  N   UNL     1      47.068   6.298  12.845  0.00  0.00    +0.000 NA
ATOM      9  H   UNL     1      48.242   6.405  14.842  0.00  0.00    +0.000 HD
BRANCH   6  10
ATOM     10  C   UNL     1      44.631   4.952  10.262  0.00  0.00    +0.000 C 
ATOM     11  N   UNL     1      45.287   4.884   9.066  0.00  0.00    +0.000 N 
ATOM     12  O   UNL     1      43.408   4.869  10.292  0.00  0.00    +0.000 OA
ATOM     13  H   UNL     1      46.283   4.946   8.928  0.00  0.00    +0.000 HD
ATOM     14  H   UNL     1      44.705   4.775   8.245  0.00  0.00    +0.000 HD
ENDBRANCH   6  10
ENDBRANCH   1   2
BRANCH   1  15
ATOM     15  C   UNL     1      48.912   5.097  17.025  0.00  0.00    +0.000 C 
ATOM     16  C   UNL     1      49.621   6.348  16.459  0.00  0.00    +0.000 C 
BRANCH  15  17
ATOM     17  C   UNL     1      49.965   3.996  17.285  0.00  0.00    +0.000 A 
ATOM     18  C   UNL     1      49.670   2.641  17.039  0.00  0.00    +0.000 A 
ATOM     19  C   UNL     1      50.626   1.641  17.228  0.00  0.00    +0.000 A 
ATOM     20  C   UNL     1      51.902   1.964  17.682  0.00  0.00    +0.000 A 
ATOM     21  C   UNL     1      52.222   3.293  17.948  0.00  0.00    +0.000 A 
ATOM     22  C   UNL     1      51.252   4.289  17.779  0.00  0.00    +0.000 A 
BRANCH  21  23
ATOM     23  O   UNL     1      53.437   3.728  18.407  0.00  0.00    +0.000 OA
ATOM     24  C   UNL     1      53.814   3.241  19.691  0.00  0.00    +0.000 C 
ENDBRANCH  21  23
ENDBRANCH  15  17
BRANCH  15  27
ATOM     25  C   UNL     1      47.219   6.170  20.659  0.00  0.00    +0.000 C 
ATOM     26  C   UNL     1      47.729   5.789  19.341  0.00  0.00    +0.000 C 
ATOM     27  C   UNL     1      48.214   5.483  18.287  0.00  0.00    +0.000 C 
ENDBRANCH  15  27
ENDBRANCH   1  15
TORSDOF 6
ENDMDL
MODEL 8
REMARK VINA RESULT:    -5.970      5.231      8.005
REMARK INTER + INTRA:          -8.806
REMARK INTER:                  -8.241
REMARK INTRA:                  -0.565
REMARK UNBOUND:                -0.741
REMARK  Name = 
REMARK  9 active torsions:
REMARK  status: ('A' for Active; 'I' for Inactive)
REMARK    1  A    between atoms: C_1  and  C_2
REMARK    2  A    between atoms: C_3  and  C_4
REMARK    3  A    between atoms: C_4  and  C_5
REMARK    4  A    between atoms: C_4  and  C_6
REMARK    5  A    between atoms: C_4  and  C_17
REMARK    6  A    between atoms: C_6  and  N_7
REMARK    7  A    between atoms: C_11  and  C_12
REMARK    8  A    between atoms: C_21  and  O_22
REMARK    9  A    between atoms: O_22  and  C_23
REMARK                            x       y       z     vdW  Elec       q    Type
REMARK                         _______ _______ _______ _____ _____    ______ ____
ROOT
ATOM      1  C   UNL     1      46.676   5.503  13.714  0.00  0.00    +0.000 C 
ENDROOT
BRANCH   1   2
ATOM      2  N   UNL     1      47.851   5.952  14.459  0.00  0.00    +0.000 N 
ATOM      3  C   UNL     1      47.985   5.667  15.800  0.00  0.00    +0.000 A 
ATOM      4  C   UNL     1      47.467   4.520  16.386  0.00  0.00    +0.000 A 
ATOM      5  C   UNL     1      47.703   4.266  17.735  0.00  0.00    +0.000 A 
ATOM      6  C   UNL     1      48.482   5.149  18.477  0.00  0.00    +0.000 A 
ATOM      7  C   UNL     1      48.964   6.268  17.817  0.00  0.00    +0.000 A 
ATOM      8  N   UNL     1      48.722   6.545  16.509  0.00  0.00    +0.000 NA
ATOM      9  H   UNL     1      48.150   6.912  14.292  0.00  0.00    +0.000 HD
BRANCH   6  10
ATOM     10  C   UNL     1      48.756   4.834  19.899  0.00  0.00    +0.000 C 
ATOM     11  N   UNL     1      47.753   4.961  20.816  0.00  0.00    +0.000 N 
ATOM     12  O   UNL     1      49.870   4.469  20.261  0.00  0.00    +0.000 OA
ATOM     13  H   UNL     1      46.808   5.257  20.629  0.00  0.00    +0.000 HD
ATOM     14  H   UNL     1      47.996   4.749  21.775  0.00  0.00    +0.000 HD
ENDBRANCH   6  10
ENDBRANCH   1   2
BRANCH   1  15
ATOM     15  C   UNL     1      46.403   6.362  12.433  0.00  0.00    +0.000 C 
ATOM     16  C   UNL     1      45.418   7.483  12.833  0.00  0.00    +0.000 C 
BRANCH  15  17
ATOM     17  C   UNL     1      45.803   5.559  11.257  0.00  0.00    +0.000 A 
ATOM     18  C   UNL     1      46.170   5.841   9.926  0.00  0.00    +0.000 A 
ATOM     19  C   UNL     1      45.667   5.096   8.858  0.00  0.00    +0.000 A 
ATOM     20  C   UNL     1      44.774   4.053   9.087  0.00  0.00    +0.000 A 
ATOM     21  C   UNL     1      44.379   3.757  10.388  0.00  0.00    +0.000 A 
ATOM     22  C   UNL     1      44.868   4.524  11.455  0.00  0.00    +0.000 A 
BRANCH  21  23
ATOM     23  O   UNL     1      43.500   2.764  10.733  0.00  0.00    +0.000 OA
ATOM     24  C   UNL     1      43.394   2.502  12.129  0.00  0.00    +0.000 C 
ENDBRANCH  21  23
ENDBRANCH  15  17
BRANCH  15  27
ATOM     25  C   UNL     1      50.105   7.860  11.303  0.00  0.00    +0.000 C 
ATOM     26  C   UNL     1      48.774   7.420  11.723  0.00  0.00    +0.000 C 
ATOM     27  C   UNL     1      47.701   6.993  12.047  0.00  0.00    +0.000 C 
ENDBRANCH  15  27
ENDBRANCH   1  15
TORSDOF 6
ENDMDL
MODEL 9
REMARK VINA RESULT:    -5.897      4.838      7.338
REMARK INTER + INTRA:          -8.706
REMARK INTER:                  -7.775
REMARK INTRA:                  -0.932
REMARK UNBOUND:                -0.741
REMARK  Name = 
REMARK  9 active torsions:
REMARK  status: ('A' for Active; 'I' for Inactive)
REMARK    1  A    between atoms: C_1  and  C_2
REMARK    2  A    between atoms: C_3  and  C_4
REMARK    3  A    between atoms: C_4  and  C_5
REMARK    4  A    between atoms: C_4  and  C_6
REMARK    5  A    between atoms: C_4  and  C_17
REMARK    6  A    between atoms: C_6  and  N_7
REMARK    7  A    between atoms: C_11  and  C_12
REMARK    8  A    between atoms: C_21  and  O_22
REMARK    9  A    between atoms: O_22  and  C_23
REMARK                            x       y       z     vdW  Elec       q    Type
REMARK                         _______ _______ _______ _____ _____    ______ ____
ROOT
ATOM      1  C   UNL     1      47.336   8.095  14.061  0.00  0.00    +0.000 C 
ENDROOT
BRANCH   1   2
ATOM      2  N   UNL     1      48.607   7.533  14.517  0.00  0.00    +0.000 N 
ATOM      3  C   UNL     1      48.633   6.467  15.387  0.00  0.00    +0.000 A 
ATOM      4  C   UNL     1      47.651   5.486  15.414  0.00  0.00    +0.000 A 
ATOM      5  C   UNL     1      47.781   4.399  16.274  0.00  0.00    +0.000 A 
ATOM      6  C   UNL     1      48.912   4.289  17.079  0.00  0.00    +0.000 A 
ATOM      7  C   UNL     1      49.848   5.307  16.990  0.00  0.00    +0.000 A 
ATOM      8  N   UNL     1      49.723   6.388  16.176  0.00  0.00    +0.000 NA
ATOM      9  H   UNL     1      49.322   8.205  14.792  0.00  0.00    +0.000 HD
BRANCH   6  10
ATOM     10  C   UNL     1      49.050   3.101  17.954  0.00  0.00    +0.000 C 
ATOM     11  N   UNL     1      48.330   3.038  19.112  0.00  0.00    +0.000 N 
ATOM     12  O   UNL     1      49.805   2.181  17.654  0.00  0.00    +0.000 OA
ATOM     13  H   UNL     1      47.689   3.736  19.454  0.00  0.00    +0.000 HD
ATOM     14  H   UNL     1      48.472   2.213  19.681  0.00  0.00    +0.000 HD
ENDBRANCH   6  10
ENDBRANCH   1   2
BRANCH   1  15
ATOM     15  C   UNL     1      47.167   8.035  12.505  0.00  0.00    +0.000 C 
ATOM     16  C   UNL     1      46.532   9.372  12.060  0.00  0.00    +0.000 C 
BRANCH  15  17
ATOM     17  C   UNL     1      46.280   6.868  12.016  0.00  0.00    +0.000 A 
ATOM     18  C   UNL     1      45.347   6.259  12.878  0.00  0.00    +0.000 A 
ATOM     19  C   UNL     1      44.509   5.233  12.438  0.00  0.00    +0.000 A 
ATOM     20  C   UNL     1      44.587   4.776  11.125  0.00  0.00    +0.000 A 
ATOM     21  C   UNL     1      45.508   5.347  10.251  0.00  0.00    +0.000 A 
ATOM     22  C   UNL     1      46.363   6.360  10.705  0.00  0.00    +0.000 A 
BRANCH  21  23
ATOM     23  O   UNL     1      45.682   4.973   8.944  0.00  0.00    +0.000 OA
ATOM     24  C   UNL     1      44.711   4.063   8.436  0.00  0.00    +0.000 C 
ENDBRANCH  21  23
ENDBRANCH  15  17
BRANCH  15  27
ATOM     25  C   UNL     1      50.938   7.524  10.849  0.00  0.00    +0.000 C 
ATOM     26  C   UNL     1      49.630   7.795  11.446  0.00  0.00    +0.000 C 
ATOM     27  C   UNL     1      48.540   7.949  11.921  0.00  0.00    +0.000 C 
ENDBRANCH  15  27
ENDBRANCH   1  15
TORSDOF 6
ENDMDL
