MODEL 1
REMARK VINA RESULT:    -7.959      0.000      0.000
REMARK INTER + INTRA:         -11.617
REMARK INTER:                 -10.750
REMARK INTRA:                  -0.866
REMARK UNBOUND:                -0.866
REMARK  Name = 
REMARK  6 active torsions:
REMARK  status: ('A' for Active; 'I' for Inactive)
REMARK    1  A    between atoms: C_2  and  C_3
REMARK    2  A    between atoms: N_7  and  C_8
REMARK    3  A    between atoms: C_8  and  C_9
REMARK    4  A    between atoms: C_9  and  C_10
REMARK    5  A    between atoms: C_14  and  O_15
REMARK    6  A    between atoms: O_15  and  C_16
REMARK                            x       y       z     vdW  Elec       q    Type
REMARK                         _______ _______ _______ _____ _____    ______ ____
ROOT
ATOM      1  C   UNL     1      43.758   5.078  12.360  0.00  0.00    +0.000 C 
ENDROOT
BRANCH   1   2
ATOM      2  C   UNL     1      45.218   5.453  12.476  0.00  0.00    +0.000 A 
ATOM      3  C   UNL     1      45.802   6.328  11.552  0.00  0.00    +0.000 A 
ATOM      4  C   UNL     1      47.115   6.768  11.732  0.00  0.00    +0.000 A 
ATOM      5  C   UNL     1      47.859   6.344  12.836  0.00  0.00    +0.000 A 
ATOM      6  C   UNL     1      47.288   5.469  13.758  0.00  0.00    +0.000 A 
ATOM      7  C   UNL     1      45.975   5.027  13.576  0.00  0.00    +0.000 A 
BRANCH   6   8
ATOM      8  O   UNL     1      47.896   5.022  14.905  0.00  0.00    +0.000 OA
BRANCH   8   9
ATOM      9  C   UNL     1      47.150   4.194  15.822  0.00  0.00    +0.000 C 
ATOM     10  C   UNL     1      47.144   4.598  17.314  0.00  0.00    +0.000 C 
ATOM     11  N   UNL     1      47.392   3.189  17.687  0.00  0.00    +0.000 NA
ATOM     12  C   UNL     1      47.900   2.939  16.322  0.00  0.00    +0.000 C 
ATOM     13  H   UNL     1      46.544   2.667  17.907  0.00  0.00    +0.000 HD
ENDBRANCH   8   9
ENDBRANCH   6   8
ENDBRANCH   1   2
BRANCH   1  14
ATOM     14  C   UNL     1      43.449   4.705  10.910  0.00  0.00    +0.000 C 
BRANCH  14  19
ATOM     15  C   UNL     1      46.575   2.500   7.526  0.00  0.00    +0.000 A 
ATOM     16  C   UNL     1      46.271   3.831   7.768  0.00  0.00    +0.000 A 
ATOM     17  C   UNL     1      45.374   4.146   8.787  0.00  0.00    +0.000 A 
ATOM     18  C   UNL     1      44.787   3.132   9.542  0.00  0.00    +0.000 A 
ATOM     19  N   UNL     1      43.904   3.374  10.564  0.00  0.00    +0.000 N 
ATOM     20  N   UNL     1      45.074   1.836   9.309  0.00  0.00    +0.000 NA
ATOM     21  C   UNL     1      45.959   1.546   8.320  0.00  0.00    +0.000 A 
ATOM     22  H   UNL     1      43.496   2.545  10.979  0.00  0.00    +0.000 HD
BRANCH  15  24
ATOM     23  N   UNL     1      48.242   1.815   5.668  0.00  0.00    +0.000 NA
ATOM     24  C   UNL     1      47.490   2.122   6.498  0.00  0.00    +0.000 C 
ENDBRANCH  15  24
ENDBRANCH  14  19
ENDBRANCH   1  14
TORSDOF 6
ENDMDL
MODEL 2
REMARK VINA RESULT:    -7.283      2.536      3.623
REMARK INTER + INTRA:         -10.704
REMARK INTER:                  -9.894
REMARK INTRA:                  -0.810
REMARK UNBOUND:                -0.866
REMARK  Name = 
REMARK  6 active torsions:
REMARK  status: ('A' for Active; 'I' for Inactive)
REMARK    1  A    between atoms: C_2  and  C_3
REMARK    2  A    between atoms: N_7  and  C_8
REMARK    3  A    between atoms: C_8  and  C_9
REMARK    4  A    between atoms: C_9  and  C_10
REMARK    5  A    between atoms: C_14  and  O_15
REMARK    6  A    between atoms: O_15  and  C_16
REMARK                            x       y       z     vdW  Elec       q    Type
REMARK                         _______ _______ _______ _____ _____    ______ ____
ROOT
ATOM      1  C   UNL     1      43.095   5.275  12.325  0.00  0.00    +0.000 C 
ENDROOT
BRANCH   1   2
ATOM      2  C   UNL     1      44.520   5.294  12.831  0.00  0.00    +0.000 A 
ATOM      3  C   UNL     1      45.184   4.099  13.128  0.00  0.00    +0.000 A 
ATOM      4  C   UNL     1      46.536   4.113  13.477  0.00  0.00    +0.000 A 
ATOM      5  C   UNL     1      47.241   5.318  13.529  0.00  0.00    +0.000 A 
ATOM      6  C   UNL     1      46.588   6.513  13.240  0.00  0.00    +0.000 A 
ATOM      7  C   UNL     1      45.234   6.499  12.894  0.00  0.00    +0.000 A 
BRANCH   6   8
ATOM      8  O   UNL     1      47.182   7.751  13.208  0.00  0.00    +0.000 OA
BRANCH   8   9
ATOM      9  C   UNL     1      47.987   8.117  12.068  0.00  0.00    +0.000 C 
ATOM     10  C   UNL     1      49.511   8.254  12.277  0.00  0.00    +0.000 C 
ATOM     11  N   UNL     1      49.495   9.518  11.512  0.00  0.00    +0.000 NA
ATOM     12  C   UNL     1      48.045   9.634  11.774  0.00  0.00    +0.000 C 
ATOM     13  H   UNL     1      49.722   9.404  10.524  0.00  0.00    +0.000 HD
ENDBRANCH   8   9
ENDBRANCH   6   8
ENDBRANCH   1   2
BRANCH   1  14
ATOM     14  C   UNL     1      43.032   4.463  11.033  0.00  0.00    +0.000 C 
BRANCH  14  19
ATOM     15  C   UNL     1      46.499   2.700   7.722  0.00  0.00    +0.000 A 
ATOM     16  C   UNL     1      45.691   2.050   8.643  0.00  0.00    +0.000 A 
ATOM     17  C   UNL     1      44.810   2.801   9.420  0.00  0.00    +0.000 A 
ATOM     18  C   UNL     1      44.755   4.186   9.274  0.00  0.00    +0.000 A 
ATOM     19  N   UNL     1      43.905   4.982  10.000  0.00  0.00    +0.000 N 
ATOM     20  N   UNL     1      45.541   4.825   8.385  0.00  0.00    +0.000 NA
ATOM     21  C   UNL     1      46.385   4.078   7.628  0.00  0.00    +0.000 A 
ATOM     22  H   UNL     1      44.021   5.977   9.849  0.00  0.00    +0.000 HD
BRANCH  15  24
ATOM     23  N   UNL     1      48.166   1.389   6.238  0.00  0.00    +0.000 NA
ATOM     24  C   UNL     1      47.415   1.979   6.899  0.00  0.00    +0.000 C 
ENDBRANCH  15  24
ENDBRANCH  14  19
ENDBRANCH   1  14
TORSDOF 6
ENDMDL
MODEL 3
REMARK VINA RESULT:    -7.110      1.676      1.856
REMARK INTER + INTRA:         -10.471
REMARK INTER:                  -9.723
REMARK INTRA:                  -0.748
REMARK UNBOUND:                -0.866
REMARK  Name = 
REMARK  6 active torsions:
REMARK  status: ('A' for Active; 'I' for Inactive)
REMARK    1  A    between atoms: C_2  and  C_3
REMARK    2  A    between atoms: N_7  and  C_8
REMARK    3  A    between atoms: C_8  and  C_9
REMARK    4  A    between atoms: C_9  and  C_10
REMARK    5  A    between atoms: C_14  and  O_15
REMARK    6  A    between atoms: O_15  and  C_16
REMARK                            x       y       z     vdW  Elec       q    Type
REMARK                         _______ _______ _______ _____ _____    ______ ____
ROOT
ATOM      1  C   UNL     1      44.026   4.063  12.384  0.00  0.00    +0.000 C 
ENDROOT
BRANCH   1   2
ATOM      2  C   UNL     1      45.251   4.949  12.395  0.00  0.00    +0.000 A 
ATOM      3  C   UNL     1      45.411   5.952  11.432  0.00  0.00    +0.000 A 
ATOM      4  C   UNL     1      46.481   6.846  11.517  0.00  0.00    +0.000 A 
ATOM      5  C   UNL     1      47.400   6.753  12.565  0.00  0.00    +0.000 A 
ATOM      6  C   UNL     1      47.253   5.755  13.525  0.00  0.00    +0.000 A 
ATOM      7  C   UNL     1      46.184   4.859  13.438  0.00  0.00    +0.000 A 
BRANCH   6   8
ATOM      8  O   UNL     1      48.058   5.592  14.625  0.00  0.00    +0.000 OA
BRANCH   8   9
ATOM      9  C   UNL     1      48.552   6.758  15.317  0.00  0.00    +0.000 C 
ATOM     10  C   UNL     1      50.050   7.106  15.162  0.00  0.00    +0.000 C 
ATOM     11  N   UNL     1      50.137   7.339  16.619  0.00  0.00    +0.000 NA
ATOM     12  C   UNL     1      48.916   6.529  16.802  0.00  0.00    +0.000 C 
ATOM     13  H   UNL     1      50.021   8.316  16.886  0.00  0.00    +0.000 HD
ENDBRANCH   8   9
ENDBRANCH   6   8
ENDBRANCH   1   2
BRANCH   1  14
ATOM     14  C   UNL     1      43.635   3.765  10.937  0.00  0.00    +0.000 C 
BRANCH  14  19
ATOM     15  C   UNL     1      46.777   2.352   7.166  0.00  0.00    +0.000 A 
ATOM     16  C   UNL     1      46.312   3.598   7.560  0.00  0.00    +0.000 A 
ATOM     17  C   UNL     1      45.457   3.686   8.657  0.00  0.00    +0.000 A 
ATOM     18  C   UNL     1      45.072   2.533   9.339  0.00  0.00    +0.000 A 
ATOM     19  N   UNL     1      44.240   2.551  10.431  0.00  0.00    +0.000 N 
ATOM     20  N   UNL     1      45.515   1.319   8.958  0.00  0.00    +0.000 NA
ATOM     21  C   UNL     1      46.356   1.251   7.894  0.00  0.00    +0.000 A 
ATOM     22  H   UNL     1      43.981   1.637  10.783  0.00  0.00    +0.000 HD
BRANCH  15  24
ATOM     23  N   UNL     1      48.369   2.077   5.144  0.00  0.00    +0.000 NA
ATOM     24  C   UNL     1      47.656   2.206   6.052  0.00  0.00    +0.000 C 
ENDBRANCH  15  24
ENDBRANCH  14  19
ENDBRANCH   1  14
TORSDOF 6
ENDMDL
MODEL 4
REMARK VINA RESULT:    -6.842      2.500      7.898
REMARK INTER + INTRA:         -10.108
REMARK INTER:                 -10.037
REMARK INTRA:                  -0.071
REMARK UNBOUND:                -0.866
REMARK  Name = 
REMARK  6 active torsions:
REMARK  status: ('A' for Active; 'I' for Inactive)
REMARK    1  A    between atoms: C_2  and  C_3
REMARK    2  A    between atoms: N_7  and  C_8
REMARK    3  A    between atoms: C_8  and  C_9
REMARK    4  A    between atoms: C_9  and  C_10
REMARK    5  A    between atoms: C_14  and  O_15
REMARK    6  A    between atoms: O_15  and  C_16
REMARK                            x       y       z     vdW  Elec       q    Type
REMARK                         _______ _______ _______ _____ _____    ______ ____
ROOT
ATOM      1  C   UNL     1      45.515   6.359  11.000  0.00  0.00    +0.000 C 
ENDROOT
BRANCH   1   2
ATOM      2  C   UNL     1      45.228   5.006  10.388  0.00  0.00    +0.000 A 
ATOM      3  C   UNL     1      44.453   4.065  11.075  0.00  0.00    +0.000 A 
ATOM      4  C   UNL     1      44.089   2.867  10.457  0.00  0.00    +0.000 A 
ATOM      5  C   UNL     1      44.490   2.596   9.146  0.00  0.00    +0.000 A 
ATOM      6  C   UNL     1      45.266   3.523   8.456  0.00  0.00    +0.000 A 
ATOM      7  C   UNL     1      45.633   4.721   9.075  0.00  0.00    +0.000 A 
BRANCH   6   8
ATOM      8  O   UNL     1      45.679   3.395   7.153  0.00  0.00    +0.000 OA
BRANCH   8   9
ATOM      9  C   UNL     1      47.070   3.128   6.877  0.00  0.00    +0.000 C 
ATOM     10  C   UNL     1      47.468   2.818   5.416  0.00  0.00    +0.000 C 
ATOM     11  N   UNL     1      48.295   1.689   5.890  0.00  0.00    +0.000 NA
ATOM     12  C   UNL     1      47.518   1.673   7.147  0.00  0.00    +0.000 C 
ATOM     13  H   UNL     1      49.278   1.926   6.023  0.00  0.00    +0.000 HD
ENDBRANCH   8   9
ENDBRANCH   6   8
ENDBRANCH   1   2
BRANCH   1  14
ATOM     14  C   UNL     1      46.672   6.226  11.990  0.00  0.00    +0.000 C 
BRANCH  14  19
ATOM     15  C   UNL     1      48.316   4.965  16.658  0.00  0.00    +0.000 A 
ATOM     16  C   UNL     1      48.590   6.057  15.849  0.00  0.00    +0.000 A 
ATOM     17  C   UNL     1      47.973   6.148  14.602  0.00  0.00    +0.000 A 
ATOM     18  C   UNL     1      47.103   5.145  14.177  0.00  0.00    +0.000 A 
ATOM     19  N   UNL     1      46.457   5.178  12.966  0.00  0.00    +0.000 N 
ATOM     20  N   UNL     1      46.837   4.078  14.956  0.00  0.00    +0.000 NA
ATOM     21  C   UNL     1      47.437   4.010  16.172  0.00  0.00    +0.000 A 
ATOM     22  H   UNL     1      45.914   4.350  12.752  0.00  0.00    +0.000 HD
BRANCH  15  24
ATOM     23  N   UNL     1      49.406   4.721  18.993  0.00  0.00    +0.000 NA
ATOM     24  C   UNL     1      48.917   4.825  17.945  0.00  0.00    +0.000 C 
ENDBRANCH  15  24
ENDBRANCH  14  19
ENDBRANCH   1  14
TORSDOF 6
ENDMDL
MODEL 5
REMARK VINA RESULT:    -6.663      2.674      3.059
REMARK INTER + INTRA:          -9.867
REMARK INTER:                  -9.219
REMARK INTRA:                  -0.648
REMARK UNBOUND:                -0.866
REMARK  Name = 
REMARK  6 active torsions:
REMARK  status: ('A' for Active; 'I' for Inactive)
REMARK    1  A    between atoms: C_2  and  C_3
REMARK    2  A    between atoms: N_7  and  C_8
REMARK    3  A    between atoms: C_8  and  C_9
REMARK    4  A    between atoms: C_9  and  C_10
REMARK    5  A    between atoms: C_14  and  O_15
REMARK    6  A    between atoms: O_15  and  C_16
REMARK                            x       y       z     vdW  Elec       q    Type
REMARK                         _______ _______ _______ _____ _____    ______ ____
ROOT
ATOM      1  C   UNL     1      43.856   5.276  12.203  0.00  0.00    +0.000 C 
ENDROOT
BRANCH   1   2
ATOM      2  C   UNL     1      44.614   6.583  12.151  0.00  0.00    +0.000 A 
ATOM      3  C   UNL     1      44.099   7.676  11.444  0.00  0.00    +0.000 A 
ATOM      4  C   UNL     1      44.739   8.916  11.500  0.00  0.00    +0.000 A 
ATOM      5  C   UNL     1      45.898   9.081  12.263  0.00  0.00    +0.000 A 
ATOM      6  C   UNL     1      46.422   7.998  12.965  0.00  0.00    +0.000 A 
ATOM      7  C   UNL     1      45.783   6.757  12.908  0.00  0.00    +0.000 A 
BRANCH   6   8
ATOM      8  O   UNL     1      47.521   8.046  13.787  0.00  0.00    +0.000 OA
BRANCH   8   9
ATOM      9  C   UNL     1      48.808   8.376  13.224  0.00  0.00    +0.000 C 
ATOM     10  C   UNL     1      49.304   7.539  12.024  0.00  0.00    +0.000 C 
ATOM     11  N   UNL     1      50.636   7.435  12.657  0.00  0.00    +0.000 NA
ATOM     12  C   UNL     1      50.018   7.756  13.961  0.00  0.00    +0.000 C 
ATOM     13  H   UNL     1      51.300   8.140  12.337  0.00  0.00    +0.000 HD
ENDBRANCH   8   9
ENDBRANCH   6   8
ENDBRANCH   1   2
BRANCH   1  14
ATOM     14  C   UNL     1      43.524   4.833  10.778  0.00  0.00    +0.000 C 
BRANCH  14  19
ATOM     15  C   UNL     1      46.622   2.430   7.504  0.00  0.00    +0.000 A 
ATOM     16  C   UNL     1      46.335   3.776   7.683  0.00  0.00    +0.000 A 
ATOM     17  C   UNL     1      45.442   4.150   8.686  0.00  0.00    +0.000 A 
ATOM     18  C   UNL     1      44.842   3.180   9.486  0.00  0.00    +0.000 A 
ATOM     19  N   UNL     1      43.961   3.481  10.495  0.00  0.00    +0.000 N 
ATOM     20  N   UNL     1      45.111   1.871   9.314  0.00  0.00    +0.000 NA
ATOM     21  C   UNL     1      45.992   1.523   8.341  0.00  0.00    +0.000 A 
ATOM     22  H   UNL     1      43.542   2.678  10.948  0.00  0.00    +0.000 HD
BRANCH  15  24
ATOM     23  N   UNL     1      48.280   1.637   5.682  0.00  0.00    +0.000 NA
ATOM     24  C   UNL     1      47.532   1.993   6.496  0.00  0.00    +0.000 C 
ENDBRANCH  15  24
ENDBRANCH  14  19
ENDBRANCH   1  14
TORSDOF 6
ENDMDL
MODEL 6
REMARK VINA RESULT:    -6.463      3.532      7.675
REMARK INTER + INTRA:          -9.597
REMARK INTER:                  -9.189
REMARK INTRA:                  -0.407
REMARK UNBOUND:                -0.866
REMARK  Name = 
REMARK  6 active torsions:
REMARK  status: ('A' for Active; 'I' for Inactive)
REMARK    1  A    between atoms: C_2  and  C_3
REMARK    2  A    between atoms: N_7  and  C_8
REMARK    3  A    between atoms: C_8  and  C_9
REMARK    4  A    between atoms: C_9  and  C_10
REMARK    5  A    between atoms: C_14  and  O_15
REMARK    6  A    between atoms: O_15  and  C_16
REMARK                            x       y       z     vdW  Elec       q    Type
REMARK                         _______ _______ _______ _____ _____    ______ ____
ROOT
ATOM      1  C   UNL     1      45.167   6.261  10.942  0.00  0.00    +0.000 C 
ENDROOT
BRANCH   1   2
ATOM      2  C   UNL     1      45.036   4.875  10.352  0.00  0.00    +0.000 A 
ATOM      3  C   UNL     1      44.386   3.859  11.063  0.00  0.00    +0.000 A 
ATOM      4  C   UNL     1      44.159   2.617  10.467  0.00  0.00    +0.000 A 
ATOM      5  C   UNL     1      44.574   2.374   9.155  0.00  0.00    +0.000 A 
ATOM      6  C   UNL     1      45.227   3.377   8.441  0.00  0.00    +0.000 A 
ATOM      7  C   UNL     1      45.456   4.619   9.039  0.00  0.00    +0.000 A 
BRANCH   6   8
ATOM      8  O   UNL     1      45.636   3.278   7.135  0.00  0.00    +0.000 OA
BRANCH   8   9
ATOM      9  C   UNL     1      47.039   3.092   6.847  0.00  0.00    +0.000 C 
ATOM     10  C   UNL     1      47.443   2.821   5.381  0.00  0.00    +0.000 C 
ATOM     11  N   UNL     1      48.335   1.735   5.837  0.00  0.00    +0.000 NA
ATOM     12  C   UNL     1      47.569   1.662   7.098  0.00  0.00    +0.000 C 
ATOM     13  H   UNL     1      49.304   2.026   5.966  0.00  0.00    +0.000 HD
ENDBRANCH   8   9
ENDBRANCH   6   8
ENDBRANCH   1   2
BRANCH   1  14
ATOM     14  C   UNL     1      45.275   6.151  12.463  0.00  0.00    +0.000 C 
BRANCH  14  19
ATOM     15  C   UNL     1      49.789   8.430  13.174  0.00  0.00    +0.000 A 
ATOM     16  C   UNL     1      49.440   7.266  12.505  0.00  0.00    +0.000 A 
ATOM     17  C   UNL     1      48.100   6.887  12.461  0.00  0.00    +0.000 A 
ATOM     18  C   UNL     1      47.131   7.667  13.090  0.00  0.00    +0.000 A 
ATOM     19  N   UNL     1      45.794   7.355  13.077  0.00  0.00    +0.000 N 
ATOM     20  N   UNL     1      47.463   8.796  13.746  0.00  0.00    +0.000 NA
ATOM     21  C   UNL     1      48.772   9.157  13.771  0.00  0.00    +0.000 A 
ATOM     22  H   UNL     1      45.210   7.964  13.637  0.00  0.00    +0.000 HD
BRANCH  15  24
ATOM     23  N   UNL     1      52.247   9.231  13.306  0.00  0.00    +0.000 NA
ATOM     24  C   UNL     1      51.146   8.866  13.246  0.00  0.00    +0.000 C 
ENDBRANCH  15  24
ENDBRANCH  14  19
ENDBRANCH   1  14
TORSDOF 6
ENDMDL
MODEL 7
REMARK VINA RESULT:    -6.046      2.978      4.891
REMARK INTER + INTRA:          -9.033
REMARK INTER:                  -8.256
REMARK INTRA:                  -0.777
REMARK UNBOUND:                -0.866
REMARK  Name = 
REMARK  6 active torsions:
REMARK  status: ('A' for Active; 'I' for Inactive)
REMARK    1  A    between atoms: C_2  and  C_3
REMARK    2  A    between atoms: N_7  and  C_8
REMARK    3  A    between atoms: C_8  and  C_9
REMARK    4  A    between atoms: C_9  and  C_10
REMARK    5  A    between atoms: C_14  and  O_15
REMARK    6  A    between atoms: O_15  and  C_16
REMARK                            x       y       z     vdW  Elec       q    Type
REMARK                         _______ _______ _______ _____ _____    ______ ____
ROOT
ATOM      1  C   UNL     1      45.634   5.005  13.156  0.00  0.00    +0.000 C 
ENDROOT
BRANCH   1   2
ATOM      2  C   UNL     1      46.117   6.411  12.884  0.00  0.00    +0.000 A 
ATOM      3  C   UNL     1      47.484   6.681  12.754  0.00  0.00    +0.000 A 
ATOM      4  C   UNL     1      47.919   7.955  12.383  0.00  0.00    +0.000 A 
ATOM      5  C   UNL     1      46.995   8.973  12.134  0.00  0.00    +0.000 A 
ATOM      6  C   UNL     1      45.632   8.717  12.267  0.00  0.00    +0.000 A 
ATOM      7  C   UNL     1      45.198   7.443  12.641  0.00  0.00    +0.000 A 
BRANCH   6   8
ATOM      8  O   UNL     1      44.629   9.617  12.002  0.00  0.00    +0.000 OA
BRANCH   8   9
ATOM      9  C   UNL     1      44.079   9.687  10.670  0.00  0.00    +0.000 C 
ATOM     10  C   UNL     1      44.076  11.062   9.964  0.00  0.00    +0.000 C 
ATOM     11  N   UNL     1      42.680  10.829   9.536  0.00  0.00    +0.000 NA
ATOM     12  C   UNL     1      42.540   9.823  10.609  0.00  0.00    +0.000 C 
ATOM     13  H   UNL     1      42.598  10.437   8.598  0.00  0.00    +0.000 HD
ENDBRANCH   8   9
ENDBRANCH   6   8
ENDBRANCH   1   2
BRANCH   1  14
ATOM     14  C   UNL     1      44.355   4.750  12.358  0.00  0.00    +0.000 C 
BRANCH  14  19
ATOM     15  C   UNL     1      45.912   3.295   7.717  0.00  0.00    +0.000 A 
ATOM     16  C   UNL     1      45.962   4.521   8.362  0.00  0.00    +0.000 A 
ATOM     17  C   UNL     1      45.464   4.623   9.660  0.00  0.00    +0.000 A 
ATOM     18  C   UNL     1      44.917   3.507  10.290  0.00  0.00    +0.000 A 
ATOM     19  N   UNL     1      44.418   3.538  11.569  0.00  0.00    +0.000 N 
ATOM     20  N   UNL     1      44.860   2.314   9.667  0.00  0.00    +0.000 NA
ATOM     21  C   UNL     1      45.360   2.228   8.407  0.00  0.00    +0.000 A 
ATOM     22  H   UNL     1      43.982   2.677  11.875  0.00  0.00    +0.000 HD
BRANCH  15  24
ATOM     23  N   UNL     1      46.826   3.009   5.312  0.00  0.00    +0.000 NA
ATOM     24  C   UNL     1      46.411   3.134   6.390  0.00  0.00    +0.000 C 
ENDBRANCH  15  24
ENDBRANCH  14  19
ENDBRANCH   1  14
TORSDOF 6
ENDMDL
MODEL 8
REMARK VINA RESULT:    -5.734      3.052      4.877
REMARK INTER + INTRA:          -8.611
REMARK INTER:                  -7.858
REMARK INTRA:                  -0.754
REMARK UNBOUND:                -0.866
REMARK  Name = 
REMARK  6 active torsions:
REMARK  status: ('A' for Active; 'I' for Inactive)
REMARK    1  A    between atoms: C_2  and  C_3
REMARK    2  A    between atoms: N_7  and  C_8
REMARK    3  A    between atoms: C_8  and  C_9
REMARK    4  A    between atoms: C_9  and  C_10
REMARK    5  A    between atoms: C_14  and  O_15
REMARK    6  A    between atoms: O_15  and  C_16
REMARK                            x       y       z     vdW  Elec       q    Type
REMARK                         _______ _______ _______ _____ _____    ______ ____
ROOT
ATOM      1  C   UNL     1      47.874   8.742  14.040  0.00  0.00    +0.000 C 
ENDROOT
BRANCH   1   2
ATOM      2  C   UNL     1      48.551   8.175  15.266  0.00  0.00    +0.000 A 
ATOM      3  C   UNL     1      48.859   9.001  16.354  0.00  0.00    +0.000 A 
ATOM      4  C   UNL     1      49.373   8.453  17.531  0.00  0.00    +0.000 A 
ATOM      5  C   UNL     1      49.581   7.076  17.639  0.00  0.00    +0.000 A 
ATOM      6  C   UNL     1      49.283   6.246  16.561  0.00  0.00    +0.000 A 
ATOM      7  C   UNL     1      48.772   6.794  15.382  0.00  0.00    +0.000 A 
BRANCH   6   8
ATOM      8  O   UNL     1      49.396   4.877  16.562  0.00  0.00    +0.000 OA
BRANCH   8   9
ATOM      9  C   UNL     1      48.636   4.108  17.518  0.00  0.00    +0.000 C 
ATOM     10  C   UNL     1      48.087   2.737  17.063  0.00  0.00    +0.000 C 
ATOM     11  N   UNL     1      46.783   3.066  17.676  0.00  0.00    +0.000 NA
ATOM     12  C   UNL     1      47.144   4.498  17.627  0.00  0.00    +0.000 C 
ATOM     13  H   UNL     1      46.671   2.707  18.623  0.00  0.00    +0.000 HD
ENDBRANCH   8   9
ENDBRANCH   6   8
ENDBRANCH   1   2
BRANCH   1  14
ATOM     14  C   UNL     1      48.190   7.854  12.837  0.00  0.00    +0.000 C 
BRANCH  14  19
ATOM     15  C   UNL     1      44.660   4.303  11.828  0.00  0.00    +0.000 A 
ATOM     16  C   UNL     1      45.686   4.344  12.761  0.00  0.00    +0.000 A 
ATOM     17  C   UNL     1      46.503   5.471  12.820  0.00  0.00    +0.000 A 
ATOM     18  C   UNL     1      46.292   6.535  11.944  0.00  0.00    +0.000 A 
ATOM     19  N   UNL     1      47.055   7.677  11.956  0.00  0.00    +0.000 N 
ATOM     20  N   UNL     1      45.301   6.500  11.032  0.00  0.00    +0.000 NA
ATOM     21  C   UNL     1      44.507   5.399  10.995  0.00  0.00    +0.000 A 
ATOM     22  H   UNL     1      46.843   8.336  11.217  0.00  0.00    +0.000 HD
BRANCH  15  24
ATOM     23  N   UNL     1      43.084   2.258  11.636  0.00  0.00    +0.000 NA
ATOM     24  C   UNL     1      43.792   3.175  11.728  0.00  0.00    +0.000 C 
ENDBRANCH  15  24
ENDBRANCH  14  19
ENDBRANCH   1  14
TORSDOF 6
ENDMDL
MODEL 9
REMARK VINA RESULT:    -5.384      3.339      8.045
REMARK INTER + INTRA:          -8.139
REMARK INTER:                  -7.273
REMARK INTRA:                  -0.866
REMARK UNBOUND:                -0.866
REMARK  Name = 
REMARK  6 active torsions:
REMARK  status: ('A' for Active; 'I' for Inactive)
REMARK    1  A    between atoms: C_2  and  C_3
REMARK    2  A    between atoms: N_7  and  C_8
REMARK    3  A    between atoms: C_8  and  C_9
REMARK    4  A    between atoms: C_9  and  C_10
REMARK    5  A    between atoms: C_14  and  O_15
REMARK    6  A    between atoms: O_15  and  C_16
REMARK                            x       y       z     vdW  Elec       q    Type
REMARK                         _______ _______ _______ _____ _____    ______ ____
ROOT
ATOM      1  C   UNL     1      49.397   8.226  11.714  0.00  0.00    +0.000 C 
ENDROOT
BRANCH   1   2
ATOM      2  C   UNL     1      47.962   7.949  12.102  0.00  0.00    +0.000 A 
ATOM      3  C   UNL     1      47.127   8.990  12.526  0.00  0.00    +0.000 A 
ATOM      4  C   UNL     1      45.772   8.752  12.766  0.00  0.00    +0.000 A 
ATOM      5  C   UNL     1      45.234   7.477  12.581  0.00  0.00    +0.000 A 
ATOM      6  C   UNL     1      46.056   6.433  12.164  0.00  0.00    +0.000 A 
ATOM      7  C   UNL     1      47.413   6.670  11.927  0.00  0.00    +0.000 A 
BRANCH   6   8
ATOM      8  O   UNL     1      45.637   5.153  11.900  0.00  0.00    +0.000 OA
BRANCH   8   9
ATOM      9  C   UNL     1      44.232   4.901  11.686  0.00  0.00    +0.000 C 
ATOM     10  C   UNL     1      43.528   3.903  12.632  0.00  0.00    +0.000 C 
ATOM     11  N   UNL     1      42.878   3.269  11.465  0.00  0.00    +0.000 NA
ATOM     12  C   UNL     1      43.919   3.853  10.594  0.00  0.00    +0.000 C 
ATOM     13  H   UNL     1      41.941   3.625  11.274  0.00  0.00    +0.000 HD
ENDBRANCH   8   9
ENDBRANCH   6   8
ENDBRANCH   1   2
BRANCH   1  14
ATOM     14  C   UNL     1      50.208   8.523  12.975  0.00  0.00    +0.000 C 
BRANCH  14  19
ATOM     15  C   UNL     1      48.670   7.328  17.696  0.00  0.00    +0.000 A 
ATOM     16  C   UNL     1      48.488   8.469  16.929  0.00  0.00    +0.000 A 
ATOM     17  C   UNL     1      49.019   8.511  15.641  0.00  0.00    +0.000 A 
ATOM     18  C   UNL     1      49.731   7.421  15.141  0.00  0.00    +0.000 A 
ATOM     19  N   UNL     1      50.272   7.395  13.880  0.00  0.00    +0.000 N 
ATOM     20  N   UNL     1      49.917   6.312  15.883  0.00  0.00    +0.000 NA
ATOM     21  C   UNL     1      49.383   6.283  17.132  0.00  0.00    +0.000 A 
ATOM     22  H   UNL     1      50.828   6.574  13.674  0.00  0.00    +0.000 HD
BRANCH  15  24
ATOM     23  N   UNL     1      47.723   7.159  20.099  0.00  0.00    +0.000 NA
ATOM     24  C   UNL     1      48.144   7.231  19.019  0.00  0.00    +0.000 C 
ENDBRANCH  15  24
ENDBRANCH  14  19
ENDBRANCH   1  14
TORSDOF 6
ENDMDL
