MODEL 1
REMARK VINA RESULT:    -7.716      0.000      0.000
REMARK INTER + INTRA:          -9.982
REMARK INTER:                  -9.520
REMARK INTRA:                  -0.463
REMARK UNBOUND:                -0.463
REMARK  Name = 
REMARK  4 active torsions:
REMARK  status: ('A' for Active; 'I' for Inactive)
REMARK    1  A    between atoms: C_2  and  C_4
REMARK    2  A    between atoms: C_7  and  O_8
REMARK    3  A    between atoms: O_8  and  C_9
REMARK    4  A    between atoms: C_9  and  C_10
REMARK                            x       y       z     vdW  Elec       q    Type
REMARK                         _______ _______ _______ _____ _____    ______ ____
ROOT
ATOM      1  C   UNL     1      46.356   4.777  13.196  0.00  0.00    +0.000 A 
ATOM      2  C   UNL     1      46.193   5.710  12.180  0.00  0.00    +0.000 A 
ATOM      3  C   UNL     1      45.438   5.343  11.066  0.00  0.00    +0.000 A 
ATOM      4  C   UNL     1      44.886   4.065  10.999  0.00  0.00    +0.000 A 
ATOM      5  C   UNL     1      45.072   3.220  12.089  0.00  0.00    +0.000 A 
ATOM      6  N   UNL     1      45.803   3.532  13.180  0.00  0.00    +0.000 NA
ENDROOT
BRANCH   1   8
ATOM      7  N   UNL     1      46.828   4.447  15.542  0.00  0.00    +0.000 N 
ATOM      8  C   UNL     1      47.188   5.099  14.395  0.00  0.00    +0.000 C 
ATOM      9  O   UNL     1      48.132   5.879  14.358  0.00  0.00    +0.000 OA
ATOM     10  H   UNL     1      47.349   4.598  16.393  0.00  0.00    +0.000 HD
ATOM     11  H   UNL     1      46.056   3.790  15.519  0.00  0.00    +0.000 HD
ENDBRANCH   1   8
BRANCH   4  12
ATOM     12  O   UNL     1      44.212   3.749   9.853  0.00  0.00    +0.000 OA
BRANCH  12  13
ATOM     13  C   UNL     1      44.430   2.414   9.389  0.00  0.00    +0.000 C 
BRANCH  13  14
ATOM     14  C   UNL     1      45.518   2.411   8.349  0.00  0.00    +0.000 A 
ATOM     15  C   UNL     1      46.286   1.256   8.138  0.00  0.00    +0.000 A 
ATOM     16  C   UNL     1      47.284   1.241   7.167  0.00  0.00    +0.000 A 
ATOM     17  C   UNL     1      47.526   2.378   6.400  0.00  0.00    +0.000 A 
ATOM     18  C   UNL     1      46.769   3.532   6.603  0.00  0.00    +0.000 A 
ATOM     19  C   UNL     1      45.769   3.550   7.575  0.00  0.00    +0.000 A 
ENDBRANCH  13  14
ENDBRANCH  12  13
ENDBRANCH   4  12
TORSDOF 4
ENDMDL
MODEL 2
REMARK VINA RESULT:    -7.407      2.829      5.910
REMARK INTER + INTRA:          -9.602
REMARK INTER:                  -9.031
REMARK INTRA:                  -0.571
REMARK UNBOUND:                -0.463
REMARK  Name = 
REMARK  4 active torsions:
REMARK  status: ('A' for Active; 'I' for Inactive)
REMARK    1  A    between atoms: C_2  and  C_4
REMARK    2  A    between atoms: C_7  and  O_8
REMARK    3  A    between atoms: O_8  and  C_9
REMARK    4  A    between atoms: C_9  and  C_10
REMARK                            x       y       z     vdW  Elec       q    Type
REMARK                         _______ _______ _______ _____ _____    ______ ____
ROOT
ATOM      1  C   UNL     1      46.378   2.265   7.855  0.00  0.00    +0.000 A 
ATOM      2  C   UNL     1      46.326   3.637   7.649  0.00  0.00    +0.000 A 
ATOM      3  C   UNL     1      45.399   4.377   8.382  0.00  0.00    +0.000 A 
ATOM      4  C   UNL     1      44.554   3.726   9.279  0.00  0.00    +0.000 A 
ATOM      5  C   UNL     1      44.715   2.354   9.444  0.00  0.00    +0.000 A 
ATOM      6  N   UNL     1      45.591   1.599   8.748  0.00  0.00    +0.000 NA
ENDROOT
BRANCH   1   8
ATOM      7  N   UNL     1      48.424   2.066   6.585  0.00  0.00    +0.000 N 
ATOM      8  C   UNL     1      47.323   1.414   7.069  0.00  0.00    +0.000 C 
ATOM      9  O   UNL     1      47.138   0.219   6.877  0.00  0.00    +0.000 OA
ATOM     10  H   UNL     1      49.118   1.559   6.056  0.00  0.00    +0.000 HD
ATOM     11  H   UNL     1      48.549   3.051   6.792  0.00  0.00    +0.000 HD
ENDBRANCH   1   8
BRANCH   4  12
ATOM     12  O   UNL     1      43.627   4.501   9.918  0.00  0.00    +0.000 OA
BRANCH  12  13
ATOM     13  C   UNL     1      43.595   4.333  11.339  0.00  0.00    +0.000 C 
BRANCH  13  14
ATOM     14  C   UNL     1      44.760   5.058  11.960  0.00  0.00    +0.000 A 
ATOM     15  C   UNL     1      45.645   4.371  12.803  0.00  0.00    +0.000 A 
ATOM     16  C   UNL     1      46.734   5.031  13.369  0.00  0.00    +0.000 A 
ATOM     17  C   UNL     1      46.946   6.381  13.099  0.00  0.00    +0.000 A 
ATOM     18  C   UNL     1      46.070   7.073  12.264  0.00  0.00    +0.000 A 
ATOM     19  C   UNL     1      44.979   6.415  11.696  0.00  0.00    +0.000 A 
ENDBRANCH  13  14
ENDBRANCH  12  13
ENDBRANCH   4  12
TORSDOF 4
ENDMDL
MODEL 3
REMARK VINA RESULT:    -5.856      2.282      2.897
REMARK INTER + INTRA:          -7.688
REMARK INTER:                  -7.218
REMARK INTRA:                  -0.470
REMARK UNBOUND:                -0.463
REMARK  Name = 
REMARK  4 active torsions:
REMARK  status: ('A' for Active; 'I' for Inactive)
REMARK    1  A    between atoms: C_2  and  C_4
REMARK    2  A    between atoms: C_7  and  O_8
REMARK    3  A    between atoms: O_8  and  C_9
REMARK    4  A    between atoms: C_9  and  C_10
REMARK                            x       y       z     vdW  Elec       q    Type
REMARK                         _______ _______ _______ _____ _____    ______ ____
ROOT
ATOM      1  C   UNL     1      48.251   7.216  13.088  0.00  0.00    +0.000 A 
ATOM      2  C   UNL     1      47.416   7.584  12.041  0.00  0.00    +0.000 A 
ATOM      3  C   UNL     1      46.351   6.742  11.721  0.00  0.00    +0.000 A 
ATOM      4  C   UNL     1      46.165   5.564  12.443  0.00  0.00    +0.000 A 
ATOM      5  C   UNL     1      47.032   5.307  13.501  0.00  0.00    +0.000 A 
ATOM      6  N   UNL     1      48.079   6.090  13.837  0.00  0.00    +0.000 NA
ENDROOT
BRANCH   1   8
ATOM      7  N   UNL     1      50.488   7.375  13.987  0.00  0.00    +0.000 N 
ATOM      8  C   UNL     1      49.431   8.058  13.450  0.00  0.00    +0.000 C 
ATOM      9  O   UNL     1      49.462   9.269  13.271  0.00  0.00    +0.000 OA
ATOM     10  H   UNL     1      51.330   7.869  14.244  0.00  0.00    +0.000 HD
ATOM     11  H   UNL     1      50.427   6.368  14.091  0.00  0.00    +0.000 HD
ENDBRANCH   1   8
BRANCH   4  12
ATOM     12  O   UNL     1      45.142   4.753  12.038  0.00  0.00    +0.000 OA
BRANCH  12  13
ATOM     13  C   UNL     1      44.588   5.092  10.763  0.00  0.00    +0.000 C 
BRANCH  13  14
ATOM     14  C   UNL     1      45.087   4.127   9.721  0.00  0.00    +0.000 A 
ATOM     15  C   UNL     1      44.881   2.750   9.884  0.00  0.00    +0.000 A 
ATOM     16  C   UNL     1      45.325   1.851   8.917  0.00  0.00    +0.000 A 
ATOM     17  C   UNL     1      45.980   2.321   7.780  0.00  0.00    +0.000 A 
ATOM     18  C   UNL     1      46.191   3.688   7.610  0.00  0.00    +0.000 A 
ATOM     19  C   UNL     1      45.748   4.590   8.577  0.00  0.00    +0.000 A 
ENDBRANCH  13  14
ENDBRANCH  12  13
ENDBRANCH   4  12
TORSDOF 4
ENDMDL
MODEL 4
REMARK VINA RESULT:    -5.202      3.544      6.376
REMARK INTER + INTRA:          -6.881
REMARK INTER:                  -6.550
REMARK INTRA:                  -0.331
REMARK UNBOUND:                -0.463
REMARK  Name = 
REMARK  4 active torsions:
REMARK  status: ('A' for Active; 'I' for Inactive)
REMARK    1  A    between atoms: C_2  and  C_4
REMARK    2  A    between atoms: C_7  and  O_8
REMARK    3  A    between atoms: O_8  and  C_9
REMARK    4  A    between atoms: C_9  and  C_10
REMARK                            x       y       z     vdW  Elec       q    Type
REMARK                         _______ _______ _______ _____ _____    ______ ____
ROOT
ATOM      1  C   UNL     1      44.720   3.951  11.443  0.00  0.00    +0.000 A 
ATOM      2  C   UNL     1      45.463   3.888  12.614  0.00  0.00    +0.000 A 
ATOM      3  C   UNL     1      46.206   5.009  12.982  0.00  0.00    +0.000 A 
ATOM      4  C   UNL     1      46.192   6.141  12.169  0.00  0.00    +0.000 A 
ATOM      5  C   UNL     1      45.381   6.118  11.038  0.00  0.00    +0.000 A 
ATOM      6  N   UNL     1      44.655   5.052  10.641  0.00  0.00    +0.000 NA
ENDROOT
BRANCH   1   8
ATOM      7  N   UNL     1      44.411   2.167   9.843  0.00  0.00    +0.000 N 
ATOM      8  C   UNL     1      43.936   2.766  10.977  0.00  0.00    +0.000 C 
ATOM      9  O   UNL     1      42.947   2.351  11.568  0.00  0.00    +0.000 OA
ATOM     10  H   UNL     1      43.947   1.351   9.471  0.00  0.00    +0.000 HD
ATOM     11  H   UNL     1      45.249   2.530   9.403  0.00  0.00    +0.000 HD
ENDBRANCH   1   8
BRANCH   4  12
ATOM     12  O   UNL     1      46.991   7.181  12.553  0.00  0.00    +0.000 OA
BRANCH  12  13
ATOM     13  C   UNL     1      48.379   6.851  12.663  0.00  0.00    +0.000 C 
BRANCH  13  14
ATOM     14  C   UNL     1      49.210   7.948  12.051  0.00  0.00    +0.000 A 
ATOM     15  C   UNL     1      48.724   9.263  12.019  0.00  0.00    +0.000 A 
ATOM     16  C   UNL     1      49.493  10.285  11.469  0.00  0.00    +0.000 A 
ATOM     17  C   UNL     1      50.753  10.003  10.945  0.00  0.00    +0.000 A 
ATOM     18  C   UNL     1      51.244   8.698  10.971  0.00  0.00    +0.000 A 
ATOM     19  C   UNL     1      50.475   7.672  11.521  0.00  0.00    +0.000 A 
ENDBRANCH  13  14
ENDBRANCH  12  13
ENDBRANCH   4  12
TORSDOF 4
ENDMDL
MODEL 5
REMARK VINA RESULT:    -5.183      3.828      6.483
REMARK INTER + INTRA:          -6.857
REMARK INTER:                  -6.444
REMARK INTRA:                  -0.413
REMARK UNBOUND:                -0.463
REMARK  Name = 
REMARK  4 active torsions:
REMARK  status: ('A' for Active; 'I' for Inactive)
REMARK    1  A    between atoms: C_2  and  C_4
REMARK    2  A    between atoms: C_7  and  O_8
REMARK    3  A    between atoms: O_8  and  C_9
REMARK    4  A    between atoms: C_9  and  C_10
REMARK                            x       y       z     vdW  Elec       q    Type
REMARK                         _______ _______ _______ _____ _____    ______ ____
ROOT
ATOM      1  C   UNL     1      44.475   5.100  12.168  0.00  0.00    +0.000 A 
ATOM      2  C   UNL     1      45.190   6.161  11.629  0.00  0.00    +0.000 A 
ATOM      3  C   UNL     1      46.474   6.404  12.116  0.00  0.00    +0.000 A 
ATOM      4  C   UNL     1      46.991   5.594  13.125  0.00  0.00    +0.000 A 
ATOM      5  C   UNL     1      46.211   4.530  13.568  0.00  0.00    +0.000 A 
ATOM      6  N   UNL     1      44.961   4.266  13.131  0.00  0.00    +0.000 NA
ENDROOT
BRANCH   1   8
ATOM      7  N   UNL     1      42.224   5.884  11.768  0.00  0.00    +0.000 N 
ATOM      8  C   UNL     1      43.079   4.817  11.714  0.00  0.00    +0.000 C 
ATOM      9  O   UNL     1      42.722   3.717  11.312  0.00  0.00    +0.000 OA
ATOM     10  H   UNL     1      41.268   5.779  11.464  0.00  0.00    +0.000 HD
ATOM     11  H   UNL     1      42.572   6.783  12.082  0.00  0.00    +0.000 HD
ENDBRANCH   1   8
BRANCH   4  12
ATOM     12  O   UNL     1      48.229   5.924  13.601  0.00  0.00    +0.000 OA
BRANCH  12  13
ATOM     13  C   UNL     1      48.436   7.327  13.787  0.00  0.00    +0.000 C 
BRANCH  13  14
ATOM     14  C   UNL     1      49.737   7.736  13.149  0.00  0.00    +0.000 A 
ATOM     15  C   UNL     1      49.902   7.630  11.761  0.00  0.00    +0.000 A 
ATOM     16  C   UNL     1      51.097   8.022  11.161  0.00  0.00    +0.000 A 
ATOM     17  C   UNL     1      52.137   8.520  11.943  0.00  0.00    +0.000 A 
ATOM     18  C   UNL     1      51.983   8.627  13.325  0.00  0.00    +0.000 A 
ATOM     19  C   UNL     1      50.787   8.236  13.927  0.00  0.00    +0.000 A 
ENDBRANCH  13  14
ENDBRANCH  12  13
ENDBRANCH   4  12
TORSDOF 4
ENDMDL
MODEL 6
REMARK VINA RESULT:    -5.054      3.687      7.693
REMARK INTER + INTRA:          -6.699
REMARK INTER:                  -6.348
REMARK INTRA:                  -0.351
REMARK UNBOUND:                -0.463
REMARK  Name = 
REMARK  4 active torsions:
REMARK  status: ('A' for Active; 'I' for Inactive)
REMARK    1  A    between atoms: C_2  and  C_4
REMARK    2  A    between atoms: C_7  and  O_8
REMARK    3  A    between atoms: O_8  and  C_9
REMARK    4  A    between atoms: C_9  and  C_10
REMARK                            x       y       z     vdW  Elec       q    Type
REMARK                         _______ _______ _______ _____ _____    ______ ____
ROOT
ATOM      1  C   UNL     1      44.752   5.074  11.901  0.00  0.00    +0.000 A 
ATOM      2  C   UNL     1      45.423   6.202  12.355  0.00  0.00    +0.000 A 
ATOM      3  C   UNL     1      46.464   6.026  13.266  0.00  0.00    +0.000 A 
ATOM      4  C   UNL     1      46.788   4.742  13.700  0.00  0.00    +0.000 A 
ATOM      5  C   UNL     1      46.084   3.674  13.152  0.00  0.00    +0.000 A 
ATOM      6  N   UNL     1      45.064   3.801  12.276  0.00  0.00    +0.000 NA
ENDROOT
BRANCH   1   8
ATOM      7  N   UNL     1      43.869   4.835   9.664  0.00  0.00    +0.000 N 
ATOM      8  C   UNL     1      43.603   5.204  10.954  0.00  0.00    +0.000 C 
ATOM      9  O   UNL     1      42.498   5.599  11.303  0.00  0.00    +0.000 OA
ATOM     10  H   UNL     1      43.141   4.879   8.967  0.00  0.00    +0.000 HD
ATOM     11  H   UNL     1      44.792   4.488   9.428  0.00  0.00    +0.000 HD
ENDBRANCH   1   8
BRANCH   4  12
ATOM     12  O   UNL     1      47.775   4.645  14.640  0.00  0.00    +0.000 OA
BRANCH  12  13
ATOM     13  C   UNL     1      47.435   3.839  15.773  0.00  0.00    +0.000 C 
BRANCH  13  14
ATOM     14  C   UNL     1      48.062   4.419  17.013  0.00  0.00    +0.000 A 
ATOM     15  C   UNL     1      48.159   3.645  18.178  0.00  0.00    +0.000 A 
ATOM     16  C   UNL     1      48.752   4.168  19.325  0.00  0.00    +0.000 A 
ATOM     17  C   UNL     1      49.251   5.469  19.317  0.00  0.00    +0.000 A 
ATOM     18  C   UNL     1      49.158   6.247  18.164  0.00  0.00    +0.000 A 
ATOM     19  C   UNL     1      48.564   5.725  17.015  0.00  0.00    +0.000 A 
ENDBRANCH  13  14
ENDBRANCH  12  13
ENDBRANCH   4  12
TORSDOF 4
ENDMDL
MODEL 7
REMARK VINA RESULT:    -5.028      2.610      4.517
REMARK INTER + INTRA:          -6.667
REMARK INTER:                  -6.326
REMARK INTRA:                  -0.341
REMARK UNBOUND:                -0.463
REMARK  Name = 
REMARK  4 active torsions:
REMARK  status: ('A' for Active; 'I' for Inactive)
REMARK    1  A    between atoms: C_2  and  C_4
REMARK    2  A    between atoms: C_7  and  O_8
REMARK    3  A    between atoms: O_8  and  C_9
REMARK    4  A    between atoms: C_9  and  C_10
REMARK                            x       y       z     vdW  Elec       q    Type
REMARK                         _______ _______ _______ _____ _____    ______ ____
ROOT
ATOM      1  C   UNL     1      48.698   5.719  16.530  0.00  0.00    +0.000 A 
ATOM      2  C   UNL     1      48.015   4.575  16.922  0.00  0.00    +0.000 A 
ATOM      3  C   UNL     1      47.152   3.977  16.004  0.00  0.00    +0.000 A 
ATOM      4  C   UNL     1      46.993   4.544  14.741  0.00  0.00    +0.000 A 
ATOM      5  C   UNL     1      47.755   5.666  14.431  0.00  0.00    +0.000 A 
ATOM      6  N   UNL     1      48.593   6.281  15.293  0.00  0.00    +0.000 NA
ENDROOT
BRANCH   1   8
ATOM      7  N   UNL     1      49.792   7.757  17.230  0.00  0.00    +0.000 N 
ATOM      8  C   UNL     1      49.606   6.425  17.485  0.00  0.00    +0.000 C 
ATOM      9  O   UNL     1      50.137   5.864  18.434  0.00  0.00    +0.000 OA
ATOM     10  H   UNL     1      50.378   8.309  17.838  0.00  0.00    +0.000 HD
ATOM     11  H   UNL     1      49.309   8.185  16.449  0.00  0.00    +0.000 HD
ENDBRANCH   1   8
BRANCH   4  12
ATOM     12  O   UNL     1      46.085   3.946  13.912  0.00  0.00    +0.000 OA
BRANCH  12  13
ATOM     13  C   UNL     1      45.186   4.853  13.267  0.00  0.00    +0.000 C 
BRANCH  13  14
ATOM     14  C   UNL     1      45.175   4.587  11.785  0.00  0.00    +0.000 A 
ATOM     15  C   UNL     1      45.573   5.589  10.888  0.00  0.00    +0.000 A 
ATOM     16  C   UNL     1      45.580   5.345   9.517  0.00  0.00    +0.000 A 
ATOM     17  C   UNL     1      45.189   4.099   9.030  0.00  0.00    +0.000 A 
ATOM     18  C   UNL     1      44.790   3.097   9.914  0.00  0.00    +0.000 A 
ATOM     19  C   UNL     1      44.781   3.339  11.287  0.00  0.00    +0.000 A 
ENDBRANCH  13  14
ENDBRANCH  12  13
ENDBRANCH   4  12
TORSDOF 4
ENDMDL
MODEL 8
REMARK VINA RESULT:    -5.019      3.585      6.625
REMARK INTER + INTRA:          -6.656
REMARK INTER:                  -6.273
REMARK INTRA:                  -0.383
REMARK UNBOUND:                -0.463
REMARK  Name = 
REMARK  4 active torsions:
REMARK  status: ('A' for Active; 'I' for Inactive)
REMARK    1  A    between atoms: C_2  and  C_4
REMARK    2  A    between atoms: C_7  and  O_8
REMARK    3  A    between atoms: O_8  and  C_9
REMARK    4  A    between atoms: C_9  and  C_10
REMARK                            x       y       z     vdW  Elec       q    Type
REMARK                         _______ _______ _______ _____ _____    ______ ____
ROOT
ATOM      1  C   UNL     1      45.086   4.179  12.098  0.00  0.00    +0.000 A 
ATOM      2  C   UNL     1      45.828   4.327  13.262  0.00  0.00    +0.000 A 
ATOM      3  C   UNL     1      46.724   5.393  13.340  0.00  0.00    +0.000 A 
ATOM      4  C   UNL     1      46.857   6.259  12.256  0.00  0.00    +0.000 A 
ATOM      5  C   UNL     1      46.037   6.049  11.152  0.00  0.00    +0.000 A 
ATOM      6  N   UNL     1      45.165   5.025  11.033  0.00  0.00    +0.000 NA
ENDROOT
BRANCH   1   8
ATOM      7  N   UNL     1      44.108   2.473  10.694  0.00  0.00    +0.000 N 
ATOM      8  C   UNL     1      44.140   3.032  11.942  0.00  0.00    +0.000 C 
ATOM      9  O   UNL     1      43.450   2.611  12.862  0.00  0.00    +0.000 OA
ATOM     10  H   UNL     1      43.506   1.684  10.510  0.00  0.00    +0.000 HD
ATOM     11  H   UNL     1      44.717   2.838   9.971  0.00  0.00    +0.000 HD
ENDBRANCH   1   8
BRANCH   4  12
ATOM     12  O   UNL     1      47.797   7.245  12.373  0.00  0.00    +0.000 OA
BRANCH  12  13
ATOM     13  C   UNL     1      47.440   8.300  13.270  0.00  0.00    +0.000 C 
BRANCH  13  14
ATOM     14  C   UNL     1      46.727   9.389  12.514  0.00  0.00    +0.000 A 
ATOM     15  C   UNL     1      45.326   9.421  12.483  0.00  0.00    +0.000 A 
ATOM     16  C   UNL     1      44.659  10.435  11.799  0.00  0.00    +0.000 A 
ATOM     17  C   UNL     1      45.386  11.423  11.139  0.00  0.00    +0.000 A 
ATOM     18  C   UNL     1      46.780  11.399  11.163  0.00  0.00    +0.000 A 
ATOM     19  C   UNL     1      47.450  10.385  11.847  0.00  0.00    +0.000 A 
ENDBRANCH  13  14
ENDBRANCH  12  13
ENDBRANCH   4  12
TORSDOF 4
ENDMDL
MODEL 9
REMARK VINA RESULT:    -4.748      4.001      5.833
REMARK INTER + INTRA:          -6.322
REMARK INTER:                  -5.917
REMARK INTRA:                  -0.405
REMARK UNBOUND:                -0.463
REMARK  Name = 
REMARK  4 active torsions:
REMARK  status: ('A' for Active; 'I' for Inactive)
REMARK    1  A    between atoms: C_2  and  C_4
REMARK    2  A    between atoms: C_7  and  O_8
REMARK    3  A    between atoms: O_8  and  C_9
REMARK    4  A    between atoms: C_9  and  C_10
REMARK                            x       y       z     vdW  Elec       q    Type
REMARK                         _______ _______ _______ _____ _____    ______ ____
ROOT
ATOM      1  C   UNL     1      48.453   4.894  18.061  0.00  0.00    +0.000 A 
ATOM      2  C   UNL     1      47.579   3.947  17.544  0.00  0.00    +0.000 A 
ATOM      3  C   UNL     1      47.175   4.080  16.217  0.00  0.00    +0.000 A 
ATOM      4  C   UNL     1      47.643   5.153  15.460  0.00  0.00    +0.000 A 
ATOM      5  C   UNL     1      48.550   6.023  16.058  0.00  0.00    +0.000 A 
ATOM      6  N   UNL     1      48.959   5.935  17.342  0.00  0.00    +0.000 NA
ENDROOT
BRANCH   1   8
ATOM      7  N   UNL     1      50.165   4.370  19.685  0.00  0.00    +0.000 N 
ATOM      8  C   UNL     1      48.889   4.825  19.490  0.00  0.00    +0.000 C 
ATOM      9  O   UNL     1      48.168   5.160  20.420  0.00  0.00    +0.000 OA
ATOM     10  H   UNL     1      50.540   4.308  20.620  0.00  0.00    +0.000 HD
ATOM     11  H   UNL     1      50.734   4.129  18.882  0.00  0.00    +0.000 HD
ENDBRANCH   1   8
BRANCH   4  12
ATOM     12  O   UNL     1      47.160   5.261  14.186  0.00  0.00    +0.000 OA
BRANCH  12  13
ATOM     13  C   UNL     1      46.671   4.035  13.633  0.00  0.00    +0.000 C 
BRANCH  13  14
ATOM     14  C   UNL     1      45.377   4.287  12.907  0.00  0.00    +0.000 A 
ATOM     15  C   UNL     1      44.884   5.594  12.784  0.00  0.00    +0.000 A 
ATOM     16  C   UNL     1      43.695   5.837  12.099  0.00  0.00    +0.000 A 
ATOM     17  C   UNL     1      42.989   4.778  11.534  0.00  0.00    +0.000 A 
ATOM     18  C   UNL     1      43.470   3.474  11.653  0.00  0.00    +0.000 A 
ATOM     19  C   UNL     1      44.660   3.228  12.338  0.00  0.00    +0.000 A 
ENDBRANCH  13  14
ENDBRANCH  12  13
ENDBRANCH   4  12
TORSDOF 4
ENDMDL
