MODEL 1
REMARK VINA RESULT:    -7.521      0.000      0.000
REMARK INTER + INTRA:         -10.575
REMARK INTER:                 -10.159
REMARK INTRA:                  -0.415
REMARK UNBOUND:                -0.415
REMARK  Name = 
REMARK  7 active torsions:
REMARK  status: ('A' for Active; 'I' for Inactive)
REMARK    1  A    between atoms: N_1  and  C_2
REMARK    2  A    between atoms: C_2  and  C_3
REMARK    3  A    between atoms: C_7  and  C_8
REMARK    4  A    between atoms: C_8  and  O_9
REMARK    5  A    between atoms: O_9  and  C_10
REMARK    6  A    between atoms: C_13  and  S_14
REMARK    7  A    between atoms: S_14  and  N_15
REMARK                            x       y       z     vdW  Elec       q    Type
REMARK                         _______ _______ _______ _____ _____    ______ ____
ROOT
ATOM      1  O   UNL     1      43.621   3.784  10.747  0.00  0.00    +0.000 OA
ENDROOT
BRANCH   1   2
ATOM      2  C   UNL     1      44.442   3.516   9.690  0.00  0.00    +0.000 A 
ATOM      3  C   UNL     1      44.969   4.446   8.792  0.00  0.00    +0.000 A 
ATOM      4  C   UNL     1      45.795   4.012   7.754  0.00  0.00    +0.000 A 
ATOM      5  C   UNL     1      46.057   2.653   7.665  0.00  0.00    +0.000 A 
ATOM      6  N   UNL     1      45.572   1.703   8.510  0.00  0.00    +0.000 NA
ATOM      7  C   UNL     1      44.775   2.173   9.501  0.00  0.00    +0.000 A 
BRANCH   5   8
ATOM      8  S   UNL     1      47.130   2.039   6.370  0.00  0.00    +0.000 S 
ATOM      9  O   UNL     1      47.312   0.621   6.594  0.00  0.00    +0.000 OA
ATOM     10  O   UNL     1      46.652   2.580   5.118  0.00  0.00    +0.000 OA
BRANCH   8  11
ATOM     11  N   UNL     1      48.615   2.783   6.692  0.00  0.00    +0.000 NA
ATOM     12  H   UNL     1      49.329   2.438   6.052  0.00  0.00    +0.000 HD
ATOM     13  H   UNL     1      48.871   2.636   7.669  0.00  0.00    +0.000 HD
ENDBRANCH   8  11
ENDBRANCH   5   8
ENDBRANCH   1   2
BRANCH   1  14
ATOM     14  C   UNL     1      43.477   5.154  11.129  0.00  0.00    +0.000 C 
BRANCH  14  19
ATOM     15  C   UNL     1      46.354   5.232  13.652  0.00  0.00    +0.000 A 
ATOM     16  C   UNL     1      47.068   6.353  13.203  0.00  0.00    +0.000 A 
ATOM     17  C   UNL     1      46.615   7.090  12.109  0.00  0.00    +0.000 A 
ATOM     18  C   UNL     1      45.447   6.714  11.443  0.00  0.00    +0.000 A 
ATOM     19  C   UNL     1      44.711   5.602  11.876  0.00  0.00    +0.000 A 
ATOM     20  C   UNL     1      45.169   4.878  12.988  0.00  0.00    +0.000 A 
BRANCH  15  21
ATOM     21  C   UNL     1      46.837   4.431  14.835  0.00  0.00    +0.000 C 
BRANCH  21  22
ATOM     22  N   UNL     1      47.464   3.178  14.421  0.00  0.00    +0.000 NA
ATOM     23  H   UNL     1      48.196   2.938  15.087  0.00  0.00    +0.000 HD
ATOM     24  H   UNL     1      47.927   3.322  13.525  0.00  0.00    +0.000 HD
ENDBRANCH  21  22
ENDBRANCH  15  21
ENDBRANCH  14  19
ENDBRANCH   1  14
TORSDOF 7
ENDMDL
MODEL 2
REMARK VINA RESULT:    -7.475      3.396      6.777
REMARK INTER + INTRA:         -10.513
REMARK INTER:                 -10.032
REMARK INTRA:                  -0.480
REMARK UNBOUND:                -0.415
REMARK  Name = 
REMARK  7 active torsions:
REMARK  status: ('A' for Active; 'I' for Inactive)
REMARK    1  A    between atoms: N_1  and  C_2
REMARK    2  A    between atoms: C_2  and  C_3
REMARK    3  A    between atoms: C_7  and  C_8
REMARK    4  A    between atoms: C_8  and  O_9
REMARK    5  A    between atoms: O_9  and  C_10
REMARK    6  A    between atoms: C_13  and  S_14
REMARK    7  A    between atoms: S_14  and  N_15
REMARK                            x       y       z     vdW  Elec       q    Type
REMARK                         _______ _______ _______ _____ _____    ______ ____
ROOT
ATOM      1  O   UNL     1      44.044   4.088  10.470  0.00  0.00    +0.000 OA
ENDROOT
BRANCH   1   2
ATOM      2  C   UNL     1      44.972   4.577  11.344  0.00  0.00    +0.000 A 
ATOM      3  C   UNL     1      45.427   3.953  12.506  0.00  0.00    +0.000 A 
ATOM      4  C   UNL     1      46.382   4.587  13.303  0.00  0.00    +0.000 A 
ATOM      5  C   UNL     1      46.841   5.829  12.892  0.00  0.00    +0.000 A 
ATOM      6  N   UNL     1      46.434   6.485  11.771  0.00  0.00    +0.000 NA
ATOM      7  C   UNL     1      45.506   5.829  11.031  0.00  0.00    +0.000 A 
BRANCH   5   8
ATOM      8  S   UNL     1      48.083   6.681  13.859  0.00  0.00    +0.000 S 
ATOM      9  O   UNL     1      47.661   8.059  13.989  0.00  0.00    +0.000 OA
ATOM     10  O   UNL     1      48.396   5.846  14.996  0.00  0.00    +0.000 OA
BRANCH   8  11
ATOM     11  N   UNL     1      49.446   6.676  12.856  0.00  0.00    +0.000 NA
ATOM     12  H   UNL     1      50.174   7.273  13.246  0.00  0.00    +0.000 HD
ATOM     13  H   UNL     1      49.181   6.958  11.911  0.00  0.00    +0.000 HD
ENDBRANCH   8  11
ENDBRANCH   5   8
ENDBRANCH   1   2
BRANCH   1  14
ATOM     14  C   UNL     1      44.239   4.381   9.084  0.00  0.00    +0.000 C 
BRANCH  14  19
ATOM     15  C   UNL     1      46.707   2.592   6.770  0.00  0.00    +0.000 A 
ATOM     16  C   UNL     1      46.708   1.306   7.329  0.00  0.00    +0.000 A 
ATOM     17  C   UNL     1      45.904   1.011   8.430  0.00  0.00    +0.000 A 
ATOM     18  C   UNL     1      45.094   1.999   8.994  0.00  0.00    +0.000 A 
ATOM     19  C   UNL     1      45.069   3.291   8.450  0.00  0.00    +0.000 A 
ATOM     20  C   UNL     1      45.871   3.570   7.331  0.00  0.00    +0.000 A 
BRANCH  15  21
ATOM     21  C   UNL     1      47.572   2.917   5.579  0.00  0.00    +0.000 C 
BRANCH  21  22
ATOM     22  N   UNL     1      48.496   1.829   5.266  0.00  0.00    +0.000 NA
ATOM     23  H   UNL     1      48.005   0.942   5.354  0.00  0.00    +0.000 HD
ATOM     24  H   UNL     1      49.238   1.817   5.964  0.00  0.00    +0.000 HD
ENDBRANCH  21  22
ENDBRANCH  15  21
ENDBRANCH  14  19
ENDBRANCH   1  14
TORSDOF 7
ENDMDL
MODEL 3
REMARK VINA RESULT:    -7.422      1.590      2.272
REMARK INTER + INTRA:         -10.441
REMARK INTER:                  -9.805
REMARK INTRA:                  -0.636
REMARK UNBOUND:                -0.415
REMARK  Name = 
REMARK  7 active torsions:
REMARK  status: ('A' for Active; 'I' for Inactive)
REMARK    1  A    between atoms: N_1  and  C_2
REMARK    2  A    between atoms: C_2  and  C_3
REMARK    3  A    between atoms: C_7  and  C_8
REMARK    4  A    between atoms: C_8  and  O_9
REMARK    5  A    between atoms: O_9  and  C_10
REMARK    6  A    between atoms: C_13  and  S_14
REMARK    7  A    between atoms: S_14  and  N_15
REMARK                            x       y       z     vdW  Elec       q    Type
REMARK                         _______ _______ _______ _____ _____    ______ ____
ROOT
ATOM      1  O   UNL     1      43.636   4.261  10.546  0.00  0.00    +0.000 OA
ENDROOT
BRANCH   1   2
ATOM      2  C   UNL     1      44.436   3.634   9.635  0.00  0.00    +0.000 A 
ATOM      3  C   UNL     1      44.708   2.267   9.571  0.00  0.00    +0.000 A 
ATOM      4  C   UNL     1      45.557   1.777   8.577  0.00  0.00    +0.000 A 
ATOM      5  C   UNL     1      46.096   2.690   7.684  0.00  0.00    +0.000 A 
ATOM      6  N   UNL     1      45.868   4.032   7.698  0.00  0.00    +0.000 NA
ATOM      7  C   UNL     1      45.038   4.459   8.681  0.00  0.00    +0.000 A 
BRANCH   5   8
ATOM      8  S   UNL     1      47.172   2.119   6.371  0.00  0.00    +0.000 S 
ATOM      9  O   UNL     1      47.376   0.699   6.566  0.00  0.00    +0.000 OA
ATOM     10  O   UNL     1      46.681   2.678   5.134  0.00  0.00    +0.000 OA
BRANCH   8  11
ATOM     11  N   UNL     1      48.648   2.878   6.703  0.00  0.00    +0.000 NA
ATOM     12  H   UNL     1      49.249   2.260   7.246  0.00  0.00    +0.000 HD
ATOM     13  H   UNL     1      48.481   3.767   7.176  0.00  0.00    +0.000 HD
ENDBRANCH   8  11
ENDBRANCH   5   8
ENDBRANCH   1   2
BRANCH   1  14
ATOM     14  C   UNL     1      43.817   3.913  11.920  0.00  0.00    +0.000 C 
BRANCH  14  19
ATOM     15  C   UNL     1      46.117   6.779  12.991  0.00  0.00    +0.000 A 
ATOM     16  C   UNL     1      47.153   6.067  13.614  0.00  0.00    +0.000 A 
ATOM     17  C   UNL     1      47.121   4.673  13.670  0.00  0.00    +0.000 A 
ATOM     18  C   UNL     1      46.050   3.971  13.112  0.00  0.00    +0.000 A 
ATOM     19  C   UNL     1      45.006   4.658  12.477  0.00  0.00    +0.000 A 
ATOM     20  C   UNL     1      45.058   6.060  12.414  0.00  0.00    +0.000 A 
BRANCH  15  21
ATOM     21  C   UNL     1      46.146   8.285  12.925  0.00  0.00    +0.000 C 
BRANCH  21  22
ATOM     22  N   UNL     1      46.771   8.867  14.110  0.00  0.00    +0.000 NA
ATOM     23  H   UNL     1      46.850   9.874  13.982  0.00  0.00    +0.000 HD
ATOM     24  H   UNL     1      47.722   8.511  14.189  0.00  0.00    +0.000 HD
ENDBRANCH  21  22
ENDBRANCH  15  21
ENDBRANCH  14  19
ENDBRANCH   1  14
TORSDOF 7
ENDMDL
MODEL 4
REMARK VINA RESULT:    -7.145      3.298      6.803
REMARK INTER + INTRA:         -10.067
REMARK INTER:                  -9.787
REMARK INTRA:                  -0.280
REMARK UNBOUND:                -0.415
REMARK  Name = 
REMARK  7 active torsions:
REMARK  status: ('A' for Active; 'I' for Inactive)
REMARK    1  A    between atoms: N_1  and  C_2
REMARK    2  A    between atoms: C_2  and  C_3
REMARK    3  A    between atoms: C_7  and  C_8
REMARK    4  A    between atoms: C_8  and  O_9
REMARK    5  A    between atoms: O_9  and  C_10
REMARK    6  A    between atoms: C_13  and  S_14
REMARK    7  A    between atoms: S_14  and  N_15
REMARK                            x       y       z     vdW  Elec       q    Type
REMARK                         _______ _______ _______ _____ _____    ______ ____
ROOT
ATOM      1  O   UNL     1      45.382   5.667  10.527  0.00  0.00    +0.000 OA
ENDROOT
BRANCH   1   2
ATOM      2  C   UNL     1      45.965   5.425  11.738  0.00  0.00    +0.000 A 
ATOM      3  C   UNL     1      46.988   6.167  12.330  0.00  0.00    +0.000 A 
ATOM      4  C   UNL     1      47.484   5.787  13.578  0.00  0.00    +0.000 A 
ATOM      5  C   UNL     1      46.923   4.671  14.181  0.00  0.00    +0.000 A 
ATOM      6  N   UNL     1      45.925   3.911  13.652  0.00  0.00    +0.000 NA
ATOM      7  C   UNL     1      45.478   4.320  12.439  0.00  0.00    +0.000 A 
BRANCH   5   8
ATOM      8  S   UNL     1      47.500   4.149  15.793  0.00  0.00    +0.000 S 
ATOM      9  O   UNL     1      48.552   5.060  16.192  0.00  0.00    +0.000 OA
ATOM     10  O   UNL     1      46.335   3.892  16.608  0.00  0.00    +0.000 OA
BRANCH   8  11
ATOM     11  N   UNL     1      48.231   2.653  15.493  0.00  0.00    +0.000 NA
ATOM     12  H   UNL     1      47.583   1.895  15.704  0.00  0.00    +0.000 HD
ATOM     13  H   UNL     1      49.097   2.577  16.027  0.00  0.00    +0.000 HD
ENDBRANCH   8  11
ENDBRANCH   5   8
ENDBRANCH   1   2
BRANCH   1  14
ATOM     14  C   UNL     1      44.339   4.780  10.118  0.00  0.00    +0.000 C 
BRANCH  14  19
ATOM     15  C   UNL     1      46.548   2.871   7.643  0.00  0.00    +0.000 A 
ATOM     16  C   UNL     1      46.110   1.556   7.858  0.00  0.00    +0.000 A 
ATOM     17  C   UNL     1      45.096   1.289   8.778  0.00  0.00    +0.000 A 
ATOM     18  C   UNL     1      44.511   2.330   9.502  0.00  0.00    +0.000 A 
ATOM     19  C   UNL     1      44.926   3.654   9.301  0.00  0.00    +0.000 A 
ATOM     20  C   UNL     1      45.936   3.911   8.360  0.00  0.00    +0.000 A 
BRANCH  15  21
ATOM     21  C   UNL     1      47.643   3.168   6.649  0.00  0.00    +0.000 C 
BRANCH  21  22
ATOM     22  N   UNL     1      48.369   1.959   6.266  0.00  0.00    +0.000 NA
ATOM     23  H   UNL     1      49.366   2.165   6.244  0.00  0.00    +0.000 HD
ATOM     24  H   UNL     1      48.108   1.706   5.314  0.00  0.00    +0.000 HD
ENDBRANCH  21  22
ENDBRANCH  15  21
ENDBRANCH  14  19
ENDBRANCH   1  14
TORSDOF 7
ENDMDL
MODEL 5
REMARK VINA RESULT:    -6.801      3.793      7.270
REMARK INTER + INTRA:          -9.602
REMARK INTER:                  -9.142
REMARK INTRA:                  -0.460
REMARK UNBOUND:                -0.415
REMARK  Name = 
REMARK  7 active torsions:
REMARK  status: ('A' for Active; 'I' for Inactive)
REMARK    1  A    between atoms: N_1  and  C_2
REMARK    2  A    between atoms: C_2  and  C_3
REMARK    3  A    between atoms: C_7  and  C_8
REMARK    4  A    between atoms: C_8  and  O_9
REMARK    5  A    between atoms: O_9  and  C_10
REMARK    6  A    between atoms: C_13  and  S_14
REMARK    7  A    between atoms: S_14  and  N_15
REMARK                            x       y       z     vdW  Elec       q    Type
REMARK                         _______ _______ _______ _____ _____    ______ ____
ROOT
ATOM      1  O   UNL     1      46.295   5.957  11.380  0.00  0.00    +0.000 OA
ENDROOT
BRANCH   1   2
ATOM      2  C   UNL     1      46.578   5.485  12.629  0.00  0.00    +0.000 A 
ATOM      3  C   UNL     1      45.937   4.432  13.284  0.00  0.00    +0.000 A 
ATOM      4  C   UNL     1      46.341   4.069  14.569  0.00  0.00    +0.000 A 
ATOM      5  C   UNL     1      47.381   4.784  15.143  0.00  0.00    +0.000 A 
ATOM      6  N   UNL     1      48.042   5.817  14.554  0.00  0.00    +0.000 NA
ATOM      7  C   UNL     1      47.614   6.133  13.307  0.00  0.00    +0.000 A 
BRANCH   5   8
ATOM      8  S   UNL     1      47.960   4.348  16.780  0.00  0.00    +0.000 S 
ATOM      9  O   UNL     1      49.110   3.484  16.617  0.00  0.00    +0.000 OA
ATOM     10  O   UNL     1      47.996   5.560  17.564  0.00  0.00    +0.000 OA
BRANCH   8  11
ATOM     11  N   UNL     1      46.712   3.393  17.407  0.00  0.00    +0.000 NA
ATOM     12  H   UNL     1      46.771   2.446  17.036  0.00  0.00    +0.000 HD
ATOM     13  H   UNL     1      45.810   3.829  17.208  0.00  0.00    +0.000 HD
ENDBRANCH   8  11
ENDBRANCH   5   8
ENDBRANCH   1   2
BRANCH   1  14
ATOM     14  C   UNL     1      44.995   5.677  10.857  0.00  0.00    +0.000 C 
BRANCH  14  19
ATOM     15  C   UNL     1      45.960   3.548   7.826  0.00  0.00    +0.000 A 
ATOM     16  C   UNL     1      45.337   2.334   8.148  0.00  0.00    +0.000 A 
ATOM     17  C   UNL     1      44.594   2.208   9.322  0.00  0.00    +0.000 A 
ATOM     18  C   UNL     1      44.470   3.290  10.195  0.00  0.00    +0.000 A 
ATOM     19  C   UNL     1      45.077   4.518   9.894  0.00  0.00    +0.000 A 
ATOM     20  C   UNL     1      45.808   4.636   8.701  0.00  0.00    +0.000 A 
BRANCH  15  21
ATOM     21  C   UNL     1      46.764   3.693   6.559  0.00  0.00    +0.000 C 
BRANCH  21  22
ATOM     22  N   UNL     1      47.972   2.871   6.586  0.00  0.00    +0.000 NA
ATOM     23  H   UNL     1      48.457   3.024   7.467  0.00  0.00    +0.000 HD
ATOM     24  H   UNL     1      48.602   3.188   5.852  0.00  0.00    +0.000 HD
ENDBRANCH  21  22
ENDBRANCH  15  21
ENDBRANCH  14  19
ENDBRANCH   1  14
TORSDOF 7
ENDMDL
MODEL 6
REMARK VINA RESULT:    -6.693      3.499      6.466
REMARK INTER + INTRA:          -9.456
REMARK INTER:                  -8.824
REMARK INTRA:                  -0.632
REMARK UNBOUND:                -0.415
REMARK  Name = 
REMARK  7 active torsions:
REMARK  status: ('A' for Active; 'I' for Inactive)
REMARK    1  A    between atoms: N_1  and  C_2
REMARK    2  A    between atoms: C_2  and  C_3
REMARK    3  A    between atoms: C_7  and  C_8
REMARK    4  A    between atoms: C_8  and  O_9
REMARK    5  A    between atoms: O_9  and  C_10
REMARK    6  A    between atoms: C_13  and  S_14
REMARK    7  A    between atoms: S_14  and  N_15
REMARK                            x       y       z     vdW  Elec       q    Type
REMARK                         _______ _______ _______ _____ _____    ______ ____
ROOT
ATOM      1  O   UNL     1      44.240   3.934  11.627  0.00  0.00    +0.000 OA
ENDROOT
BRANCH   1   2
ATOM      2  C   UNL     1      45.187   4.736  12.198  0.00  0.00    +0.000 A 
ATOM      3  C   UNL     1      45.314   6.116  12.035  0.00  0.00    +0.000 A 
ATOM      4  C   UNL     1      46.344   6.797  12.686  0.00  0.00    +0.000 A 
ATOM      5  C   UNL     1      47.205   6.054  13.480  0.00  0.00    +0.000 A 
ATOM      6  N   UNL     1      47.129   4.709  13.677  0.00  0.00    +0.000 NA
ATOM      7  C   UNL     1      46.113   4.093  13.023  0.00  0.00    +0.000 A 
BRANCH   5   8
ATOM      8  S   UNL     1      48.530   6.875  14.361  0.00  0.00    +0.000 S 
ATOM      9  O   UNL     1      48.101   8.232  14.622  0.00  0.00    +0.000 OA
ATOM     10  O   UNL     1      48.978   5.980  15.402  0.00  0.00    +0.000 OA
BRANCH   8  11
ATOM     11  N   UNL     1      49.776   6.964  13.219  0.00  0.00    +0.000 NA
ATOM     12  H   UNL     1      50.410   7.728  13.448  0.00  0.00    +0.000 HD
ATOM     13  H   UNL     1      49.381   7.058  12.283  0.00  0.00    +0.000 HD
ENDBRANCH   8  11
ENDBRANCH   5   8
ENDBRANCH   1   2
BRANCH   1  14
ATOM     14  C   UNL     1      43.832   4.256  10.296  0.00  0.00    +0.000 C 
BRANCH  14  19
ATOM     15  C   UNL     1      45.914   1.838   8.183  0.00  0.00    +0.000 A 
ATOM     16  C   UNL     1      46.658   2.739   7.407  0.00  0.00    +0.000 A 
ATOM     17  C   UNL     1      46.505   4.115   7.579  0.00  0.00    +0.000 A 
ATOM     18  C   UNL     1      45.602   4.610   8.521  0.00  0.00    +0.000 A 
ATOM     19  C   UNL     1      44.851   3.731   9.314  0.00  0.00    +0.000 A 
ATOM     20  C   UNL     1      45.026   2.349   9.143  0.00  0.00    +0.000 A 
BRANCH  15  21
ATOM     21  C   UNL     1      46.074   0.349   8.005  0.00  0.00    +0.000 C 
BRANCH  21  22
ATOM     22  N   UNL     1      47.471  -0.024   7.794  0.00  0.00    +0.000 NA
ATOM     23  H   UNL     1      47.660  -0.893   8.289  0.00  0.00    +0.000 HD
ATOM     24  H   UNL     1      48.068   0.683   8.218  0.00  0.00    +0.000 HD
ENDBRANCH  21  22
ENDBRANCH  15  21
ENDBRANCH  14  19
ENDBRANCH   1  14
TORSDOF 7
ENDMDL
MODEL 7
REMARK VINA RESULT:    -6.331      3.792      5.762
REMARK INTER + INTRA:          -8.967
REMARK INTER:                  -8.487
REMARK INTRA:                  -0.480
REMARK UNBOUND:                -0.415
REMARK  Name = 
REMARK  7 active torsions:
REMARK  status: ('A' for Active; 'I' for Inactive)
REMARK    1  A    between atoms: N_1  and  C_2
REMARK    2  A    between atoms: C_2  and  C_3
REMARK    3  A    between atoms: C_7  and  C_8
REMARK    4  A    between atoms: C_8  and  O_9
REMARK    5  A    between atoms: O_9  and  C_10
REMARK    6  A    between atoms: C_13  and  S_14
REMARK    7  A    between atoms: S_14  and  N_15
REMARK                            x       y       z     vdW  Elec       q    Type
REMARK                         _______ _______ _______ _____ _____    ______ ____
ROOT
ATOM      1  O   UNL     1      48.386   6.054  13.667  0.00  0.00    +0.000 OA
ENDROOT
BRANCH   1   2
ATOM      2  C   UNL     1      47.222   5.568  13.145  0.00  0.00    +0.000 A 
ATOM      3  C   UNL     1      46.647   4.324  13.411  0.00  0.00    +0.000 A 
ATOM      4  C   UNL     1      45.448   3.970  12.791  0.00  0.00    +0.000 A 
ATOM      5  C   UNL     1      44.874   4.890  11.927  0.00  0.00    +0.000 A 
ATOM      6  N   UNL     1      45.387   6.115  11.630  0.00  0.00    +0.000 NA
ATOM      7  C   UNL     1      46.553   6.413  12.256  0.00  0.00    +0.000 A 
BRANCH   5   8
ATOM      8  S   UNL     1      43.323   4.503  11.121  0.00  0.00    +0.000 S 
ATOM      9  O   UNL     1      43.070   3.093  11.323  0.00  0.00    +0.000 OA
ATOM     10  O   UNL     1      42.376   5.530  11.487  0.00  0.00    +0.000 OA
BRANCH   8  11
ATOM     11  N   UNL     1      43.662   4.712   9.476  0.00  0.00    +0.000 NA
ATOM     12  H   UNL     1      42.804   4.895   8.959  0.00  0.00    +0.000 HD
ATOM     13  H   UNL     1      44.161   3.896   9.119  0.00  0.00    +0.000 HD
ENDBRANCH   8  11
ENDBRANCH   5   8
ENDBRANCH   1   2
BRANCH   1  14
ATOM     14  C   UNL     1      48.294   6.787  14.890  0.00  0.00    +0.000 C 
BRANCH  14  19
ATOM     15  C   UNL     1      48.798   4.088  17.557  0.00  0.00    +0.000 A 
ATOM     16  C   UNL     1      50.087   4.403  18.011  0.00  0.00    +0.000 A 
ATOM     17  C   UNL     1      50.780   5.490  17.477  0.00  0.00    +0.000 A 
ATOM     18  C   UNL     1      50.199   6.272  16.477  0.00  0.00    +0.000 A 
ATOM     19  C   UNL     1      48.909   5.983  16.010  0.00  0.00    +0.000 A 
ATOM     20  C   UNL     1      48.216   4.896  16.567  0.00  0.00    +0.000 A 
BRANCH  15  21
ATOM     21  C   UNL     1      48.042   2.916  18.130  0.00  0.00    +0.000 C 
BRANCH  21  22
ATOM     22  N   UNL     1      46.649   2.901  17.688  0.00  0.00    +0.000 NA
ATOM     23  H   UNL     1      46.542   2.207  16.952  0.00  0.00    +0.000 HD
ATOM     24  H   UNL     1      46.427   3.802  17.268  0.00  0.00    +0.000 HD
ENDBRANCH  21  22
ENDBRANCH  15  21
ENDBRANCH  14  19
ENDBRANCH   1  14
TORSDOF 7
ENDMDL
MODEL 8
REMARK VINA RESULT:    -6.130      4.159      7.387
REMARK INTER + INTRA:          -8.696
REMARK INTER:                  -8.404
REMARK INTRA:                  -0.292
REMARK UNBOUND:                -0.415
REMARK  Name = 
REMARK  7 active torsions:
REMARK  status: ('A' for Active; 'I' for Inactive)
REMARK    1  A    between atoms: N_1  and  C_2
REMARK    2  A    between atoms: C_2  and  C_3
REMARK    3  A    between atoms: C_7  and  C_8
REMARK    4  A    between atoms: C_8  and  O_9
REMARK    5  A    between atoms: O_9  and  C_10
REMARK    6  A    between atoms: C_13  and  S_14
REMARK    7  A    between atoms: S_14  and  N_15
REMARK                            x       y       z     vdW  Elec       q    Type
REMARK                         _______ _______ _______ _____ _____    ______ ____
ROOT
ATOM      1  O   UNL     1      47.748   6.627  12.277  0.00  0.00    +0.000 OA
ENDROOT
BRANCH   1   2
ATOM      2  C   UNL     1      47.609   5.928  13.441  0.00  0.00    +0.000 A 
ATOM      3  C   UNL     1      46.838   4.780  13.634  0.00  0.00    +0.000 A 
ATOM      4  C   UNL     1      46.795   4.180  14.893  0.00  0.00    +0.000 A 
ATOM      5  C   UNL     1      47.534   4.765  15.910  0.00  0.00    +0.000 A 
ATOM      6  N   UNL     1      48.302   5.882  15.782  0.00  0.00    +0.000 NA
ATOM      7  C   UNL     1      48.312   6.427  14.540  0.00  0.00    +0.000 A 
BRANCH   5   8
ATOM      8  S   UNL     1      47.538   4.027  17.541  0.00  0.00    +0.000 S 
ATOM      9  O   UNL     1      46.722   2.833  17.479  0.00  0.00    +0.000 OA
ATOM     10  O   UNL     1      48.903   4.020  18.011  0.00  0.00    +0.000 OA
BRANCH   8  11
ATOM     11  N   UNL     1      46.697   5.149  18.491  0.00  0.00    +0.000 NA
ATOM     12  H   UNL     1      47.334   5.611  19.138  0.00  0.00    +0.000 HD
ATOM     13  H   UNL     1      45.927   4.685  18.974  0.00  0.00    +0.000 HD
ENDBRANCH   8  11
ENDBRANCH   5   8
ENDBRANCH   1   2
BRANCH   1  14
ATOM     14  C   UNL     1      46.639   7.426  11.860  0.00  0.00    +0.000 C 
BRANCH  14  19
ATOM     15  C   UNL     1      44.841   4.643   9.944  0.00  0.00    +0.000 A 
ATOM     16  C   UNL     1      43.535   4.786  10.435  0.00  0.00    +0.000 A 
ATOM     17  C   UNL     1      43.231   5.785  11.359  0.00  0.00    +0.000 A 
ATOM     18  C   UNL     1      44.229   6.650  11.814  0.00  0.00    +0.000 A 
ATOM     19  C   UNL     1      45.541   6.532  11.335  0.00  0.00    +0.000 A 
ATOM     20  C   UNL     1      45.830   5.533  10.391  0.00  0.00    +0.000 A 
BRANCH  15  21
ATOM     21  C   UNL     1      45.177   3.566   8.943  0.00  0.00    +0.000 C 
BRANCH  21  22
ATOM     22  N   UNL     1      44.293   3.612   7.781  0.00  0.00    +0.000 NA
ATOM     23  H   UNL     1      43.476   3.034   7.962  0.00  0.00    +0.000 HD
ATOM     24  H   UNL     1      44.773   3.191   6.986  0.00  0.00    +0.000 HD
ENDBRANCH  21  22
ENDBRANCH  15  21
ENDBRANCH  14  19
ENDBRANCH   1  14
TORSDOF 7
ENDMDL
MODEL 9
REMARK VINA RESULT:    -6.038      4.029      7.061
REMARK INTER + INTRA:          -8.572
REMARK INTER:                  -8.100
REMARK INTRA:                  -0.471
REMARK UNBOUND:                -0.415
REMARK  Name = 
REMARK  7 active torsions:
REMARK  status: ('A' for Active; 'I' for Inactive)
REMARK    1  A    between atoms: N_1  and  C_2
REMARK    2  A    between atoms: C_2  and  C_3
REMARK    3  A    between atoms: C_7  and  C_8
REMARK    4  A    between atoms: C_8  and  O_9
REMARK    5  A    between atoms: O_9  and  C_10
REMARK    6  A    between atoms: C_13  and  S_14
REMARK    7  A    between atoms: S_14  and  N_15
REMARK                            x       y       z     vdW  Elec       q    Type
REMARK                         _______ _______ _______ _____ _____    ______ ____
ROOT
ATOM      1  O   UNL     1      44.917   5.311  12.253  0.00  0.00    +0.000 OA
ENDROOT
BRANCH   1   2
ATOM      2  C   UNL     1      45.997   5.959  12.780  0.00  0.00    +0.000 A 
ATOM      3  C   UNL     1      46.252   7.330  12.723  0.00  0.00    +0.000 A 
ATOM      4  C   UNL     1      47.410   7.842  13.309  0.00  0.00    +0.000 A 
ATOM      5  C   UNL     1      48.266   6.947  13.933  0.00  0.00    +0.000 A 
ATOM      6  N   UNL     1      48.070   5.603  14.019  0.00  0.00    +0.000 NA
ATOM      7  C   UNL     1      46.932   5.153  13.434  0.00  0.00    +0.000 A 
BRANCH   5   8
ATOM      8  S   UNL     1      49.755   7.547  14.724  0.00  0.00    +0.000 S 
ATOM      9  O   UNL     1      49.493   8.898  15.173  0.00  0.00    +0.000 OA
ATOM     10  O   UNL     1      50.227   6.506  15.607  0.00  0.00    +0.000 OA
BRANCH   8  11
ATOM     11  N   UNL     1      50.869   7.657  13.454  0.00  0.00    +0.000 NA
ATOM     12  H   UNL     1      51.819   7.563  13.809  0.00  0.00    +0.000 HD
ATOM     13  H   UNL     1      50.732   8.533  12.949  0.00  0.00    +0.000 HD
ENDBRANCH   8  11
ENDBRANCH   5   8
ENDBRANCH   1   2
BRANCH   1  14
ATOM     14  C   UNL     1      44.536   5.659  10.920  0.00  0.00    +0.000 C 
BRANCH  14  19
ATOM     15  C   UNL     1      45.905   3.561   8.026  0.00  0.00    +0.000 A 
ATOM     16  C   UNL     1      45.376   2.301   8.341  0.00  0.00    +0.000 A 
ATOM     17  C   UNL     1      44.567   2.132   9.466  0.00  0.00    +0.000 A 
ATOM     18  C   UNL     1      44.282   3.218  10.296  0.00  0.00    +0.000 A 
ATOM     19  C   UNL     1      44.792   4.490  10.000  0.00  0.00    +0.000 A 
ATOM     20  C   UNL     1      45.591   4.649   8.856  0.00  0.00    +0.000 A 
BRANCH  15  21
ATOM     21  C   UNL     1      46.778   3.752   6.812  0.00  0.00    +0.000 C 
BRANCH  21  22
ATOM     22  N   UNL     1      46.765   2.575   5.945  0.00  0.00    +0.000 NA
ATOM     23  H   UNL     1      47.135   1.780   6.461  0.00  0.00    +0.000 HD
ATOM     24  H   UNL     1      47.401   2.734   5.166  0.00  0.00    +0.000 HD
ENDBRANCH  21  22
ENDBRANCH  15  21
ENDBRANCH  14  19
ENDBRANCH   1  14
TORSDOF 7
ENDMDL
