MODEL 1
REMARK VINA RESULT:    -8.258      0.000      0.000
REMARK INTER + INTRA:         -11.669
REMARK INTER:                 -10.913
REMARK INTRA:                  -0.756
REMARK UNBOUND:                -0.756
REMARK  Name = 
REMARK  6 active torsions:
REMARK  status: ('A' for Active; 'I' for Inactive)
REMARK    1  A    between atoms: C_2  and  C_19
REMARK    2  A    between atoms: N_3  and  C_4
REMARK    3  A    between atoms: C_4  and  C_5
REMARK    4  A    between atoms: C_8  and  C_9
REMARK    5  A    between atoms: C_9  and  O_10
REMARK    6  A    between atoms: C_9  and  C_11
REMARK                            x       y       z     vdW  Elec       q    Type
REMARK                         _______ _______ _______ _____ _____    ______ ____
ROOT
ATOM      1  C   UNL     1      47.447   7.562  13.394  0.00  0.00    +0.000 C 
ENDROOT
BRANCH   1   2
ATOM      2  C   UNL     1      46.713   6.617  12.480  0.00  0.00    +0.000 A 
ATOM      3  C   UNL     1      46.053   5.495  12.999  0.00  0.00    +0.000 A 
ATOM      4  C   UNL     1      45.319   4.645  12.164  0.00  0.00    +0.000 A 
ATOM      5  C   UNL     1      45.240   4.895  10.784  0.00  0.00    +0.000 A 
ATOM      6  C   UNL     1      45.951   5.987  10.266  0.00  0.00    +0.000 A 
ATOM      7  C   UNL     1      46.681   6.838  11.099  0.00  0.00    +0.000 A 
BRANCH   5   8
ATOM      8  C   UNL     1      44.438   3.977   9.873  0.00  0.00    +0.000 C 
BRANCH   8   9
ATOM      9  C   UNL     1      45.304   3.295   8.822  0.00  0.00    +0.000 A 
ATOM     10  C   UNL     1      45.561   1.927   8.899  0.00  0.00    +0.000 A 
ATOM     11  C   UNL     1      46.440   1.357   7.982  0.00  0.00    +0.000 A 
ATOM     12  C   UNL     1      47.024   2.159   7.008  0.00  0.00    +0.000 A 
ATOM     13  C   UNL     1      46.684   3.501   6.973  0.00  0.00    +0.000 A 
ATOM     14  N   UNL     1      45.835   4.086   7.847  0.00  0.00    +0.000 NA
ENDBRANCH   8   9
BRANCH   8  15
ATOM     15  O   UNL     1      43.411   4.743   9.226  0.00  0.00    +0.000 OA
ATOM     16  H   UNL     1      43.890   5.503   8.836  0.00  0.00    +0.000 HD
ENDBRANCH   8  15
ENDBRANCH   5   8
ENDBRANCH   1   2
BRANCH   1  19
ATOM     17  O   UNL     1      49.955   7.013  14.440  0.00  0.00    +0.000 OA
ATOM     18  C   UNL     1      48.975   6.805  15.147  0.00  0.00    +0.000 C 
ATOM     19  N   UNL     1      47.689   6.983  14.689  0.00  0.00    +0.000 N 
ATOM     20  H   UNL     1      46.927   7.034  15.354  0.00  0.00    +0.000 HD
BRANCH  18  21
ATOM     21  C   UNL     1      49.104   6.294  16.513  0.00  0.00    +0.000 A 
ATOM     22  C   UNL     1      49.667   7.083  17.509  0.00  0.00    +0.000 A 
ATOM     23  S   UNL     1      49.715   6.312  19.030  0.00  0.00    +0.000 S 
ATOM     24  C   UNL     1      48.953   4.919  18.416  0.00  0.00    +0.000 A 
ATOM     25  N   UNL     1      48.660   3.864  19.224  0.00  0.00    +0.000 NA
ATOM     26  C   UNL     1      48.060   2.887  18.624  0.00  0.00    +0.000 A 
ATOM     27  N   UNL     1      47.733   2.869  17.294  0.00  0.00    +0.000 N 
ATOM     28  C   UNL     1      48.036   3.896  16.439  0.00  0.00    +0.000 A 
ATOM     29  O   UNL     1      47.772   3.822  15.243  0.00  0.00    +0.000 OA
ATOM     30  C   UNL     1      48.690   5.029  17.063  0.00  0.00    +0.000 A 
ATOM     31  H   UNL     1      47.276   2.066  16.886  0.00  0.00    +0.000 HD
ENDBRANCH  18  21
ENDBRANCH   1  19
TORSDOF 6
ENDMDL
MODEL 2
REMARK VINA RESULT:    -8.235      1.891      2.614
REMARK INTER + INTRA:         -11.639
REMARK INTER:                 -10.763
REMARK INTRA:                  -0.876
REMARK UNBOUND:                -0.756
REMARK  Name = 
REMARK  6 active torsions:
REMARK  status: ('A' for Active; 'I' for Inactive)
REMARK    1  A    between atoms: C_2  and  C_19
REMARK    2  A    between atoms: N_3  and  C_4
REMARK    3  A    between atoms: C_4  and  C_5
REMARK    4  A    between atoms: C_8  and  C_9
REMARK    5  A    between atoms: C_9  and  O_10
REMARK    6  A    between atoms: C_9  and  C_11
REMARK                            x       y       z     vdW  Elec       q    Type
REMARK                         _______ _______ _______ _____ _____    ______ ____
ROOT
ATOM      1  C   UNL     1      48.036   6.934  13.995  0.00  0.00    +0.000 C 
ENDROOT
BRANCH   1   2
ATOM      2  C   UNL     1      47.056   6.244  13.082  0.00  0.00    +0.000 A 
ATOM      3  C   UNL     1      46.665   6.843  11.877  0.00  0.00    +0.000 A 
ATOM      4  C   UNL     1      45.801   6.183  10.995  0.00  0.00    +0.000 A 
ATOM      5  C   UNL     1      45.299   4.910  11.309  0.00  0.00    +0.000 A 
ATOM      6  C   UNL     1      45.651   4.344  12.543  0.00  0.00    +0.000 A 
ATOM      7  C   UNL     1      46.515   5.000  13.422  0.00  0.00    +0.000 A 
BRANCH   5   8
ATOM      8  C   UNL     1      44.365   4.185  10.352  0.00  0.00    +0.000 C 
BRANCH   8   9
ATOM      9  C   UNL     1      45.111   3.488   9.222  0.00  0.00    +0.000 A 
ATOM     10  C   UNL     1      45.279   2.104   9.233  0.00  0.00    +0.000 A 
ATOM     11  C   UNL     1      46.054   1.514   8.239  0.00  0.00    +0.000 A 
ATOM     12  C   UNL     1      46.628   2.313   7.256  0.00  0.00    +0.000 A 
ATOM     13  C   UNL     1      46.379   3.675   7.291  0.00  0.00    +0.000 A 
ATOM     14  N   UNL     1      45.631   4.281   8.240  0.00  0.00    +0.000 NA
ENDBRANCH   8   9
BRANCH   8  15
ATOM     15  O   UNL     1      43.434   5.129   9.803  0.00  0.00    +0.000 OA
ATOM     16  H   UNL     1      43.516   5.009   8.835  0.00  0.00    +0.000 HD
ENDBRANCH   8  15
ENDBRANCH   5   8
ENDBRANCH   1   2
BRANCH   1  19
ATOM     17  O   UNL     1      50.143   6.331  15.692  0.00  0.00    +0.000 OA
ATOM     18  C   UNL     1      49.005   6.289  16.145  0.00  0.00    +0.000 C 
ATOM     19  N   UNL     1      47.895   6.505  15.361  0.00  0.00    +0.000 N 
ATOM     20  H   UNL     1      47.004   6.696  15.803  0.00  0.00    +0.000 HD
BRANCH  18  21
ATOM     21  C   UNL     1      48.745   5.945  17.545  0.00  0.00    +0.000 A 
ATOM     22  C   UNL     1      49.016   4.666  18.017  0.00  0.00    +0.000 A 
ATOM     23  S   UNL     1      48.656   4.471  19.673  0.00  0.00    +0.000 S 
ATOM     24  C   UNL     1      48.164   6.094  19.819  0.00  0.00    +0.000 A 
ATOM     25  N   UNL     1      47.758   6.600  21.015  0.00  0.00    +0.000 NA
ATOM     26  C   UNL     1      47.438   7.854  20.980  0.00  0.00    +0.000 A 
ATOM     27  N   UNL     1      47.482   8.640  19.859  0.00  0.00    +0.000 N 
ATOM     28  C   UNL     1      47.855   8.164  18.630  0.00  0.00    +0.000 A 
ATOM     29  O   UNL     1      47.833   8.887  17.639  0.00  0.00    +0.000 OA
ATOM     30  C   UNL     1      48.247   6.768  18.616  0.00  0.00    +0.000 A 
ATOM     31  H   UNL     1      47.203   9.611  19.899  0.00  0.00    +0.000 HD
ENDBRANCH  18  21
ENDBRANCH   1  19
TORSDOF 6
ENDMDL
MODEL 3
REMARK VINA RESULT:    -8.136      2.558      4.496
REMARK INTER + INTRA:         -11.509
REMARK INTER:                 -10.324
REMARK INTRA:                  -1.184
REMARK UNBOUND:                -0.756
REMARK  Name = 
REMARK  6 active torsions:
REMARK  status: ('A' for Active; 'I' for Inactive)
REMARK    1  A    between atoms: C_2  and  C_19
REMARK    2  A    between atoms: N_3  and  C_4
REMARK    3  A    between atoms: C_4  and  C_5
REMARK    4  A    between atoms: C_8  and  C_9
REMARK    5  A    between atoms: C_9  and  O_10
REMARK    6  A    between atoms: C_9  and  C_11
REMARK                            x       y       z     vdW  Elec       q    Type
REMARK                         _______ _______ _______ _____ _____    ______ ____
ROOT
ATOM      1  C   UNL     1      47.143   5.285  14.452  0.00  0.00    +0.000 C 
ENDROOT
BRANCH   1   2
ATOM      2  C   UNL     1      46.387   4.858  13.221  0.00  0.00    +0.000 A 
ATOM      3  C   UNL     1      46.132   5.773  12.191  0.00  0.00    +0.000 A 
ATOM      4  C   UNL     1      45.482   5.369  11.019  0.00  0.00    +0.000 A 
ATOM      5  C   UNL     1      45.062   4.039  10.858  0.00  0.00    +0.000 A 
ATOM      6  C   UNL     1      45.270   3.145  11.920  0.00  0.00    +0.000 A 
ATOM      7  C   UNL     1      45.921   3.546  13.088  0.00  0.00    +0.000 A 
BRANCH   5   8
ATOM      8  C   UNL     1      44.361   3.593   9.584  0.00  0.00    +0.000 C 
BRANCH   8   9
ATOM      9  C   UNL     1      45.332   3.064   8.537  0.00  0.00    +0.000 A 
ATOM     10  C   UNL     1      45.754   1.735   8.574  0.00  0.00    +0.000 A 
ATOM     11  C   UNL     1      46.720   1.314   7.664  0.00  0.00    +0.000 A 
ATOM     12  C   UNL     1      47.227   2.218   6.738  0.00  0.00    +0.000 A 
ATOM     13  C   UNL     1      46.724   3.509   6.740  0.00  0.00    +0.000 A 
ATOM     14  N   UNL     1      45.787   3.952   7.607  0.00  0.00    +0.000 NA
ENDBRANCH   8   9
BRANCH   8  15
ATOM     15  O   UNL     1      43.627   4.702   9.042  0.00  0.00    +0.000 OA
ATOM     16  H   UNL     1      42.690   4.461   9.186  0.00  0.00    +0.000 HD
ENDBRANCH   8  15
ENDBRANCH   5   8
ENDBRANCH   1   2
BRANCH   1  19
ATOM     17  O   UNL     1      49.528   6.316  15.419  0.00  0.00    +0.000 OA
ATOM     18  C   UNL     1      48.756   7.080  14.851  0.00  0.00    +0.000 C 
ATOM     19  N   UNL     1      47.520   6.673  14.400  0.00  0.00    +0.000 N 
ATOM     20  H   UNL     1      47.018   7.252  13.738  0.00  0.00    +0.000 HD
BRANCH  18  21
ATOM     21  C   UNL     1      49.070   8.498  14.666  0.00  0.00    +0.000 A 
ATOM     22  C   UNL     1      49.240   9.330  15.767  0.00  0.00    +0.000 A 
ATOM     23  S   UNL     1      49.612  10.939  15.341  0.00  0.00    +0.000 S 
ATOM     24  C   UNL     1      49.596  10.568  13.679  0.00  0.00    +0.000 A 
ATOM     25  N   UNL     1      49.877  11.516  12.745  0.00  0.00    +0.000 NA
ATOM     26  C   UNL     1      49.851  11.082  11.525  0.00  0.00    +0.000 A 
ATOM     27  N   UNL     1      49.566   9.793  11.160  0.00  0.00    +0.000 N 
ATOM     28  C   UNL     1      49.248   8.816  12.065  0.00  0.00    +0.000 A 
ATOM     29  O   UNL     1      48.948   7.685  11.696  0.00  0.00    +0.000 OA
ATOM     30  C   UNL     1      49.284   9.241  13.451  0.00  0.00    +0.000 A 
ATOM     31  H   UNL     1      49.549   9.525  10.186  0.00  0.00    +0.000 HD
ENDBRANCH  18  21
ENDBRANCH   1  19
TORSDOF 6
ENDMDL
MODEL 4
REMARK VINA RESULT:    -7.625      2.511      3.786
REMARK INTER + INTRA:         -10.833
REMARK INTER:                  -9.964
REMARK INTRA:                  -0.869
REMARK UNBOUND:                -0.756
REMARK  Name = 
REMARK  6 active torsions:
REMARK  status: ('A' for Active; 'I' for Inactive)
REMARK    1  A    between atoms: C_2  and  C_19
REMARK    2  A    between atoms: N_3  and  C_4
REMARK    3  A    between atoms: C_4  and  C_5
REMARK    4  A    between atoms: C_8  and  C_9
REMARK    5  A    between atoms: C_9  and  O_10
REMARK    6  A    between atoms: C_9  and  C_11
REMARK                            x       y       z     vdW  Elec       q    Type
REMARK                         _______ _______ _______ _____ _____    ______ ____
ROOT
ATOM      1  C   UNL     1      47.031   4.932  14.680  0.00  0.00    +0.000 C 
ENDROOT
BRANCH   1   2
ATOM      2  C   UNL     1      46.379   4.577  13.370  0.00  0.00    +0.000 A 
ATOM      3  C   UNL     1      45.914   3.276  13.136  0.00  0.00    +0.000 A 
ATOM      4  C   UNL     1      45.255   2.954  11.945  0.00  0.00    +0.000 A 
ATOM      5  C   UNL     1      45.056   3.928  10.953  0.00  0.00    +0.000 A 
ATOM      6  C   UNL     1      45.576   5.212  11.172  0.00  0.00    +0.000 A 
ATOM      7  C   UNL     1      46.232   5.536  12.362  0.00  0.00    +0.000 A 
BRANCH   5   8
ATOM      8  C   UNL     1      44.334   3.585   9.659  0.00  0.00    +0.000 C 
BRANCH   8   9
ATOM      9  C   UNL     1      45.279   3.077   8.579  0.00  0.00    +0.000 A 
ATOM     10  C   UNL     1      45.712   1.752   8.583  0.00  0.00    +0.000 A 
ATOM     11  C   UNL     1      46.656   1.350   7.642  0.00  0.00    +0.000 A 
ATOM     12  C   UNL     1      47.131   2.272   6.717  0.00  0.00    +0.000 A 
ATOM     13  C   UNL     1      46.620   3.559   6.752  0.00  0.00    +0.000 A 
ATOM     14  N   UNL     1      45.704   3.983   7.650  0.00  0.00    +0.000 NA
ENDBRANCH   8   9
BRANCH   8  15
ATOM     15  O   UNL     1      43.644   4.751   9.185  0.00  0.00    +0.000 OA
ATOM     16  H   UNL     1      42.740   4.431   8.991  0.00  0.00    +0.000 HD
ENDBRANCH   8  15
ENDBRANCH   5   8
ENDBRANCH   1   2
BRANCH   1  19
ATOM     17  O   UNL     1      49.363   5.814  15.893  0.00  0.00    +0.000 OA
ATOM     18  C   UNL     1      48.683   6.631  15.283  0.00  0.00    +0.000 C 
ATOM     19  N   UNL     1      47.477   6.300  14.709  0.00  0.00    +0.000 N 
ATOM     20  H   UNL     1      47.065   6.923  14.024  0.00  0.00    +0.000 HD
BRANCH  18  21
ATOM     21  C   UNL     1      49.080   8.037  15.176  0.00  0.00    +0.000 A 
ATOM     22  C   UNL     1      49.666   8.515  14.010  0.00  0.00    +0.000 A 
ATOM     23  S   UNL     1      50.043  10.177  14.080  0.00  0.00    +0.000 S 
ATOM     24  C   UNL     1      49.402  10.318  15.651  0.00  0.00    +0.000 A 
ATOM     25  N   UNL     1      49.381  11.516  16.296  0.00  0.00    +0.000 NA
ATOM     26  C   UNL     1      48.842  11.475  17.472  0.00  0.00    +0.000 A 
ATOM     27  N   UNL     1      48.331  10.348  18.059  0.00  0.00    +0.000 N 
ATOM     28  C   UNL     1      48.359   9.117  17.458  0.00  0.00    +0.000 A 
ATOM     29  O   UNL     1      47.937   8.121  18.037  0.00  0.00    +0.000 OA
ATOM     30  C   UNL     1      48.933   9.108  16.126  0.00  0.00    +0.000 A 
ATOM     31  H   UNL     1      47.937  10.384  18.989  0.00  0.00    +0.000 HD
ENDBRANCH  18  21
ENDBRANCH   1  19
TORSDOF 6
ENDMDL
MODEL 5
REMARK VINA RESULT:    -7.445      1.881      2.314
REMARK INTER + INTRA:         -10.595
REMARK INTER:                  -9.563
REMARK INTRA:                  -1.031
REMARK UNBOUND:                -0.756
REMARK  Name = 
REMARK  6 active torsions:
REMARK  status: ('A' for Active; 'I' for Inactive)
REMARK    1  A    between atoms: C_2  and  C_19
REMARK    2  A    between atoms: N_3  and  C_4
REMARK    3  A    between atoms: C_4  and  C_5
REMARK    4  A    between atoms: C_8  and  C_9
REMARK    5  A    between atoms: C_9  and  O_10
REMARK    6  A    between atoms: C_9  and  C_11
REMARK                            x       y       z     vdW  Elec       q    Type
REMARK                         _______ _______ _______ _____ _____    ______ ____
ROOT
ATOM      1  C   UNL     1      47.610   8.554  13.631  0.00  0.00    +0.000 C 
ENDROOT
BRANCH   1   2
ATOM      2  C   UNL     1      46.701   7.560  12.957  0.00  0.00    +0.000 A 
ATOM      3  C   UNL     1      45.635   7.999  12.160  0.00  0.00    +0.000 A 
ATOM      4  C   UNL     1      44.823   7.082  11.483  0.00  0.00    +0.000 A 
ATOM      5  C   UNL     1      45.054   5.702  11.599  0.00  0.00    +0.000 A 
ATOM      6  C   UNL     1      46.087   5.272  12.446  0.00  0.00    +0.000 A 
ATOM      7  C   UNL     1      46.900   6.185  13.119  0.00  0.00    +0.000 A 
BRANCH   5   8
ATOM      8  C   UNL     1      44.178   4.702  10.861  0.00  0.00    +0.000 C 
BRANCH   8   9
ATOM      9  C   UNL     1      44.937   3.948   9.777  0.00  0.00    +0.000 A 
ATOM     10  C   UNL     1      45.622   4.643   8.781  0.00  0.00    +0.000 A 
ATOM     11  C   UNL     1      46.217   3.923   7.749  0.00  0.00    +0.000 A 
ATOM     12  C   UNL     1      46.127   2.536   7.744  0.00  0.00    +0.000 A 
ATOM     13  C   UNL     1      45.464   1.918   8.792  0.00  0.00    +0.000 A 
ATOM     14  N   UNL     1      44.875   2.586   9.809  0.00  0.00    +0.000 NA
ENDBRANCH   8   9
BRANCH   8  15
ATOM     15  O   UNL     1      43.067   5.397  10.275  0.00  0.00    +0.000 OA
ATOM     16  H   UNL     1      42.404   5.437  10.994  0.00  0.00    +0.000 HD
ENDBRANCH   8  15
ENDBRANCH   5   8
ENDBRANCH   1   2
BRANCH   1  19
ATOM     17  O   UNL     1      48.339   8.594  16.305  0.00  0.00    +0.000 OA
ATOM     18  C   UNL     1      49.032   7.950  15.526  0.00  0.00    +0.000 C 
ATOM     19  N   UNL     1      48.788   7.929  14.172  0.00  0.00    +0.000 N 
ATOM     20  H   UNL     1      49.222   7.214  13.600  0.00  0.00    +0.000 HD
BRANCH  18  21
ATOM     21  C   UNL     1      50.210   7.206  15.977  0.00  0.00    +0.000 A 
ATOM     22  C   UNL     1      51.487   7.713  15.765  0.00  0.00    +0.000 A 
ATOM     23  S   UNL     1      52.720   6.703  16.374  0.00  0.00    +0.000 S 
ATOM     24  C   UNL     1      51.589   5.579  16.971  0.00  0.00    +0.000 A 
ATOM     25  N   UNL     1      51.992   4.469  17.647  0.00  0.00    +0.000 NA
ATOM     26  C   UNL     1      51.021   3.720  18.062  0.00  0.00    +0.000 A 
ATOM     27  N   UNL     1      49.692   3.978  17.857  0.00  0.00    +0.000 N 
ATOM     28  C   UNL     1      49.244   5.067  17.156  0.00  0.00    +0.000 A 
ATOM     29  O   UNL     1      48.047   5.237  16.949  0.00  0.00    +0.000 OA
ATOM     30  C   UNL     1      50.290   5.955  16.686  0.00  0.00    +0.000 A 
ATOM     31  H   UNL     1      48.984   3.342  18.197  0.00  0.00    +0.000 HD
ENDBRANCH  18  21
ENDBRANCH   1  19
TORSDOF 6
ENDMDL
MODEL 6
REMARK VINA RESULT:    -7.405      4.220      8.956
REMARK INTER + INTRA:         -10.541
REMARK INTER:                 -10.042
REMARK INTRA:                  -0.499
REMARK UNBOUND:                -0.756
REMARK  Name = 
REMARK  6 active torsions:
REMARK  status: ('A' for Active; 'I' for Inactive)
REMARK    1  A    between atoms: C_2  and  C_19
REMARK    2  A    between atoms: N_3  and  C_4
REMARK    3  A    between atoms: C_4  and  C_5
REMARK    4  A    between atoms: C_8  and  C_9
REMARK    5  A    between atoms: C_9  and  O_10
REMARK    6  A    between atoms: C_9  and  C_11
REMARK                            x       y       z     vdW  Elec       q    Type
REMARK                         _______ _______ _______ _____ _____    ______ ____
ROOT
ATOM      1  C   UNL     1      47.209   3.350  16.765  0.00  0.00    +0.000 C 
ENDROOT
BRANCH   1   2
ATOM      2  C   UNL     1      48.662   3.393  17.158  0.00  0.00    +0.000 A 
ATOM      3  C   UNL     1      49.195   4.525  17.790  0.00  0.00    +0.000 A 
ATOM      4  C   UNL     1      50.529   4.549  18.211  0.00  0.00    +0.000 A 
ATOM      5  C   UNL     1      51.365   3.441  17.998  0.00  0.00    +0.000 A 
ATOM      6  C   UNL     1      50.839   2.336  17.313  0.00  0.00    +0.000 A 
ATOM      7  C   UNL     1      49.506   2.309  16.895  0.00  0.00    +0.000 A 
BRANCH   5   8
ATOM      8  C   UNL     1      52.814   3.460  18.459  0.00  0.00    +0.000 C 
BRANCH   8   9
ATOM      9  C   UNL     1      53.592   2.235  17.995  0.00  0.00    +0.000 A 
ATOM     10  C   UNL     1      54.607   2.360  17.048  0.00  0.00    +0.000 A 
ATOM     11  C   UNL     1      55.226   1.208  16.571  0.00  0.00    +0.000 A 
ATOM     12  C   UNL     1      54.828  -0.031  17.059  0.00  0.00    +0.000 A 
ATOM     13  C   UNL     1      53.840  -0.068  18.030  0.00  0.00    +0.000 A 
ATOM     14  N   UNL     1      53.220   1.030  18.515  0.00  0.00    +0.000 NA
ENDBRANCH   8   9
BRANCH   8  15
ATOM     15  O   UNL     1      52.847   3.535  19.892  0.00  0.00    +0.000 OA
ATOM     16  H   UNL     1      52.079   2.999  20.177  0.00  0.00    +0.000 HD
ENDBRANCH   8  15
ENDBRANCH   5   8
ENDBRANCH   1   2
BRANCH   1  19
ATOM     17  O   UNL     1      47.229   3.073  14.007  0.00  0.00    +0.000 OA
ATOM     18  C   UNL     1      46.850   4.139  14.478  0.00  0.00    +0.000 C 
ATOM     19  N   UNL     1      46.871   4.392  15.831  0.00  0.00    +0.000 N 
ATOM     20  H   UNL     1      46.340   5.172  16.200  0.00  0.00    +0.000 HD
BRANCH  18  21
ATOM     21  C   UNL     1      46.404   5.244  13.627  0.00  0.00    +0.000 A 
ATOM     22  C   UNL     1      47.248   6.318  13.369  0.00  0.00    +0.000 A 
ATOM     23  S   UNL     1      46.547   7.492  12.348  0.00  0.00    +0.000 S 
ATOM     24  C   UNL     1      45.114   6.587  12.189  0.00  0.00    +0.000 A 
ATOM     25  N   UNL     1      44.092   7.021  11.403  0.00  0.00    +0.000 NA
ATOM     26  C   UNL     1      43.078   6.218  11.359  0.00  0.00    +0.000 A 
ATOM     27  N   UNL     1      42.994   5.028  12.033  0.00  0.00    +0.000 N 
ATOM     28  C   UNL     1      43.986   4.568  12.857  0.00  0.00    +0.000 A 
ATOM     29  O   UNL     1      43.853   3.521  13.483  0.00  0.00    +0.000 OA
ATOM     30  C   UNL     1      45.158   5.418  12.926  0.00  0.00    +0.000 A 
ATOM     31  H   UNL     1      42.164   4.455  11.965  0.00  0.00    +0.000 HD
ENDBRANCH  18  21
ENDBRANCH   1  19
TORSDOF 6
ENDMDL
MODEL 7
REMARK VINA RESULT:    -7.266      2.261      3.022
REMARK INTER + INTRA:         -10.358
REMARK INTER:                  -9.302
REMARK INTRA:                  -1.056
REMARK UNBOUND:                -0.756
REMARK  Name = 
REMARK  6 active torsions:
REMARK  status: ('A' for Active; 'I' for Inactive)
REMARK    1  A    between atoms: C_2  and  C_19
REMARK    2  A    between atoms: N_3  and  C_4
REMARK    3  A    between atoms: C_4  and  C_5
REMARK    4  A    between atoms: C_8  and  C_9
REMARK    5  A    between atoms: C_9  and  O_10
REMARK    6  A    between atoms: C_9  and  C_11
REMARK                            x       y       z     vdW  Elec       q    Type
REMARK                         _______ _______ _______ _____ _____    ______ ____
ROOT
ATOM      1  C   UNL     1      48.016   7.991  13.815  0.00  0.00    +0.000 C 
ENDROOT
BRANCH   1   2
ATOM      2  C   UNL     1      46.981   7.176  13.084  0.00  0.00    +0.000 A 
ATOM      3  C   UNL     1      45.971   7.808  12.346  0.00  0.00    +0.000 A 
ATOM      4  C   UNL     1      45.041   7.058  11.617  0.00  0.00    +0.000 A 
ATOM      5  C   UNL     1      45.096   5.655  11.620  0.00  0.00    +0.000 A 
ATOM      6  C   UNL     1      46.076   5.032  12.407  0.00  0.00    +0.000 A 
ATOM      7  C   UNL     1      47.006   5.779  13.133  0.00  0.00    +0.000 A 
BRANCH   5   8
ATOM      8  C   UNL     1      44.092   4.835  10.823  0.00  0.00    +0.000 C 
BRANCH   8   9
ATOM      9  C   UNL     1      44.750   4.012   9.724  0.00  0.00    +0.000 A 
ATOM     10  C   UNL     1      44.665   2.621   9.736  0.00  0.00    +0.000 A 
ATOM     11  C   UNL     1      45.365   1.897   8.774  0.00  0.00    +0.000 A 
ATOM     12  C   UNL     1      46.116   2.577   7.822  0.00  0.00    +0.000 A 
ATOM     13  C   UNL     1      46.115   3.962   7.852  0.00  0.00    +0.000 A 
ATOM     14  N   UNL     1      45.447   4.695   8.770  0.00  0.00    +0.000 NA
ENDBRANCH   8   9
BRANCH   8  15
ATOM     15  O   UNL     1      43.121   5.720  10.245  0.00  0.00    +0.000 OA
ATOM     16  H   UNL     1      42.270   5.421  10.627  0.00  0.00    +0.000 HD
ENDBRANCH   8  15
ENDBRANCH   5   8
ENDBRANCH   1   2
BRANCH   1  19
ATOM     17  O   UNL     1      48.379   8.185  16.556  0.00  0.00    +0.000 OA
ATOM     18  C   UNL     1      48.971   7.296  15.956  0.00  0.00    +0.000 C 
ATOM     19  N   UNL     1      48.907   7.165  14.587  0.00  0.00    +0.000 N 
ATOM     20  H   UNL     1      49.205   6.299  14.156  0.00  0.00    +0.000 HD
BRANCH  18  21
ATOM     21  C   UNL     1      49.841   6.344  16.650  0.00  0.00    +0.000 A 
ATOM     22  C   UNL     1      49.295   5.345  17.448  0.00  0.00    +0.000 A 
ATOM     23  S   UNL     1      50.472   4.335  18.158  0.00  0.00    +0.000 S 
ATOM     24  C   UNL     1      51.742   5.175  17.395  0.00  0.00    +0.000 A 
ATOM     25  N   UNL     1      53.036   4.790  17.558  0.00  0.00    +0.000 NA
ATOM     26  C   UNL     1      53.889   5.506  16.899  0.00  0.00    +0.000 A 
ATOM     27  N   UNL     1      53.564   6.570  16.100  0.00  0.00    +0.000 N 
ATOM     28  C   UNL     1      52.278   7.010  15.932  0.00  0.00    +0.000 A 
ATOM     29  O   UNL     1      52.031   7.998  15.248  0.00  0.00    +0.000 OA
ATOM     30  C   UNL     1      51.276   6.228  16.631  0.00  0.00    +0.000 A 
ATOM     31  H   UNL     1      54.284   7.097  15.624  0.00  0.00    +0.000 HD
ENDBRANCH  18  21
ENDBRANCH   1  19
TORSDOF 6
ENDMDL
MODEL 8
REMARK VINA RESULT:    -7.153      3.503      8.284
REMARK INTER + INTRA:         -10.209
REMARK INTER:                  -9.115
REMARK INTRA:                  -1.094
REMARK UNBOUND:                -0.756
REMARK  Name = 
REMARK  6 active torsions:
REMARK  status: ('A' for Active; 'I' for Inactive)
REMARK    1  A    between atoms: C_2  and  C_19
REMARK    2  A    between atoms: N_3  and  C_4
REMARK    3  A    between atoms: C_4  and  C_5
REMARK    4  A    between atoms: C_8  and  C_9
REMARK    5  A    between atoms: C_9  and  O_10
REMARK    6  A    between atoms: C_9  and  C_11
REMARK                            x       y       z     vdW  Elec       q    Type
REMARK                         _______ _______ _______ _____ _____    ______ ____
ROOT
ATOM      1  C   UNL     1      48.145   7.158  13.605  0.00  0.00    +0.000 C 
ENDROOT
BRANCH   1   2
ATOM      2  C   UNL     1      48.637   6.538  14.886  0.00  0.00    +0.000 A 
ATOM      3  C   UNL     1      47.890   5.539  15.525  0.00  0.00    +0.000 A 
ATOM      4  C   UNL     1      48.368   4.917  16.684  0.00  0.00    +0.000 A 
ATOM      5  C   UNL     1      49.604   5.290  17.236  0.00  0.00    +0.000 A 
ATOM      6  C   UNL     1      50.318   6.330  16.621  0.00  0.00    +0.000 A 
ATOM      7  C   UNL     1      49.842   6.950  15.464  0.00  0.00    +0.000 A 
BRANCH   5   8
ATOM      8  C   UNL     1      50.132   4.612  18.491  0.00  0.00    +0.000 C 
BRANCH   8   9
ATOM      9  C   UNL     1      51.128   3.502  18.182  0.00  0.00    +0.000 A 
ATOM     10  C   UNL     1      50.720   2.356  17.501  0.00  0.00    +0.000 A 
ATOM     11  C   UNL     1      51.631   1.318  17.327  0.00  0.00    +0.000 A 
ATOM     12  C   UNL     1      52.923   1.456  17.821  0.00  0.00    +0.000 A 
ATOM     13  C   UNL     1      53.263   2.643  18.448  0.00  0.00    +0.000 A 
ATOM     14  N   UNL     1      52.404   3.670  18.634  0.00  0.00    +0.000 NA
ENDBRANCH   8   9
BRANCH   8  15
ATOM     15  O   UNL     1      49.026   4.073  19.231  0.00  0.00    +0.000 OA
ATOM     16  H   UNL     1      48.936   3.159  18.892  0.00  0.00    +0.000 HD
ENDBRANCH   8  15
ENDBRANCH   5   8
ENDBRANCH   1   2
BRANCH   1  19
ATOM     17  O   UNL     1      46.172   7.894  11.803  0.00  0.00    +0.000 OA
ATOM     18  C   UNL     1      46.442   6.704  11.911  0.00  0.00    +0.000 C 
ATOM     19  N   UNL     1      47.357   6.239  12.827  0.00  0.00    +0.000 N 
ATOM     20  H   UNL     1      47.726   5.301  12.729  0.00  0.00    +0.000 HD
BRANCH  18  21
ATOM     21  C   UNL     1      45.762   5.684  11.109  0.00  0.00    +0.000 A 
ATOM     22  C   UNL     1      45.910   5.661   9.727  0.00  0.00    +0.000 A 
ATOM     23  S   UNL     1      45.049   4.391   8.981  0.00  0.00    +0.000 S 
ATOM     24  C   UNL     1      44.484   3.812  10.479  0.00  0.00    +0.000 A 
ATOM     25  N   UNL     1      43.704   2.700  10.553  0.00  0.00    +0.000 NA
ATOM     26  C   UNL     1      43.372   2.364  11.758  0.00  0.00    +0.000 A 
ATOM     27  N   UNL     1      43.744   3.042  12.889  0.00  0.00    +0.000 N 
ATOM     28  C   UNL     1      44.503   4.182  12.858  0.00  0.00    +0.000 A 
ATOM     29  O   UNL     1      44.774   4.790  13.888  0.00  0.00    +0.000 OA
ATOM     30  C   UNL     1      44.924   4.592  11.532  0.00  0.00    +0.000 A 
ATOM     31  H   UNL     1      43.436   2.733  13.801  0.00  0.00    +0.000 HD
ENDBRANCH  18  21
ENDBRANCH   1  19
TORSDOF 6
ENDMDL
MODEL 9
REMARK VINA RESULT:    -6.943      3.615      8.451
REMARK INTER + INTRA:          -9.931
REMARK INTER:                  -8.755
REMARK INTRA:                  -1.176
REMARK UNBOUND:                -0.756
REMARK  Name = 
REMARK  6 active torsions:
REMARK  status: ('A' for Active; 'I' for Inactive)
REMARK    1  A    between atoms: C_2  and  C_19
REMARK    2  A    between atoms: N_3  and  C_4
REMARK    3  A    between atoms: C_4  and  C_5
REMARK    4  A    between atoms: C_8  and  C_9
REMARK    5  A    between atoms: C_9  and  O_10
REMARK    6  A    between atoms: C_9  and  C_11
REMARK                            x       y       z     vdW  Elec       q    Type
REMARK                         _______ _______ _______ _____ _____    ______ ____
ROOT
ATOM      1  C   UNL     1      48.583   7.978  14.975  0.00  0.00    +0.000 C 
ENDROOT
BRANCH   1   2
ATOM      2  C   UNL     1      49.347   7.194  16.010  0.00  0.00    +0.000 A 
ATOM      3  C   UNL     1      48.702   6.715  17.158  0.00  0.00    +0.000 A 
ATOM      4  C   UNL     1      49.391   5.936  18.094  0.00  0.00    +0.000 A 
ATOM      5  C   UNL     1      50.748   5.629  17.907  0.00  0.00    +0.000 A 
ATOM      6  C   UNL     1      51.399   6.161  16.784  0.00  0.00    +0.000 A 
ATOM      7  C   UNL     1      50.712   6.936  15.847  0.00  0.00    +0.000 A 
BRANCH   5   8
ATOM      8  C   UNL     1      51.500   4.777  18.918  0.00  0.00    +0.000 C 
BRANCH   8   9
ATOM      9  C   UNL     1      51.893   3.416  18.359  0.00  0.00    +0.000 A 
ATOM     10  C   UNL     1      50.975   2.658  17.633  0.00  0.00    +0.000 A 
ATOM     11  C   UNL     1      51.336   1.376  17.227  0.00  0.00    +0.000 A 
ATOM     12  C   UNL     1      52.600   0.892  17.541  0.00  0.00    +0.000 A 
ATOM     13  C   UNL     1      53.469   1.723  18.229  0.00  0.00    +0.000 A 
ATOM     14  N   UNL     1      53.152   2.971  18.638  0.00  0.00    +0.000 NA
ENDBRANCH   8   9
BRANCH   8  15
ATOM     15  O   UNL     1      50.678   4.599  20.082  0.00  0.00    +0.000 OA
ATOM     16  H   UNL     1      49.811   4.325  19.722  0.00  0.00    +0.000 HD
ENDBRANCH   8  15
ENDBRANCH   5   8
ENDBRANCH   1   2
BRANCH   1  19
ATOM     17  O   UNL     1      48.865   6.194  12.872  0.00  0.00    +0.000 OA
ATOM     18  C   UNL     1      47.762   6.302  13.395  0.00  0.00    +0.000 C 
ATOM     19  N   UNL     1      47.511   7.210  14.398  0.00  0.00    +0.000 N 
ATOM     20  H   UNL     1      46.675   7.110  14.961  0.00  0.00    +0.000 HD
BRANCH  18  21
ATOM     21  C   UNL     1      46.615   5.510  12.946  0.00  0.00    +0.000 A 
ATOM     22  C   UNL     1      46.589   4.134  13.144  0.00  0.00    +0.000 A 
ATOM     23  S   UNL     1      45.164   3.399  12.561  0.00  0.00    +0.000 S 
ATOM     24  C   UNL     1      44.523   4.895  12.062  0.00  0.00    +0.000 A 
ATOM     25  N   UNL     1      43.287   4.977  11.500  0.00  0.00    +0.000 NA
ATOM     26  C   UNL     1      42.922   6.180  11.194  0.00  0.00    +0.000 A 
ATOM     27  N   UNL     1      43.683   7.302  11.394  0.00  0.00    +0.000 N 
ATOM     28  C   UNL     1      44.944   7.261  11.927  0.00  0.00    +0.000 A 
ATOM     29  O   UNL     1      45.615   8.282  12.044  0.00  0.00    +0.000 OA
ATOM     30  C   UNL     1      45.395   5.938  12.311  0.00  0.00    +0.000 A 
ATOM     31  H   UNL     1      43.342   8.212  11.117  0.00  0.00    +0.000 HD
ENDBRANCH  18  21
ENDBRANCH   1  19
TORSDOF 6
ENDMDL
