REMARK  Name = 
REMARK  10 active torsions:
REMARK  status: ('A' for Active; 'I' for Inactive)
REMARK    1  A    between atoms: N_2  and  C_3
REMARK    2  A    between atoms: C_3  and  C_4
REMARK    3  A    between atoms: C_4  and  C_5
REMARK    4  A    between atoms: C_5  and  C_6
REMARK    5  A    between atoms: C_6  and  N_7
REMARK    6  A    between atoms: N_7  and  C_8
REMARK    7  A    between atoms: C_8  and  C_9
REMARK    8  A    between atoms: C_12  and  C_13
REMARK    9  A    between atoms: C_13  and  N_14
REMARK   10  A    between atoms: C_15  and  C_17
REMARK                            x       y       z     vdW  Elec       q    Type
REMARK                         _______ _______ _______ _____ _____    ______ ____
ROOT
ATOM      1 CL   UNL     1       0.682  -2.350  -0.689  0.00  0.00    +0.000 Cl
ATOM      2  H   UNL     1       1.947  -1.876  -0.936  0.00  0.00    +0.000 HD
ENDROOT
TORSDOF 0
REMARK  Name = 
REMARK  10 active torsions:
REMARK  status: ('A' for Active; 'I' for Inactive)
REMARK    1  A    between atoms: N_2  and  C_3
REMARK    2  A    between atoms: C_3  and  C_4
REMARK    3  A    between atoms: C_4  and  C_5
REMARK    4  A    between atoms: C_5  and  C_6
REMARK    5  A    between atoms: C_6  and  N_7
REMARK    6  A    between atoms: N_7  and  C_8
REMARK    7  A    between atoms: C_8  and  C_9
REMARK    8  A    between atoms: C_12  and  C_13
REMARK    9  A    between atoms: C_13  and  N_14
REMARK   10  A    between atoms: C_15  and  C_17
REMARK                            x       y       z     vdW  Elec       q    Type
REMARK                         _______ _______ _______ _____ _____    ______ ____
ROOT
ATOM      8  C   UNL     1       8.393  -2.063   3.875  0.00  0.00    +0.000 A 
ATOM      9  C   UNL     1       9.060  -0.828   3.896  0.00  0.00    +0.000 A 
ATOM     10  C   UNL     1      10.457  -0.780   3.940  0.00  0.00    +0.000 A 
ATOM     11  C   UNL     1      11.208  -1.968   3.959  0.00  0.00    +0.000 A 
ATOM     26  C   UNL     1      10.541  -3.202   3.941  0.00  0.00    +0.000 A 
ATOM     27  C   UNL     1       9.144  -3.249   3.901  0.00  0.00    +0.000 A 
ENDROOT
BRANCH   8   7
ATOM      7  C   UNL     1       6.889  -2.115   3.812  0.00  0.00    +0.000 C 
BRANCH   7   6
ATOM      6  N   UNL     1       6.447  -2.076   2.413  0.00  0.00    +0.000 NA
ATOM     30  H   UNL     1       6.762  -1.176   1.979  0.00  0.00    +0.000 HD
BRANCH   6   5
ATOM      5  C   UNL     1       4.984  -2.165   2.322  0.00  0.00    +0.000 C 
BRANCH   5   4
ATOM      4  C   UNL     1       4.521  -2.152   0.857  0.00  0.00    +0.000 C 
BRANCH   4   3
ATOM      3  C   UNL     1       5.098  -3.338   0.067  0.00  0.00    +0.000 C 
BRANCH   3   2
ATOM      2  C   UNL     1       4.652  -3.376  -1.407  0.00  0.00    +0.000 C 
BRANCH   2   1
ATOM      1  N   UNL     1       5.048  -2.183  -2.162  0.00  0.00    +0.000 NA
ATOM     28  H   UNL     1       4.255  -1.503  -2.213  0.00  0.00    +0.000 HD
ATOM     29  H   UNL     1       5.882  -1.716  -1.736  0.00  0.00    +0.000 HD
ENDBRANCH   2   1
ENDBRANCH   3   2
ENDBRANCH   4   3
ENDBRANCH   5   4
ENDBRANCH   6   5
ENDBRANCH   7   6
ENDBRANCH   8   7
BRANCH  11  12
ATOM     12  C   UNL     1      12.716  -1.917   3.981  0.00  0.00    +0.000 C 
BRANCH  12  13
ATOM     13  N   UNL     1      13.224  -1.912   5.341  0.00  0.00    +0.000 N 
ATOM     14  C   UNL     1      14.558  -1.775   5.604  0.00  0.00    +0.000 C 
ATOM     15  O   UNL     1      15.337  -1.659   4.671  0.00  0.00    +0.000 OA
ATOM     31  H   UNL     1      12.550  -1.967   6.118  0.00  0.00    +0.000 HD
BRANCH  14  16
ATOM     16  C   UNL     1      15.068  -1.739   7.012  0.00  0.00    +0.000 A 
ATOM     17  C   UNL     1      14.317  -2.259   8.081  0.00  0.00    +0.000 A 
ATOM     18  S   UNL     1      15.152  -2.075   9.533  0.00  0.00    +0.000 S 
ATOM     19  C   UNL     1      16.469  -1.326   8.836  0.00  0.00    +0.000 A 
ATOM     20  N   UNL     1      17.558  -0.864   9.497  0.00  0.00    +0.000 NA
ATOM     21  C   UNL     1      18.545  -0.245   8.798  0.00  0.00    +0.000 A 
ATOM     22  N   UNL     1      18.445  -0.093   7.449  0.00  0.00    +0.000 N 
ATOM     23  C   UNL     1      17.348  -0.558   6.757  0.00  0.00    +0.000 A 
ATOM     24  O   UNL     1      17.289  -0.378   5.557  0.00  0.00    +0.000 OA
ATOM     25  C   UNL     1      16.310  -1.198   7.466  0.00  0.00    +0.000 A 
ATOM     32  H   UNL     1      19.215   0.393   6.934  0.00  0.00    +0.000 HD
ENDBRANCH  14  16
ENDBRANCH  12  13
ENDBRANCH  11  12
TORSDOF 10
