REMARK  Name = 
REMARK  15 active torsions:
REMARK  status: ('A' for Active; 'I' for Inactive)
REMARK    1  A    between atoms: C_1  and  C_2
REMARK    2  A    between atoms: C_2  and  C_3
REMARK    3  A    between atoms: C_3  and  C_4
REMARK    4  A    between atoms: C_4  and  C_5
REMARK    5  A    between atoms: C_5  and  C_6
REMARK    6  A    between atoms: C_6  and  C_7
REMARK    7  A    between atoms: C_7  and  C_8
REMARK    8  A    between atoms: C_8  and  N_9
REMARK    9  A    between atoms: N_9  and  C_10
REMARK   10  A    between atoms: N_9  and  C_12
REMARK   11  A    between atoms: C_10  and  C_11
REMARK   12  A    between atoms: C_12  and  C_13
REMARK   13  A    between atoms: C_16  and  C_17
REMARK   14  A    between atoms: C_17  and  N_18
REMARK   15  A    between atoms: C_19  and  C_21
REMARK                            x       y       z     vdW  Elec       q    Type
REMARK                         _______ _______ _______ _____ _____    ______ ____
ROOT
ATOM     13  C   UNL     1      11.153   2.861   4.329  0.00  0.00    +0.000 A 
ATOM     14  C   UNL     1      10.801   4.218   4.384  0.00  0.00    +0.000 A 
ATOM     15  C   UNL     1      11.429   5.152   3.552  0.00  0.00    +0.000 A 
ATOM     16  C   UNL     1      12.416   4.746   2.643  0.00  0.00    +0.000 A 
ATOM     31  C   UNL     1      12.754   3.388   2.578  0.00  0.00    +0.000 A 
ATOM     32  C   UNL     1      12.125   2.456   3.405  0.00  0.00    +0.000 A 
ENDROOT
BRANCH  13  12
ATOM     12  C   UNL     1      10.537   1.847   5.275  0.00  0.00    +0.000 C 
BRANCH  12   9
ATOM      9  N   UNL     1       9.065   1.796   5.239  0.00  0.00    +0.000 NA
BRANCH   9  10
ATOM     10  C   UNL     1       8.531   0.995   6.356  0.00  0.00    +0.000 C 
ATOM     11  C   UNL     1       8.921  -0.482   6.396  0.00  0.00    +0.000 C 
ENDBRANCH   9  10
BRANCH   9   8
ATOM      8  C   UNL     1       8.581   1.377   3.911  0.00  0.00    +0.000 C 
BRANCH   8   7
ATOM      7  C   UNL     1       7.056   1.384   3.812  0.00  0.00    +0.000 C 
BRANCH   7   6
ATOM      6  C   UNL     1       6.571   0.995   2.419  0.00  0.00    +0.000 C 
BRANCH   6   5
ATOM      5  C   UNL     1       5.047   1.032   2.403  0.00  0.00    +0.000 C 
BRANCH   5   4
ATOM      4  C   UNL     1       4.486   0.610   1.055  0.00  0.00    +0.000 C 
BRANCH   4   3
ATOM      3  C   UNL     1       2.961   0.658   1.080  0.00  0.00    +0.000 C 
BRANCH   3   2
ATOM      1  C   UNL     1       0.868   0.277  -0.256  0.00  0.00    +0.000 C 
ATOM      2  C   UNL     1       2.385   0.235  -0.267  0.00  0.00    +0.000 C 
ENDBRANCH   3   2
ENDBRANCH   4   3
ENDBRANCH   5   4
ENDBRANCH   6   5
ENDBRANCH   7   6
ENDBRANCH   8   7
ENDBRANCH   9   8
ENDBRANCH  12   9
ENDBRANCH  13  12
BRANCH  16  17
ATOM     17  C   UNL     1      13.162   5.747   1.801  0.00  0.00    +0.000 C 
BRANCH  17  18
ATOM     18  N   UNL     1      14.347   6.200   2.486  0.00  0.00    +0.000 N 
ATOM     19  C   UNL     1      15.165   7.163   1.955  0.00  0.00    +0.000 C 
ATOM     20  O   UNL     1      14.915   7.713   0.885  0.00  0.00    +0.000 OA
ATOM     33  H   UNL     1      14.699   5.604   3.229  0.00  0.00    +0.000 HD
BRANCH  19  21
ATOM     21  C   UNL     1      16.326   7.550   2.765  0.00  0.00    +0.000 A 
ATOM     22  C   UNL     1      16.901   8.803   2.592  0.00  0.00    +0.000 A 
ATOM     23  S   UNL     1      18.201   9.112   3.652  0.00  0.00    +0.000 S 
ATOM     24  C   UNL     1      18.079   7.562   4.341  0.00  0.00    +0.000 A 
ATOM     25  N   UNL     1      18.939   7.160   5.316  0.00  0.00    +0.000 NA
ATOM     26  C   UNL     1      18.751   5.952   5.728  0.00  0.00    +0.000 A 
ATOM     27  N   UNL     1      17.778   5.109   5.258  0.00  0.00    +0.000 N 
ATOM     28  C   UNL     1      16.873   5.477   4.291  0.00  0.00    +0.000 A 
ATOM     29  O   UNL     1      15.995   4.710   3.917  0.00  0.00    +0.000 OA
ATOM     30  C   UNL     1      17.047   6.827   3.785  0.00  0.00    +0.000 A 
ATOM     34  H   UNL     1      17.678   4.175   5.627  0.00  0.00    +0.000 HD
ENDBRANCH  19  21
ENDBRANCH  17  18
ENDBRANCH  16  17
TORSDOF 13
