REMARK  Name = 
REMARK  4 active torsions:
REMARK  status: ('A' for Active; 'I' for Inactive)
REMARK    1  A    between atoms: C_2  and  C_4
REMARK    2  A    between atoms: C_11  and  C_12
REMARK    3  A    between atoms: N_15  and  C_16
REMARK    4  A    between atoms: C_16  and  C_17
REMARK                            x       y       z     vdW  Elec       q    Type
REMARK                         _______ _______ _______ _____ _____    ______ ____
ROOT
ATOM      4  C   UNL     1       3.389  -0.425   1.122  0.00  0.00    +0.000 A 
ATOM      5  C   UNL     1       2.994  -1.562   1.821  0.00  0.00    +0.000 A 
ATOM      6  N   UNL     1       3.653  -2.123   2.869  0.00  0.00    +0.000 NA
ATOM      7  C   UNL     1       4.768  -1.444   3.219  0.00  0.00    +0.000 A 
ATOM      8  C   UNL     1       5.258  -0.293   2.609  0.00  0.00    +0.000 A 
ATOM      9  C   UNL     1       4.542   0.246   1.529  0.00  0.00    +0.000 A 
ATOM     10  C   UNL     1       6.451   0.058   3.278  0.00  0.00    +0.000 A 
ATOM     11  C   UNL     1       6.674  -0.873   4.274  0.00  0.00    +0.000 A 
ATOM     15  N   UNL     1       5.639  -1.788   4.238  0.00  0.00    +0.000 N 
ENDROOT
BRANCH   4   2
ATOM      1  N   UNL     1       3.204   0.780  -0.984  0.00  0.00    +0.000 N 
ATOM      2  C   UNL     1       2.574   0.040  -0.021  0.00  0.00    +0.000 C 
ATOM      3  O   UNL     1       1.390  -0.253  -0.122  0.00  0.00    +0.000 OA
ATOM     25  H   UNL     1       2.658   1.020  -1.802  0.00  0.00    +0.000 HD
ATOM     26  H   UNL     1       4.207   0.866  -1.050  0.00  0.00    +0.000 HD
ENDBRANCH   4   2
BRANCH  11  12
ATOM     12  C   UNL     1       7.856  -0.841   5.241  0.00  0.00    +0.000 C 
ATOM     13  C   UNL     1       8.418   0.519   5.623  0.00  0.00    +0.000 C 
ATOM     14  C   UNL     1       9.210  -0.381   4.739  0.00  0.00    +0.000 C 
ENDBRANCH  11  12
BRANCH  15  16
ATOM     16  C   UNL     1       5.539  -3.046   4.978  0.00  0.00    +0.000 C 
BRANCH  16  17
ATOM     17  C   UNL     1       5.344  -2.925   6.481  0.00  0.00    +0.000 C 
ATOM     18  O   UNL     1       5.390  -1.843   7.068  0.00  0.00    +0.000 OA
ATOM     19  N   UNL     1       5.142  -4.116   7.185  0.00  0.00    +0.000 N 
ATOM     20  C   UNL     1       5.110  -5.469   6.612  0.00  0.00    +0.000 C 
ATOM     21  C   UNL     1       3.964  -6.314   7.210  0.00  0.00    +0.000 C 
ATOM     22  N   UNL     1       3.943  -6.326   8.684  0.00  0.00    +0.000 NA
ATOM     23  C   UNL     1       3.915  -4.937   9.185  0.00  0.00    +0.000 C 
ATOM     24  C   UNL     1       5.080  -4.083   8.651  0.00  0.00    +0.000 C 
ATOM     27  H   UNL     1       4.794  -6.775   9.023  0.00  0.00    +0.000 HD
ENDBRANCH  16  17
ENDBRANCH  15  16
TORSDOF 4
