REMARK  Name = 
REMARK  4 active torsions:
REMARK  status: ('A' for Active; 'I' for Inactive)
REMARK    1  A    between atoms: C_2  and  C_4
REMARK    2  A    between atoms: N_11  and  C_12
REMARK    3  A    between atoms: C_12  and  C_13
REMARK    4  A    between atoms: N_15  and  C_16
REMARK                            x       y       z     vdW  Elec       q    Type
REMARK                         _______ _______ _______ _____ _____    ______ ____
ROOT
ATOM      4  C   UNL     1       7.463  -0.890   0.397  0.00  0.00    +0.000 A 
ATOM      5  C   UNL     1       7.594  -2.221   0.008  0.00  0.00    +0.000 A 
ATOM      6  N   UNL     1       6.980  -3.286   0.589  0.00  0.00    +0.000 NA
ATOM      7  C   UNL     1       6.193  -2.931   1.627  0.00  0.00    +0.000 A 
ATOM      8  C   UNL     1       5.945  -1.640   2.089  0.00  0.00    +0.000 A 
ATOM      9  C   UNL     1       5.038  -1.754   3.176  0.00  0.00    +0.000 A 
ATOM     10  C   UNL     1       4.792  -3.096   3.374  0.00  0.00    +0.000 A 
ATOM     11  N   UNL     1       5.510  -3.802   2.439  0.00  0.00    +0.000 N 
ATOM     22  C   UNL     1       6.598  -0.574   1.448  0.00  0.00    +0.000 A 
ENDROOT
BRANCH   4   2
ATOM      1  N   UNL     1       8.525   1.300   0.344  0.00  0.00    +0.000 N 
ATOM      2  C   UNL     1       8.236   0.143  -0.325  0.00  0.00    +0.000 C 
ATOM      3  O   UNL     1       8.637  -0.046  -1.468  0.00  0.00    +0.000 OA
ATOM     23  H   UNL     1       9.140   1.953  -0.131  0.00  0.00    +0.000 HD
ATOM     24  H   UNL     1       8.428   1.396   1.344  0.00  0.00    +0.000 HD
ENDBRANCH   4   2
BRANCH  11  12
ATOM     12  C   UNL     1       5.666  -5.244   2.422  0.00  0.00    +0.000 C 
BRANCH  12  13
ATOM     13  C   UNL     1       4.544  -5.964   1.715  0.00  0.00    +0.000 C 
ATOM     14  O   UNL     1       3.804  -6.738   2.324  0.00  0.00    +0.000 OA
ATOM     15  N   UNL     1       4.453  -5.771   0.349  0.00  0.00    +0.000 N 
ATOM     25  H   UNL     1       4.958  -4.990  -0.065  0.00  0.00    +0.000 HD
BRANCH  15  16
ATOM     16  C   UNL     1       3.431  -6.469  -0.432  0.00  0.00    +0.000 C 
ATOM     17  C   UNL     1       3.849  -6.675  -1.891  0.00  0.00    +0.000 C 
ATOM     18  C   UNL     1       3.641  -5.429  -2.747  0.00  0.00    +0.000 C 
ATOM     19  N   UNL     1       2.276  -4.916  -2.643  0.00  0.00    +0.000 NA
ATOM     20  C   UNL     1       1.956  -4.573  -1.256  0.00  0.00    +0.000 C 
ATOM     21  C   UNL     1       2.063  -5.784  -0.335  0.00  0.00    +0.000 C 
ATOM     26  H   UNL     1       1.620  -5.624  -2.974  0.00  0.00    +0.000 HD
ENDBRANCH  15  16
ENDBRANCH  12  13
ENDBRANCH  11  12
TORSDOF 4
