REMARK  Name = 
REMARK  6 active torsions:
REMARK  status: ('A' for Active; 'I' for Inactive)
REMARK    1  A    between atoms: C_1  and  N_2
REMARK    2  A    between atoms: N_2  and  C_21
REMARK    3  A    between atoms: C_3  and  C_5
REMARK    4  A    between atoms: C_5  and  N_6
REMARK    5  A    between atoms: C_7  and  C_8
REMARK    6  A    between atoms: C_14  and  C_15
REMARK                            x       y       z     vdW  Elec       q    Type
REMARK                         _______ _______ _______ _____ _____    ______ ____
ROOT
ATOM      6  N   UNL     1      -0.905   3.425  -2.418  0.00  0.00    +0.000 N 
ATOM      7  C   UNL     1      -1.376   3.839  -3.649  0.00  0.00    +0.000 A 
ATOM     11  C   UNL     1      -2.668   3.365  -3.783  0.00  0.00    +0.000 A 
ATOM     12  C   UNL     1      -3.036   2.732  -2.574  0.00  0.00    +0.000 A 
ATOM     13  C   UNL     1      -4.217   2.145  -2.090  0.00  0.00    +0.000 A 
ATOM     14  C   UNL     1      -4.207   1.636  -0.791  0.00  0.00    +0.000 A 
ATOM     18  C   UNL     1      -3.023   1.736  -0.058  0.00  0.00    +0.000 A 
ATOM     19  N   UNL     1      -1.856   2.296  -0.477  0.00  0.00    +0.000 NA
ATOM     20  C   UNL     1      -1.923   2.775  -1.737  0.00  0.00    +0.000 A 
ENDROOT
BRANCH  14  15
ATOM     15  C   UNL     1      -5.392   1.014  -0.147  0.00  0.00    +0.000 C 
ATOM     16  N   UNL     1      -6.556   0.923  -0.858  0.00  0.00    +0.000 N 
ATOM     17  O   UNL     1      -5.343   0.594   1.004  0.00  0.00    +0.000 OA
ATOM     29  H   UNL     1      -6.691   1.232  -1.807  0.00  0.00    +0.000 HD
ATOM     30  H   UNL     1      -7.345   0.494  -0.390  0.00  0.00    +0.000 HD
ENDBRANCH  14  15
BRANCH   7   8
ATOM      8  C   UNL     1      -0.770   4.681  -4.767  0.00  0.00    +0.000 C 
ATOM      9  C   UNL     1       0.707   4.878  -4.967  0.00  0.00    +0.000 C 
ATOM     10  C   UNL     1      -0.112   5.993  -4.405  0.00  0.00    +0.000 C 
ENDBRANCH   7   8
BRANCH   6   5
ATOM      5  C   UNL     1       0.396   3.682  -1.811  0.00  0.00    +0.000 C 
BRANCH   5   3
ATOM      1  C   UNL     1       3.091   4.006  -0.757  0.00  0.00    +0.000 C 
ATOM      2  N   UNL     1       2.731   2.835  -1.552  0.00  0.00    +0.000 N 
ATOM      3  C   UNL     1       1.455   2.627  -2.110  0.00  0.00    +0.000 C 
ATOM      4  O   UNL     1       1.214   1.640  -2.808  0.00  0.00    +0.000 OA
BRANCH   2  21
ATOM     21  C   UNL     1       3.768   1.778  -1.633  0.00  0.00    +0.000 C 
ATOM     22  C   UNL     1       4.276   1.479  -3.058  0.00  0.00    +0.000 C 
ATOM     23  C   UNL     1       5.136   0.200  -3.113  0.00  0.00    +0.000 C 
ATOM     24  C   UNL     1       6.327   0.211  -2.153  0.00  0.00    +0.000 C 
ATOM     25  C   UNL     1       5.772  -0.336  -0.836  0.00  0.00    +0.000 C 
ATOM     26  C   UNL     1       4.313  -0.672  -1.147  0.00  0.00    +0.000 C 
ATOM     27  C   UNL     1       3.360   0.501  -0.871  0.00  0.00    +0.000 C 
ATOM     28  N   UNL     1       4.358  -0.930  -2.590  0.00  0.00    +0.000 NA
ATOM     31  H   UNL     1       3.414  -0.928  -2.984  0.00  0.00    +0.000 HD
ENDBRANCH   2  21
ENDBRANCH   5   3
ENDBRANCH   6   5
TORSDOF 5
