REMARK  Name = 
REMARK  8 active torsions:
REMARK  status: ('A' for Active; 'I' for Inactive)
REMARK    1  A    between atoms: C_1  and  C_2
REMARK    2  A    between atoms: C_2  and  C_3
REMARK    3  A    between atoms: C_2  and  C_4
REMARK    4  A    between atoms: C_2  and  C_15
REMARK    5  A    between atoms: C_4  and  N_5
REMARK    6  A    between atoms: C_9  and  C_10
REMARK    7  A    between atoms: C_19  and  C_20
REMARK    8  A    between atoms: C_20  and  N_21
REMARK                            x       y       z     vdW  Elec       q    Type
REMARK                         _______ _______ _______ _____ _____    ______ ____
ROOT
ATOM      4  C   UNL     1       3.065  -1.488  -0.422  0.00  0.00    +0.000 C 
ENDROOT
BRANCH   4   5
ATOM      5  N   UNL     1       2.600  -1.947  -1.737  0.00  0.00    +0.000 N 
ATOM      6  C   UNL     1       3.103  -3.207  -2.107  0.00  0.00    +0.000 A 
ATOM      7  C   UNL     1       2.722  -3.740  -3.335  0.00  0.00    +0.000 A 
ATOM      8  C   UNL     1       3.202  -4.995  -3.719  0.00  0.00    +0.000 A 
ATOM      9  C   UNL     1       4.055  -5.699  -2.870  0.00  0.00    +0.000 A 
ATOM     13  C   UNL     1       4.367  -5.102  -1.661  0.00  0.00    +0.000 A 
ATOM     14  N   UNL     1       3.908  -3.888  -1.267  0.00  0.00    +0.000 NA
ATOM     23  H   UNL     1       2.826  -1.275  -2.469  0.00  0.00    +0.000 HD
BRANCH   9  10
ATOM     10  C   UNL     1       4.578  -7.024  -3.289  0.00  0.00    +0.000 C 
ATOM     11  N   UNL     1       5.429  -7.695  -2.459  0.00  0.00    +0.000 N 
ATOM     12  O   UNL     1       4.261  -7.513  -4.367  0.00  0.00    +0.000 OA
ATOM     24  H   UNL     1       5.761  -7.381  -1.560  0.00  0.00    +0.000 HD
ATOM     25  H   UNL     1       5.771  -8.588  -2.791  0.00  0.00    +0.000 HD
ENDBRANCH   9  10
ENDBRANCH   4   5
BRANCH   4   2
ATOM      1  C   UNL     1       0.956  -0.181   0.032  0.00  0.00    +0.000 C 
ATOM      2  C   UNL     1       2.499  -0.081  -0.056  0.00  0.00    +0.000 C 
ATOM      3  C   UNL     1       3.001   0.274   1.366  0.00  0.00    +0.000 C 
BRANCH   2  15
ATOM     15  C   UNL     1       2.996   0.996  -1.043  0.00  0.00    +0.000 A 
ATOM     16  C   UNL     1       4.374   1.239  -1.195  0.00  0.00    +0.000 A 
ATOM     17  C   UNL     1       4.847   2.196  -2.094  0.00  0.00    +0.000 A 
ATOM     18  C   UNL     1       3.954   2.926  -2.874  0.00  0.00    +0.000 A 
ATOM     19  C   UNL     1       2.576   2.722  -2.752  0.00  0.00    +0.000 A 
ATOM     22  C   UNL     1       2.116   1.756  -1.837  0.00  0.00    +0.000 A 
BRANCH  19  20
ATOM     20  C   UNL     1       1.577   3.424  -3.644  0.00  0.00    +0.000 C 
BRANCH  20  21
ATOM     21  N   UNL     1       1.997   4.757  -4.063  0.00  0.00    +0.000 NA
ATOM     26  H   UNL     1       2.045   5.356  -3.240  0.00  0.00    +0.000 HD
ATOM     27  H   UNL     1       1.277   5.154  -4.664  0.00  0.00    +0.000 HD
ENDBRANCH  20  21
ENDBRANCH  19  20
ENDBRANCH   2  15
ENDBRANCH   4   2
TORSDOF 6
