REMARK  Name = 
REMARK  1 active torsions:
REMARK  status: ('A' for Active; 'I' for Inactive)
REMARK    1  A    between atoms: C_2  and  C_4
REMARK                            x       y       z     vdW  Elec       q    Type
REMARK                         _______ _______ _______ _____ _____    ______ ____
ROOT
ATOM      4  C   UNL     1       3.213   1.313   0.101  0.00  0.00    +0.000 A 
ATOM      5  C   UNL     1       2.811   2.361   0.937  0.00  0.00    +0.000 A 
ATOM      6  C   UNL     1       3.517   3.567   0.967  0.00  0.00    +0.000 A 
ATOM      7  C   UNL     1       4.637   3.682   0.135  0.00  0.00    +0.000 A 
ATOM      8  N   UNL     1       5.517   4.729  -0.031  0.00  0.00    +0.000 N 
ATOM      9  C   UNL     1       6.479   4.398  -0.949  0.00  0.00    +0.000 A 
ATOM     10  C   UNL     1       6.220   3.120  -1.389  0.00  0.00    +0.000 A 
ATOM     11  C   UNL     1       5.063   2.654  -0.706  0.00  0.00    +0.000 A 
ATOM     12  C   UNL     1       4.342   1.446  -0.722  0.00  0.00    +0.000 A 
ATOM     15  H   UNL     1       5.462   5.609   0.461  0.00  0.00    +0.000 HD
ENDROOT
BRANCH   4   2
ATOM      1  N   UNL     1       1.147   0.061   0.357  0.00  0.00    +0.000 N 
ATOM      2  C   UNL     1       2.484   0.021   0.077  0.00  0.00    +0.000 C 
ATOM      3  O   UNL     1       3.037  -1.030  -0.217  0.00  0.00    +0.000 OA
ATOM     13  H   UNL     1       0.637  -0.801   0.217  0.00  0.00    +0.000 HD
ATOM     14  H   UNL     1       0.623   0.924   0.337  0.00  0.00    +0.000 HD
ENDBRANCH   4   2
TORSDOF 1
