REMARK  Name = 
REMARK  11 active torsions:
REMARK  status: ('A' for Active; 'I' for Inactive)
REMARK    1  A    between atoms: C_1  and  C_2
REMARK    2  A    between atoms: C_2  and  C_3
REMARK    3  A    between atoms: C_3  and  O_4
REMARK    4  A    between atoms: O_4  and  C_5
REMARK    5  A    between atoms: C_12  and  C_13
REMARK    6  A    between atoms: N_15  and  C_16
REMARK    7  A    between atoms: C_16  and  C_17
REMARK    8  A    between atoms: C_20  and  C_21
REMARK    9  A    between atoms: C_21  and  N_22
REMARK   10  A    between atoms: N_22  and  C_23
REMARK   11  A    between atoms: C_23  and  C_24
REMARK                            x       y       z     vdW  Elec       q    Type
REMARK                         _______ _______ _______ _____ _____    ______ ____
ROOT
ATOM     13  C   UNL     1       6.223   0.572   1.954  0.00  0.00    +0.000 C 
ATOM     14  O   UNL     1       6.699   1.503   2.598  0.00  0.00    +0.000 OA
ATOM     15  N   UNL     1       5.259   0.802   0.983  0.00  0.00    +0.000 N 
ATOM     33  H   UNL     1       4.788   0.022   0.555  0.00  0.00    +0.000 HD
ENDROOT
BRANCH  13  12
ATOM      5  C   UNL     1       5.277  -2.463   0.673  0.00  0.00    +0.000 A 
ATOM      6  N   UNL     1       5.204  -3.714   0.185  0.00  0.00    +0.000 NA
ATOM      7  C   UNL     1       6.076  -4.614   0.640  0.00  0.00    +0.000 A 
ATOM      8  N   UNL     1       7.025  -4.415   1.554  0.00  0.00    +0.000 NA
ATOM      9  C   UNL     1       7.082  -3.140   1.979  0.00  0.00    +0.000 A 
ATOM     10  S   UNL     1       8.205  -2.687   3.168  0.00  0.00    +0.000 S 
ATOM     11  C   UNL     1       7.691  -1.061   3.105  0.00  0.00    +0.000 A 
ATOM     12  C   UNL     1       6.682  -0.818   2.174  0.00  0.00    +0.000 A 
ATOM     32  C   UNL     1       6.284  -2.081   1.567  0.00  0.00    +0.000 A 
BRANCH   5   4
ATOM      4  O   UNL     1       4.340  -1.541   0.278  0.00  0.00    +0.000 OA
BRANCH   4   3
ATOM      3  C   UNL     1       3.128  -2.086  -0.233  0.00  0.00    +0.000 C 
BRANCH   3   2
ATOM      1  C   UNL     1       4.052  -2.156  -2.617  0.00  0.00    +0.000 C 
ATOM      2  C   UNL     1       2.970  -1.638  -1.681  0.00  0.00    +0.000 C 
ENDBRANCH   3   2
ENDBRANCH   4   3
ENDBRANCH   5   4
ENDBRANCH  13  12
BRANCH  15  16
ATOM     16  C   UNL     1       4.757   2.130   0.716  0.00  0.00    +0.000 C 
BRANCH  16  17
ATOM     17  C   UNL     1       3.703   2.223  -0.377  0.00  0.00    +0.000 A 
ATOM     18  C   UNL     1       2.336   2.196  -0.061  0.00  0.00    +0.000 A 
ATOM     19  C   UNL     1       1.366   2.571  -1.009  0.00  0.00    +0.000 A 
ATOM     20  C   UNL     1       1.731   2.981  -2.299  0.00  0.00    +0.000 A 
ATOM     30  C   UNL     1       3.081   2.850  -2.659  0.00  0.00    +0.000 A 
ATOM     31  C   UNL     1       4.054   2.477  -1.711  0.00  0.00    +0.000 A 
BRANCH  20  21
ATOM     21  C   UNL     1       0.706   3.589  -3.251  0.00  0.00    +0.000 C 
BRANCH  21  22
ATOM     22  N   UNL     1       0.082   4.789  -2.671  0.00  0.00    +0.000 NA
ATOM     34  H   UNL     1       0.812   5.469  -2.462  0.00  0.00    +0.000 HD
BRANCH  22  23
ATOM     23  C   UNL     1      -0.897   5.422  -3.562  0.00  0.00    +0.000 C 
BRANCH  23  24
ATOM     24  C   UNL     1      -1.514   6.664  -2.933  0.00  0.00    +0.000 A 
ATOM     25  C   UNL     1      -1.431   7.919  -3.560  0.00  0.00    +0.000 A 
ATOM     26  C   UNL     1      -2.026   9.050  -2.985  0.00  0.00    +0.000 A 
ATOM     27  C   UNL     1      -2.712   8.943  -1.778  0.00  0.00    +0.000 A 
ATOM     28  C   UNL     1      -2.806   7.706  -1.144  0.00  0.00    +0.000 A 
ATOM     29  C   UNL     1      -2.213   6.577  -1.718  0.00  0.00    +0.000 A 
ENDBRANCH  23  24
ENDBRANCH  22  23
ENDBRANCH  21  22
ENDBRANCH  20  21
ENDBRANCH  16  17
ENDBRANCH  15  16
TORSDOF 10
