REMARK  Name = 
REMARK  15 active torsions:
REMARK  status: ('A' for Active; 'I' for Inactive)
REMARK    1  A    between atoms: C_1  and  C_2
REMARK    2  A    between atoms: C_2  and  C_3
REMARK    3  A    between atoms: C_3  and  C_4
REMARK    4  A    between atoms: C_4  and  C_5
REMARK    5  A    between atoms: C_5  and  C_6
REMARK    6  A    between atoms: C_6  and  C_7
REMARK    7  A    between atoms: C_7  and  C_8
REMARK    8  A    between atoms: C_8  and  C_9
REMARK    9  A    between atoms: C_9  and  C_10
REMARK   10  A    between atoms: C_10  and  N_11
REMARK   11  A    between atoms: N_11  and  C_12
REMARK   12  A    between atoms: C_12  and  C_13
REMARK   13  A    between atoms: C_16  and  C_17
REMARK   14  A    between atoms: C_17  and  N_18
REMARK   15  A    between atoms: C_19  and  C_21
REMARK                            x       y       z     vdW  Elec       q    Type
REMARK                         _______ _______ _______ _____ _____    ______ ____
ROOT
ATOM     13  C   UNL     1      13.179  -5.798   6.145  0.00  0.00    +0.000 A 
ATOM     14  C   UNL     1      12.798  -7.142   6.056  0.00  0.00    +0.000 A 
ATOM     15  C   UNL     1      13.400  -8.102   6.860  0.00  0.00    +0.000 A 
ATOM     16  C   UNL     1      14.396  -7.746   7.780  0.00  0.00    +0.000 A 
ATOM     31  C   UNL     1      14.787  -6.399   7.852  0.00  0.00    +0.000 A 
ATOM     32  C   UNL     1      14.140  -5.425   7.088  0.00  0.00    +0.000 A 
ENDROOT
BRANCH  13  12
ATOM     12  C   UNL     1      12.664  -4.808   5.140  0.00  0.00    +0.000 C 
BRANCH  12  11
ATOM     11  N   UNL     1      11.208  -4.783   5.145  0.00  0.00    +0.000 NA
ATOM     33  H   UNL     1      10.850  -5.716   4.953  0.00  0.00    +0.000 HD
BRANCH  11  10
ATOM     10  C   UNL     1      10.718  -3.858   4.141  0.00  0.00    +0.000 C 
BRANCH  10   9
ATOM      9  C   UNL     1       9.198  -3.854   4.171  0.00  0.00    +0.000 C 
BRANCH   9   8
ATOM      8  C   UNL     1       8.678  -2.879   3.128  0.00  0.00    +0.000 C 
BRANCH   8   7
ATOM      7  C   UNL     1       7.161  -2.853   3.140  0.00  0.00    +0.000 C 
BRANCH   7   6
ATOM      6  C   UNL     1       6.650  -1.878   2.094  0.00  0.00    +0.000 C 
BRANCH   6   5
ATOM      5  C   UNL     1       5.131  -1.853   2.106  0.00  0.00    +0.000 C 
BRANCH   5   4
ATOM      4  C   UNL     1       4.618  -0.876   1.061  0.00  0.00    +0.000 C 
BRANCH   4   3
ATOM      3  C   UNL     1       3.099  -0.849   1.072  0.00  0.00    +0.000 C 
BRANCH   3   2
ATOM      1  C   UNL     1       1.060   0.150   0.040  0.00  0.00    +0.000 C 
ATOM      2  C   UNL     1       2.576   0.126   0.027  0.00  0.00    +0.000 C 
ENDBRANCH   3   2
ENDBRANCH   4   3
ENDBRANCH   5   4
ENDBRANCH   6   5
ENDBRANCH   7   6
ENDBRANCH   8   7
ENDBRANCH   9   8
ENDBRANCH  10   9
ENDBRANCH  11  10
ENDBRANCH  12  11
ENDBRANCH  13  12
BRANCH  16  17
ATOM     17  C   UNL     1      15.005  -8.768   8.714  0.00  0.00    +0.000 C 
BRANCH  17  18
ATOM     18  N   UNL     1      16.164  -9.430   8.157  0.00  0.00    +0.000 N 
ATOM     19  C   UNL     1      16.860 -10.385   8.878  0.00  0.00    +0.000 C 
ATOM     20  O   UNL     1      16.535 -10.748  10.000  0.00  0.00    +0.000 OA
ATOM     34  H   UNL     1      16.628  -8.969   7.396  0.00  0.00    +0.000 HD
BRANCH  19  21
ATOM     21  C   UNL     1      18.027 -10.965   8.187  0.00  0.00    +0.000 A 
ATOM     22  C   UNL     1      18.433 -12.265   8.446  0.00  0.00    +0.000 A 
ATOM     23  S   UNL     1      19.865 -12.707   7.621  0.00  0.00    +0.000 S 
ATOM     24  C   UNL     1      19.975 -11.180   6.876  0.00  0.00    +0.000 A 
ATOM     25  N   UNL     1      21.009 -10.860   6.053  0.00  0.00    +0.000 NA
ATOM     26  C   UNL     1      20.940  -9.674   5.546  0.00  0.00    +0.000 A 
ATOM     27  N   UNL     1      19.923  -8.782   5.780  0.00  0.00    +0.000 N 
ATOM     28  C   UNL     1      18.876  -9.056   6.609  0.00  0.00    +0.000 A 
ATOM     29  O   UNL     1      17.972  -8.230   6.779  0.00  0.00    +0.000 OA
ATOM     30  C   UNL     1      18.912 -10.365   7.223  0.00  0.00    +0.000 A 
ATOM     35  H   UNL     1      19.902  -7.882   5.329  0.00  0.00    +0.000 HD
ENDBRANCH  19  21
ENDBRANCH  17  18
ENDBRANCH  16  17
TORSDOF 14
