REMARK  Name = 
REMARK  9 active torsions:
REMARK  status: ('A' for Active; 'I' for Inactive)
REMARK    1  A    between atoms: C_1  and  C_2
REMARK    2  A    between atoms: C_2  and  N_3
REMARK    3  A    between atoms: N_3  and  C_4
REMARK    4  A    between atoms: N_3  and  C_6
REMARK    5  A    between atoms: C_4  and  C_5
REMARK    6  A    between atoms: C_6  and  C_7
REMARK    7  A    between atoms: C_10  and  C_11
REMARK    8  A    between atoms: C_11  and  N_12
REMARK    9  A    between atoms: C_13  and  C_15
REMARK                            x       y       z     vdW  Elec       q    Type
REMARK                         _______ _______ _______ _____ _____    ______ ____
ROOT
ATOM     12  N   UNL     1       7.621   3.468  -6.249  0.00  0.00    +0.000 N 
ATOM     13  C   UNL     1       8.104   4.131  -7.350  0.00  0.00    +0.000 C 
ATOM     14  O   UNL     1       7.398   4.385  -8.322  0.00  0.00    +0.000 OA
ATOM     27  H   UNL     1       8.272   3.072  -5.579  0.00  0.00    +0.000 HD
ENDROOT
BRANCH  13  15
ATOM     15  C   UNL     1       9.501   4.577  -7.283  0.00  0.00    +0.000 A 
ATOM     16  C   UNL     1       9.922   5.652  -8.055  0.00  0.00    +0.000 A 
ATOM     17  S   UNL     1      11.561   6.063  -7.820  0.00  0.00    +0.000 S 
ATOM     18  C   UNL     1      11.779   4.781  -6.720  0.00  0.00    +0.000 A 
ATOM     19  N   UNL     1      12.993   4.547  -6.154  0.00  0.00    +0.000 NA
ATOM     20  C   UNL     1      13.025   3.528  -5.360  0.00  0.00    +0.000 A 
ATOM     21  N   UNL     1      11.950   2.723  -5.083  0.00  0.00    +0.000 N 
ATOM     22  C   UNL     1      10.699   2.941  -5.607  0.00  0.00    +0.000 A 
ATOM     23  O   UNL     1       9.748   2.231  -5.298  0.00  0.00    +0.000 OA
ATOM     24  C   UNL     1      10.613   4.069  -6.515  0.00  0.00    +0.000 A 
ATOM     28  H   UNL     1      12.038   1.946  -4.447  0.00  0.00    +0.000 HD
ENDBRANCH  13  15
BRANCH  12  11
ATOM     11  C   UNL     1       6.270   2.976  -6.210  0.00  0.00    +0.000 C 
BRANCH  11  10
ATOM      7  C   UNL     1       5.100   1.169  -2.448  0.00  0.00    +0.000 A 
ATOM      8  C   UNL     1       4.994   2.554  -2.637  0.00  0.00    +0.000 A 
ATOM      9  C   UNL     1       5.402   3.145  -3.838  0.00  0.00    +0.000 A 
ATOM     10  C   UNL     1       5.930   2.364  -4.875  0.00  0.00    +0.000 A 
ATOM     25  C   UNL     1       6.126   0.995  -4.650  0.00  0.00    +0.000 A 
ATOM     26  C   UNL     1       5.708   0.401  -3.453  0.00  0.00    +0.000 A 
BRANCH   7   6
ATOM      6  C   UNL     1       4.501   0.504  -1.216  0.00  0.00    +0.000 C 
BRANCH   6   3
ATOM      3  N   UNL     1       3.042   0.718  -1.084  0.00  0.00    +0.000 NA
BRANCH   3   4
ATOM      4  C   UNL     1       2.526   0.261   0.216  0.00  0.00    +0.000 C 
ATOM      5  C   UNL     1       2.646  -1.230   0.523  0.00  0.00    +0.000 C 
ENDBRANCH   3   4
BRANCH   3   2
ATOM      1  C   UNL     1       0.803   0.444  -2.215  0.00  0.00    +0.000 C 
ATOM      2  C   UNL     1       2.307   0.185  -2.244  0.00  0.00    +0.000 C 
ENDBRANCH   3   2
ENDBRANCH   6   3
ENDBRANCH   7   6
ENDBRANCH  11  10
ENDBRANCH  12  11
TORSDOF 7
