REMARK  Name = 
REMARK  1 active torsions:
REMARK  status: ('A' for Active; 'I' for Inactive)
REMARK    1  A    between atoms: C_2  and  C_4
REMARK                            x       y       z     vdW  Elec       q    Type
REMARK                         _______ _______ _______ _____ _____    ______ ____
ROOT
ATOM      4  C   UNL     1       3.185   0.693  -1.092  0.00  0.00    +0.000 A 
ATOM      5  C   UNL     1       2.770   1.878  -1.697  0.00  0.00    +0.000 A 
ATOM      6  C   UNL     1       3.558   2.436  -2.704  0.00  0.00    +0.000 A 
ATOM      7  C   UNL     1       4.736   1.800  -3.071  0.00  0.00    +0.000 A 
ATOM      8  N   UNL     1       5.525   2.310  -4.098  0.00  0.00    +0.000 N 
ATOM      9  N   UNL     1       5.158   0.660  -2.499  0.00  0.00    +0.000 NA
ATOM     10  C   UNL     1       4.383   0.135  -1.514  0.00  0.00    +0.000 A 
ATOM     13  H   UNL     1       5.775   3.278  -3.936  0.00  0.00    +0.000 HD
ATOM     14  H   UNL     1       6.348   1.714  -4.160  0.00  0.00    +0.000 HD
ENDROOT
BRANCH   4   2
ATOM      1  N   UNL     1       1.069   0.210  -0.002  0.00  0.00    +0.000 N 
ATOM      2  C   UNL     1       2.423   0.023  -0.019  0.00  0.00    +0.000 C 
ATOM      3  O   UNL     1       2.974  -0.700   0.800  0.00  0.00    +0.000 OA
ATOM     11  H   UNL     1       0.550  -0.345   0.669  0.00  0.00    +0.000 HD
ATOM     12  H   UNL     1       0.560   0.574  -0.795  0.00  0.00    +0.000 HD
ENDBRANCH   4   2
TORSDOF 1
