REMARK  Name = 
REMARK  7 active torsions:
REMARK  status: ('A' for Active; 'I' for Inactive)
REMARK    1  A    between atoms: C_1  and  C_2
REMARK    2  A    between atoms: C_2  and  C_3
REMARK    3  A    between atoms: C_2  and  C_4
REMARK    4  A    between atoms: C_2  and  C_15
REMARK    5  A    between atoms: C_4  and  N_5
REMARK    6  A    between atoms: C_9  and  C_10
REMARK    7  A    between atoms: C_19  and  N_20
REMARK                            x       y       z     vdW  Elec       q    Type
REMARK                         _______ _______ _______ _____ _____    ______ ____
ROOT
ATOM      1  C   UNL     1       0.977   0.074   0.053  0.00  0.00    +0.000 C 
ATOM      2  C   UNL     1       2.522   0.069   0.089  0.00  0.00    +0.000 C 
ATOM      3  C   UNL     1       2.995   1.519  -0.179  0.00  0.00    +0.000 C 
ENDROOT
BRANCH   2  15
ATOM     15  C   UNL     1       3.037  -0.936  -0.970  0.00  0.00    +0.000 A 
ATOM     16  C   UNL     1       3.859  -0.554  -2.040  0.00  0.00    +0.000 A 
ATOM     17  C   UNL     1       4.301  -1.490  -2.972  0.00  0.00    +0.000 A 
ATOM     18  C   UNL     1       3.933  -2.828  -2.847  0.00  0.00    +0.000 A 
ATOM     19  C   UNL     1       3.126  -3.268  -1.792  0.00  0.00    +0.000 A 
ATOM     26  C   UNL     1       2.689  -2.305  -0.872  0.00  0.00    +0.000 A 
BRANCH  19  20
ATOM     20  N   UNL     1       2.847  -4.620  -1.665  0.00  0.00    +0.000 N 
ATOM     21  C   UNL     1       2.560  -5.217  -0.354  0.00  0.00    +0.000 C 
ATOM     22  C   UNL     1       2.903  -6.727  -0.403  0.00  0.00    +0.000 C 
ATOM     23  N   UNL     1       2.221  -7.463  -1.494  0.00  0.00    +0.000 NA
ATOM     24  C   UNL     1       2.509  -6.787  -2.780  0.00  0.00    +0.000 C 
ATOM     25  C   UNL     1       2.154  -5.282  -2.783  0.00  0.00    +0.000 C 
ATOM     30  H   UNL     1       1.216  -7.406  -1.329  0.00  0.00    +0.000 HD
ENDBRANCH  19  20
ENDBRANCH   2  15
BRANCH   2   4
ATOM      4  C   UNL     1       3.048  -0.381   1.489  0.00  0.00    +0.000 C 
BRANCH   4   5
ATOM      5  N   UNL     1       2.644   0.517   2.566  0.00  0.00    +0.000 N 
ATOM      6  C   UNL     1       3.040   0.258   3.865  0.00  0.00    +0.000 A 
ATOM      7  C   UNL     1       4.255  -0.332   4.193  0.00  0.00    +0.000 A 
ATOM      8  C   UNL     1       4.601  -0.502   5.534  0.00  0.00    +0.000 A 
ATOM      9  C   UNL     1       3.738  -0.057   6.533  0.00  0.00    +0.000 A 
ATOM     13  C   UNL     1       2.552   0.526   6.120  0.00  0.00    +0.000 A 
ATOM     14  N   UNL     1       2.186   0.680   4.819  0.00  0.00    +0.000 NA
ATOM     27  H   UNL     1       1.661   0.776   2.602  0.00  0.00    +0.000 HD
BRANCH   9  10
ATOM     10  C   UNL     1       4.140  -0.223   7.950  0.00  0.00    +0.000 C 
ATOM     11  N   UNL     1       3.318   0.246   8.939  0.00  0.00    +0.000 N 
ATOM     12  O   UNL     1       5.197  -0.769   8.248  0.00  0.00    +0.000 OA
ATOM     28  H   UNL     1       2.453   0.739   8.805  0.00  0.00    +0.000 HD
ATOM     29  H   UNL     1       3.648   0.125   9.888  0.00  0.00    +0.000 HD
ENDBRANCH   9  10
ENDBRANCH   4   5
ENDBRANCH   2   4
TORSDOF 5
