REMARK  Name = 
REMARK  5 active torsions:
REMARK  status: ('A' for Active; 'I' for Inactive)
REMARK    1  A    between atoms: C_1  and  N_2
REMARK    2  A    between atoms: N_2  and  C_18
REMARK    3  A    between atoms: C_3  and  C_5
REMARK    4  A    between atoms: C_5  and  N_6
REMARK    5  A    between atoms: C_11  and  C_12
REMARK                            x       y       z     vdW  Elec       q    Type
REMARK                         _______ _______ _______ _____ _____    ______ ____
ROOT
ATOM      6  N   UNL     1       3.176  -2.690  -2.715  0.00  0.00    +0.000 N 
ATOM      7  C   UNL     1       4.025  -3.716  -2.364  0.00  0.00    +0.000 A 
ATOM      8  C   UNL     1       4.734  -4.091  -3.482  0.00  0.00    +0.000 A 
ATOM      9  C   UNL     1       4.260  -3.311  -4.566  0.00  0.00    +0.000 A 
ATOM     10  C   UNL     1       4.561  -3.240  -5.937  0.00  0.00    +0.000 A 
ATOM     11  C   UNL     1       3.849  -2.321  -6.712  0.00  0.00    +0.000 A 
ATOM     15  C   UNL     1       2.894  -1.520  -6.083  0.00  0.00    +0.000 A 
ATOM     16  N   UNL     1       2.576  -1.537  -4.761  0.00  0.00    +0.000 NA
ATOM     17  C   UNL     1       3.289  -2.448  -4.064  0.00  0.00    +0.000 A 
ENDROOT
BRANCH  11  12
ATOM     12  C   UNL     1       4.056  -2.157  -8.170  0.00  0.00    +0.000 C 
ATOM     13  N   UNL     1       4.998  -2.925  -8.792  0.00  0.00    +0.000 N 
ATOM     14  O   UNL     1       3.396  -1.349  -8.818  0.00  0.00    +0.000 OA
ATOM     24  H   UNL     1       5.598  -3.596  -8.339  0.00  0.00    +0.000 HD
ATOM     25  H   UNL     1       5.118  -2.788  -9.788  0.00  0.00    +0.000 HD
ENDBRANCH  11  12
BRANCH   6   5
ATOM      5  C   UNL     1       2.266  -1.994  -1.805  0.00  0.00    +0.000 C 
BRANCH   5   3
ATOM      1  C   UNL     1       3.283   0.515   0.918  0.00  0.00    +0.000 C 
ATOM      2  N   UNL     1       2.506  -0.052  -0.185  0.00  0.00    +0.000 N 
ATOM      3  C   UNL     1       3.013  -1.247  -0.708  0.00  0.00    +0.000 C 
ATOM      4  O   UNL     1       4.047  -1.736  -0.234  0.00  0.00    +0.000 OA
BRANCH   2  18
ATOM     18  C   UNL     1       1.347   0.719  -0.727  0.00  0.00    +0.000 C 
ATOM     19  C   UNL     1       1.552   2.243  -0.789  0.00  0.00    +0.000 C 
ATOM     20  C   UNL     1       1.333   2.950   0.547  0.00  0.00    +0.000 C 
ATOM     21  N   UNL     1       0.077   2.580   1.200  0.00  0.00    +0.000 NA
ATOM     22  C   UNL     1      -0.112   1.137   1.314  0.00  0.00    +0.000 C 
ATOM     23  C   UNL     1       0.013   0.421  -0.027  0.00  0.00    +0.000 C 
ATOM     26  H   UNL     1      -0.700   2.977   0.675  0.00  0.00    +0.000 HD
ENDBRANCH   2  18
ENDBRANCH   5   3
ENDBRANCH   6   5
TORSDOF 4
