REMARK  Name = 
REMARK  17 active torsions:
REMARK  status: ('A' for Active; 'I' for Inactive)
REMARK    1  A    between atoms: C_1  and  C_2
REMARK    2  A    between atoms: C_2  and  C_3
REMARK    3  A    between atoms: C_3  and  C_4
REMARK    4  A    between atoms: C_4  and  C_5
REMARK    5  A    between atoms: C_5  and  C_6
REMARK    6  A    between atoms: C_6  and  C_7
REMARK    7  A    between atoms: C_7  and  C_8
REMARK    8  A    between atoms: C_8  and  N_9
REMARK    9  A    between atoms: N_9  and  C_10
REMARK   10  A    between atoms: C_10  and  C_11
REMARK   11  A    between atoms: C_14  and  C_15
REMARK   12  A    between atoms: C_15  and  N_16
REMARK   13  A    between atoms: C_17  and  C_19
REMARK   14  A    between atoms: C_26  and  O_27
REMARK   15  A    between atoms: O_27  and  C_28
REMARK   16  A    between atoms: C_28  and  C_29
REMARK   17  A    between atoms: C_32  and  N_33
REMARK                            x       y       z     vdW  Elec       q    Type
REMARK                         _______ _______ _______ _____ _____    ______ ____
ROOT
ATOM     16  N   UNL     1      10.774  10.886   5.112  0.00  0.00    +0.000 N 
ATOM     17  C   UNL     1      10.631  12.114   4.507  0.00  0.00    +0.000 C 
ATOM     18  O   UNL     1      11.528  12.676   3.919  0.00  0.00    +0.000 OA
ATOM     42  H   UNL     1      10.015  10.555   5.682  0.00  0.00    +0.000 HD
ENDROOT
BRANCH  17  19
ATOM     19  C   UNL     1       9.306  12.725   4.678  0.00  0.00    +0.000 A 
ATOM     20  C   UNL     1       9.155  14.102   4.745  0.00  0.00    +0.000 A 
ATOM     21  S   UNL     1       7.522  14.589   4.847  0.00  0.00    +0.000 S 
ATOM     22  C   UNL     1       6.979  12.978   4.817  0.00  0.00    +0.000 A 
ATOM     23  N   UNL     1       5.674  12.704   4.875  0.00  0.00    +0.000 NA
ATOM     24  C   UNL     1       5.414  11.387   4.857  0.00  0.00    +0.000 A 
ATOM     25  N   UNL     1       6.315  10.393   4.814  0.00  0.00    +0.000 NA
ATOM     26  C   UNL     1       7.616  10.722   4.765  0.00  0.00    +0.000 A 
ATOM     38  C   UNL     1       8.022  12.065   4.747  0.00  0.00    +0.000 A 
BRANCH  26  27
ATOM     27  O   UNL     1       8.579   9.743   4.736  0.00  0.00    +0.000 OA
BRANCH  27  28
ATOM     28  C   UNL     1       8.219   8.515   5.368  0.00  0.00    +0.000 C 
BRANCH  28  29
ATOM     29  C   UNL     1       7.603   7.559   4.386  0.00  0.00    +0.000 A 
ATOM     30  C   UNL     1       7.366   7.889   3.059  0.00  0.00    +0.000 A 
ATOM     31  C   UNL     1       6.823   6.955   2.176  0.00  0.00    +0.000 A 
ATOM     32  C   UNL     1       6.506   5.649   2.592  0.00  0.00    +0.000 A 
ATOM     36  C   UNL     1       6.735   5.330   3.923  0.00  0.00    +0.000 A 
ATOM     37  C   UNL     1       7.259   6.279   4.820  0.00  0.00    +0.000 A 
BRANCH  32  33
ATOM     33  N   UNL     1       5.950   4.656   1.772  0.00  0.00    +0.000 NA
ATOM     34  N   UNL     1       6.275   4.718   0.567  0.00  0.00    +0.000 NA
ATOM     35  N   UNL     1       6.564   4.773  -0.528  0.00  0.00    +0.000 NA
ENDBRANCH  32  33
ENDBRANCH  28  29
ENDBRANCH  27  28
ENDBRANCH  26  27
ENDBRANCH  17  19
BRANCH  16  15
ATOM     15  C   UNL     1      11.962  10.076   4.966  0.00  0.00    +0.000 C 
BRANCH  15  14
ATOM     11  C   UNL     1      11.133   6.234   3.116  0.00  0.00    +0.000 A 
ATOM     12  C   UNL     1      10.928   7.419   2.409  0.00  0.00    +0.000 A 
ATOM     13  C   UNL     1      11.255   8.649   2.973  0.00  0.00    +0.000 A 
ATOM     14  C   UNL     1      11.729   8.737   4.291  0.00  0.00    +0.000 A 
ATOM     39  C   UNL     1      11.936   7.539   4.998  0.00  0.00    +0.000 A 
ATOM     40  C   UNL     1      11.695   6.296   4.395  0.00  0.00    +0.000 A 
BRANCH  11  10
ATOM     10  C   UNL     1      10.649   4.940   2.515  0.00  0.00    +0.000 C 
BRANCH  10   9
ATOM      9  N   UNL     1      11.274   4.716   1.219  0.00  0.00    +0.000 NA
ATOM     41  H   UNL     1      11.075   5.501   0.601  0.00  0.00    +0.000 HD
BRANCH   9   8
ATOM      8  C   UNL     1      10.786   3.483   0.629  0.00  0.00    +0.000 C 
BRANCH   8   7
ATOM      7  C   UNL     1      11.451   3.260  -0.722  0.00  0.00    +0.000 C 
BRANCH   7   6
ATOM      6  C   UNL     1      10.938   1.961  -1.331  0.00  0.00    +0.000 C 
BRANCH   6   5
ATOM      5  C   UNL     1      11.588   1.711  -2.681  0.00  0.00    +0.000 C 
BRANCH   5   4
ATOM      4  C   UNL     1      11.070   0.412  -3.281  0.00  0.00    +0.000 C 
BRANCH   4   3
ATOM      3  C   UNL     1      11.719   0.162  -4.634  0.00  0.00    +0.000 C 
BRANCH   3   2
ATOM      1  C   UNL     1      11.855  -1.380  -6.592  0.00  0.00    +0.000 C 
ATOM      2  C   UNL     1      11.205  -1.135  -5.244  0.00  0.00    +0.000 C 
ENDBRANCH   3   2
ENDBRANCH   4   3
ENDBRANCH   5   4
ENDBRANCH   6   5
ENDBRANCH   7   6
ENDBRANCH   8   7
ENDBRANCH   9   8
ENDBRANCH  10   9
ENDBRANCH  11  10
ENDBRANCH  15  14
ENDBRANCH  16  15
TORSDOF 16
