REMARK  Name = 
REMARK  7 active torsions:
REMARK  status: ('A' for Active; 'I' for Inactive)
REMARK    1  A    between atoms: C_1  and  O_2
REMARK    2  A    between atoms: O_2  and  C_3
REMARK    3  A    between atoms: C_10  and  C_11
REMARK    4  A    between atoms: N_13  and  C_14
REMARK    5  A    between atoms: C_14  and  C_15
REMARK    6  A    between atoms: C_18  and  C_19
REMARK    7  A    between atoms: C_19  and  N_20
REMARK                            x       y       z     vdW  Elec       q    Type
REMARK                         _______ _______ _______ _____ _____    ______ ____
ROOT
ATOM     11  C   UNL     1       5.026   0.579   2.253  0.00  0.00    +0.000 C 
ATOM     12  O   UNL     1       5.193   0.229   3.420  0.00  0.00    +0.000 OA
ATOM     13  N   UNL     1       3.995   1.417   1.915  0.00  0.00    +0.000 N 
ATOM     29  H   UNL     1       3.875   1.727   0.959  0.00  0.00    +0.000 HD
ENDROOT
BRANCH  11  10
ATOM      3  C   UNL     1       5.096   0.972  -1.179  0.00  0.00    +0.000 A 
ATOM      4  N   UNL     1       5.396   1.007  -2.494  0.00  0.00    +0.000 NA
ATOM      5  C   UNL     1       6.504   0.384  -2.906  0.00  0.00    +0.000 A 
ATOM      6  N   UNL     1       7.365  -0.293  -2.153  0.00  0.00    +0.000 NA
ATOM      7  C   UNL     1       7.036  -0.293  -0.850  0.00  0.00    +0.000 A 
ATOM      8  S   UNL     1       8.018  -1.124   0.256  0.00  0.00    +0.000 S 
ATOM      9  C   UNL     1       7.021  -0.672   1.552  0.00  0.00    +0.000 A 
ATOM     10  C   UNL     1       5.936   0.120   1.187  0.00  0.00    +0.000 A 
ATOM     28  C   UNL     1       5.936   0.324  -0.258  0.00  0.00    +0.000 A 
BRANCH   3   2
ATOM      1  C   UNL     1       2.962   1.692  -1.782  0.00  0.00    +0.000 C 
ATOM      2  O   UNL     1       3.954   1.625  -0.758  0.00  0.00    +0.000 OA
ENDBRANCH   3   2
ENDBRANCH  11  10
BRANCH  13  14
ATOM     14  C   UNL     1       3.085   1.921   2.922  0.00  0.00    +0.000 C 
BRANCH  14  15
ATOM     15  C   UNL     1       1.940   2.691   2.312  0.00  0.00    +0.000 A 
ATOM     16  C   UNL     1       0.802   2.013   1.858  0.00  0.00    +0.000 A 
ATOM     17  C   UNL     1      -0.236   2.702   1.220  0.00  0.00    +0.000 A 
ATOM     18  C   UNL     1      -0.171   4.087   1.025  0.00  0.00    +0.000 A 
ATOM     26  C   UNL     1       0.957   4.770   1.509  0.00  0.00    +0.000 A 
ATOM     27  C   UNL     1       2.005   4.080   2.140  0.00  0.00    +0.000 A 
BRANCH  18  19
ATOM     19  C   UNL     1      -1.211   4.800   0.183  0.00  0.00    +0.000 C 
BRANCH  19  20
ATOM     20  N   UNL     1      -2.432   5.311   0.795  0.00  0.00    +0.000 NA
ATOM     21  C   UNL     1      -2.295   6.360   1.805  0.00  0.00    +0.000 C 
ATOM     22  C   UNL     1      -2.265   5.855   3.257  0.00  0.00    +0.000 C 
ATOM     23  O   UNL     1      -3.348   4.959   3.541  0.00  0.00    +0.000 OA
ATOM     24  C   UNL     1      -3.355   3.855   2.629  0.00  0.00    +0.000 C 
ATOM     25  C   UNL     1      -3.455   4.335   1.176  0.00  0.00    +0.000 C 
ENDBRANCH  19  20
ENDBRANCH  18  19
ENDBRANCH  14  15
ENDBRANCH  13  14
TORSDOF 6
