REMARK  Name = 
REMARK  17 active torsions:
REMARK  status: ('A' for Active; 'I' for Inactive)
REMARK    1  A    between atoms: C_1  and  C_2
REMARK    2  A    between atoms: C_2  and  C_3
REMARK    3  A    between atoms: C_3  and  C_4
REMARK    4  A    between atoms: C_4  and  C_5
REMARK    5  A    between atoms: C_5  and  C_6
REMARK    6  A    between atoms: C_6  and  C_7
REMARK    7  A    between atoms: C_7  and  C_8
REMARK    8  A    between atoms: C_8  and  N_9
REMARK    9  A    between atoms: N_9  and  C_10
REMARK   10  A    between atoms: C_10  and  C_11
REMARK   11  A    between atoms: C_14  and  C_15
REMARK   12  A    between atoms: C_15  and  N_16
REMARK   13  A    between atoms: C_17  and  C_19
REMARK   14  A    between atoms: C_26  and  O_27
REMARK   15  A    between atoms: O_27  and  C_28
REMARK   16  A    between atoms: C_28  and  C_29
REMARK   17  A    between atoms: C_29  and  C_30
REMARK                            x       y       z     vdW  Elec       q    Type
REMARK                         _______ _______ _______ _____ _____    ______ ____
ROOT
ATOM     15  C   UNL     1      12.217  11.096   1.752  0.00  0.00    +0.000 C 
ENDROOT
BRANCH  15  14
ATOM     11  C   UNL     1      10.964   6.995   1.130  0.00  0.00    +0.000 A 
ATOM     12  C   UNL     1      10.298   8.053   0.493  0.00  0.00    +0.000 A 
ATOM     13  C   UNL     1      10.710   9.376   0.683  0.00  0.00    +0.000 A 
ATOM     14  C   UNL     1      11.797   9.670   1.518  0.00  0.00    +0.000 A 
ATOM     32  C   UNL     1      12.447   8.616   2.173  0.00  0.00    +0.000 A 
ATOM     33  C   UNL     1      12.039   7.292   1.977  0.00  0.00    +0.000 A 
BRANCH  11  10
ATOM     10  C   UNL     1      10.534   5.563   0.903  0.00  0.00    +0.000 C 
BRANCH  10   9
ATOM      9  N   UNL     1      10.749   5.171  -0.488  0.00  0.00    +0.000 NA
ATOM     34  H   UNL     1      10.251   5.815  -1.100  0.00  0.00    +0.000 HD
BRANCH   9   8
ATOM      8  C   UNL     1      10.298   3.807  -0.744  0.00  0.00    +0.000 C 
BRANCH   8   7
ATOM      7  C   UNL     1      10.491   3.494  -2.229  0.00  0.00    +0.000 C 
BRANCH   7   6
ATOM      6  C   UNL     1      10.053   2.068  -2.552  0.00  0.00    +0.000 C 
BRANCH   6   5
ATOM      5  C   UNL     1      10.253   1.752  -4.034  0.00  0.00    +0.000 C 
BRANCH   5   4
ATOM      4  C   UNL     1       9.818   0.320  -4.346  0.00  0.00    +0.000 C 
BRANCH   4   3
ATOM      3  C   UNL     1      10.014  -0.013  -5.824  0.00  0.00    +0.000 C 
BRANCH   3   2
ATOM      1  C   UNL     1       9.765  -1.783  -7.595  0.00  0.00    +0.000 C 
ATOM      2  C   UNL     1       9.576  -1.445  -6.126  0.00  0.00    +0.000 C 
ENDBRANCH   3   2
ENDBRANCH   4   3
ENDBRANCH   5   4
ENDBRANCH   6   5
ENDBRANCH   7   6
ENDBRANCH   8   7
ENDBRANCH   9   8
ENDBRANCH  10   9
ENDBRANCH  11  10
ENDBRANCH  15  14
BRANCH  15  16
ATOM     16  N   UNL     1      11.445  11.694   2.811  0.00  0.00    +0.000 N 
ATOM     17  C   UNL     1      11.622  12.996   3.192  0.00  0.00    +0.000 C 
ATOM     18  O   UNL     1      12.398  13.745   2.608  0.00  0.00    +0.000 OA
ATOM     35  H   UNL     1      10.913  11.071   3.404  0.00  0.00    +0.000 HD
BRANCH  17  19
ATOM     19  C   UNL     1      10.776  13.471   4.296  0.00  0.00    +0.000 A 
ATOM     20  C   UNL     1      10.510  14.829   4.409  0.00  0.00    +0.000 A 
ATOM     21  S   UNL     1       9.450  15.210   5.685  0.00  0.00    +0.000 S 
ATOM     22  C   UNL     1       9.364  13.583   6.166  0.00  0.00    +0.000 A 
ATOM     23  N   UNL     1       8.616  13.241   7.228  0.00  0.00    +0.000 NA
ATOM     24  C   UNL     1       8.678  11.939   7.504  0.00  0.00    +0.000 A 
ATOM     25  N   UNL     1       9.375  11.005   6.848  0.00  0.00    +0.000 NA
ATOM     26  C   UNL     1      10.087  11.390   5.772  0.00  0.00    +0.000 A 
ATOM     31  C   UNL     1      10.122  12.735   5.369  0.00  0.00    +0.000 A 
BRANCH  26  27
ATOM     27  O   UNL     1      10.843  10.452   5.106  0.00  0.00    +0.000 OA
BRANCH  27  28
ATOM     28  C   UNL     1      10.349   9.112   5.166  0.00  0.00    +0.000 C 
BRANCH  28  29
ATOM     29  C   UNL     1      11.424   8.226   5.781  0.00  0.00    +0.000 C 
ATOM     30  C   UNL     1      11.008   6.767   5.783  0.00  0.00    +0.000 C 
ENDBRANCH  28  29
ENDBRANCH  27  28
ENDBRANCH  26  27
ENDBRANCH  17  19
ENDBRANCH  15  16
TORSDOF 15
