REMARK  Name = 
REMARK  13 active torsions:
REMARK  status: ('A' for Active; 'I' for Inactive)
REMARK    1  A    between atoms: N_2  and  C_3
REMARK    2  A    between atoms: C_3  and  C_4
REMARK    3  A    between atoms: C_4  and  C_5
REMARK    4  A    between atoms: C_5  and  C_6
REMARK    5  A    between atoms: C_6  and  C_7
REMARK    6  A    between atoms: C_7  and  C_8
REMARK    7  A    between atoms: C_8  and  C_9
REMARK    8  A    between atoms: C_9  and  N_10
REMARK    9  A    between atoms: N_10  and  C_11
REMARK   10  A    between atoms: C_11  and  C_12
REMARK   11  A    between atoms: C_15  and  C_16
REMARK   12  A    between atoms: C_16  and  N_17
REMARK   13  A    between atoms: C_18  and  C_20
REMARK                            x       y       z     vdW  Elec       q    Type
REMARK                         _______ _______ _______ _____ _____    ______ ____
ROOT
ATOM      1 CL   UNL     1       1.215  -3.242  -0.181  0.00  0.00    +0.000 Cl
ATOM      2  H   UNL     1       0.995  -2.023   0.416  0.00  0.00    +0.000 HD
ENDROOT
TORSDOF 0
REMARK  Name = 
REMARK  13 active torsions:
REMARK  status: ('A' for Active; 'I' for Inactive)
REMARK    1  A    between atoms: N_2  and  C_3
REMARK    2  A    between atoms: C_3  and  C_4
REMARK    3  A    between atoms: C_4  and  C_5
REMARK    4  A    between atoms: C_5  and  C_6
REMARK    5  A    between atoms: C_6  and  C_7
REMARK    6  A    between atoms: C_7  and  C_8
REMARK    7  A    between atoms: C_8  and  C_9
REMARK    8  A    between atoms: C_9  and  N_10
REMARK    9  A    between atoms: N_10  and  C_11
REMARK   10  A    between atoms: C_11  and  C_12
REMARK   11  A    between atoms: C_15  and  C_16
REMARK   12  A    between atoms: C_16  and  N_17
REMARK   13  A    between atoms: C_18  and  C_20
REMARK                            x       y       z     vdW  Elec       q    Type
REMARK                         _______ _______ _______ _____ _____    ______ ____
ROOT
ATOM     11  C   UNL     1      10.981   5.752  -4.270  0.00  0.00    +0.000 A 
ATOM     12  C   UNL     1      10.480   7.007  -3.930  0.00  0.00    +0.000 A 
ATOM     13  C   UNL     1      10.801   8.128  -4.676  0.00  0.00    +0.000 A 
ATOM     14  C   UNL     1      11.664   8.030  -5.792  0.00  0.00    +0.000 A 
ATOM     29  C   UNL     1      12.197   6.768  -6.113  0.00  0.00    +0.000 A 
ATOM     30  C   UNL     1      11.858   5.633  -5.361  0.00  0.00    +0.000 A 
ENDROOT
BRANCH  11  10
ATOM     10  C   UNL     1      10.542   4.564  -3.465  0.00  0.00    +0.000 C 
BRANCH  10   9
ATOM      9  N   UNL     1       9.086   4.444  -3.561  0.00  0.00    +0.000 NA
ATOM     33  H   UNL     1       8.623   5.295  -3.164  0.00  0.00    +0.000 HD
BRANCH   9   8
ATOM      8  C   UNL     1       8.601   3.303  -2.798  0.00  0.00    +0.000 C 
BRANCH   8   7
ATOM      7  C   UNL     1       7.089   3.222  -2.937  0.00  0.00    +0.000 C 
BRANCH   7   6
ATOM      6  C   UNL     1       6.709   3.051  -4.399  0.00  0.00    +0.000 C 
BRANCH   6   5
ATOM      5  C   UNL     1       5.201   2.980  -4.508  0.00  0.00    +0.000 C 
BRANCH   5   4
ATOM      4  C   UNL     1       4.783   2.807  -5.955  0.00  0.00    +0.000 C 
BRANCH   4   3
ATOM      3  C   UNL     1       3.265   2.741  -6.009  0.00  0.00    +0.000 C 
BRANCH   3   2
ATOM      2  C   UNL     1       2.782   2.568  -7.433  0.00  0.00    +0.000 C 
BRANCH   2   1
ATOM      1  N   UNL     1       1.326   2.509  -7.435  0.00  0.00    +0.000 NA
ATOM     31  H   UNL     1       0.997   2.292  -8.400  0.00  0.00    +0.000 HD
ATOM     32  H   UNL     1       0.950   3.444  -7.152  0.00  0.00    +0.000 HD
ENDBRANCH   2   1
ENDBRANCH   3   2
ENDBRANCH   4   3
ENDBRANCH   5   4
ENDBRANCH   6   5
ENDBRANCH   7   6
ENDBRANCH   8   7
ENDBRANCH   9   8
ENDBRANCH  10   9
ENDBRANCH  11  10
BRANCH  14  15
ATOM     15  C   UNL     1      11.991   9.229  -6.684  0.00  0.00    +0.000 C 
BRANCH  15  16
ATOM     16  N   UNL     1      13.167   9.962  -6.233  0.00  0.00    +0.000 N 
ATOM     17  C   UNL     1      13.647  11.075  -6.875  0.00  0.00    +0.000 C 
ATOM     18  O   UNL     1      13.114  11.485  -7.879  0.00  0.00    +0.000 OA
ATOM     34  H   UNL     1      13.628   9.670  -5.367  0.00  0.00    +0.000 HD
BRANCH  17  19
ATOM     19  C   UNL     1      14.819  11.793  -6.281  0.00  0.00    +0.000 A 
ATOM     20  C   UNL     1      15.769  11.116  -5.505  0.00  0.00    +0.000 A 
ATOM     21  S   UNL     1      16.978  12.178  -5.004  0.00  0.00    +0.000 S 
ATOM     22  C   UNL     1      16.300  13.514  -5.750  0.00  0.00    +0.000 A 
ATOM     23  N   UNL     1      16.792  14.771  -5.715  0.00  0.00    +0.000 NA
ATOM     24  C   UNL     1      16.110  15.772  -6.343  0.00  0.00    +0.000 A 
ATOM     25  N   UNL     1      14.938  15.501  -6.983  0.00  0.00    +0.000 N 
ATOM     26  C   UNL     1      14.417  14.232  -7.032  0.00  0.00    +0.000 A 
ATOM     27  O   UNL     1      13.350  14.038  -7.587  0.00  0.00    +0.000 OA
ATOM     28  C   UNL     1      15.126  13.178  -6.406  0.00  0.00    +0.000 A 
ATOM     35  H   UNL     1      14.425  16.294  -7.443  0.00  0.00    +0.000 HD
ENDBRANCH  17  19
ENDBRANCH  15  16
ENDBRANCH  14  15
TORSDOF 13
