REMARK  Name = 
REMARK  2 active torsions:
REMARK  status: ('A' for Active; 'I' for Inactive)
REMARK    1  A    between atoms: C_2  and  C_4
REMARK    2  A    between atoms: C_7  and  N_8
REMARK                            x       y       z     vdW  Elec       q    Type
REMARK                         _______ _______ _______ _____ _____    ______ ____
ROOT
ATOM      4  C   UNL     1       3.137  -0.555  -1.191  0.00  0.00    +0.000 A 
ATOM      5  C   UNL     1       2.746  -0.146  -2.470  0.00  0.00    +0.000 A 
ATOM      6  C   UNL     1       3.413  -0.643  -3.594  0.00  0.00    +0.000 A 
ATOM      7  C   UNL     1       4.498  -1.512  -3.457  0.00  0.00    +0.000 A 
ATOM      9  C   UNL     1       4.861  -1.939  -2.176  0.00  0.00    +0.000 A 
ATOM     10  C   UNL     1       4.206  -1.442  -1.045  0.00  0.00    +0.000 A 
ENDROOT
BRANCH   4   2
ATOM      1  N   UNL     1       1.100   0.201  -0.103  0.00  0.00    +0.000 N 
ATOM      2  C   UNL     1       2.429  -0.088   0.029  0.00  0.00    +0.000 C 
ATOM      3  O   UNL     1       2.991  -0.015   1.113  0.00  0.00    +0.000 OA
ATOM     11  H   UNL     1       0.597   0.382   0.756  0.00  0.00    +0.000 HD
ATOM     12  H   UNL     1       0.564  -0.116  -0.899  0.00  0.00    +0.000 HD
ENDBRANCH   4   2
BRANCH   7   8
ATOM      8  N   UNL     1       5.055  -2.123  -4.585  0.00  0.00    +0.000 N 
ATOM     13  H   UNL     1       4.989  -1.567  -5.432  0.00  0.00    +0.000 HD
ATOM     14  H   UNL     1       5.991  -2.487  -4.437  0.00  0.00    +0.000 HD
ENDBRANCH   7   8
TORSDOF 2
