REMARK  Name = 
REMARK  7 active torsions:
REMARK  status: ('A' for Active; 'I' for Inactive)
REMARK    1  A    between atoms: C_2  and  C_20
REMARK    2  A    between atoms: N_3  and  C_4
REMARK    3  A    between atoms: C_4  and  C_5
REMARK    4  A    between atoms: C_8  and  C_9
REMARK    5  A    between atoms: C_9  and  N_10
REMARK    6  A    between atoms: N_10  and  C_11
REMARK    7  A    between atoms: C_11  and  C_12
REMARK                            x       y       z     vdW  Elec       q    Type
REMARK                         _______ _______ _______ _____ _____    ______ ____
ROOT
ATOM      4  C   UNL     1       2.276  -0.877   2.235  0.00  0.00    +0.000 C 
ENDROOT
BRANCH   4   5
ATOM      5  C   UNL     1       3.212  -1.288   3.342  0.00  0.00    +0.000 A 
ATOM      6  C   UNL     1       3.930  -0.318   4.053  0.00  0.00    +0.000 A 
ATOM      7  C   UNL     1       4.762  -0.686   5.112  0.00  0.00    +0.000 A 
ATOM      8  C   UNL     1       4.900  -2.031   5.482  0.00  0.00    +0.000 A 
ATOM     18  C   UNL     1       4.212  -3.004   4.745  0.00  0.00    +0.000 A 
ATOM     19  C   UNL     1       3.382  -2.637   3.680  0.00  0.00    +0.000 A 
BRANCH   8   9
ATOM      9  C   UNL     1       5.777  -2.419   6.652  0.00  0.00    +0.000 C 
BRANCH   9  10
ATOM     10  N   UNL     1       5.308  -1.790   7.884  0.00  0.00    +0.000 NA
ATOM     31  H   UNL     1       4.340  -2.059   8.053  0.00  0.00    +0.000 HD
BRANCH  10  11
ATOM     11  C   UNL     1       6.120  -2.174   9.035  0.00  0.00    +0.000 C 
BRANCH  11  12
ATOM     12  C   UNL     1       5.643  -1.482  10.293  0.00  0.00    +0.000 A 
ATOM     13  C   UNL     1       5.218  -2.218  11.408  0.00  0.00    +0.000 A 
ATOM     14  C   UNL     1       4.814  -1.566  12.576  0.00  0.00    +0.000 A 
ATOM     15  C   UNL     1       4.829  -0.173  12.642  0.00  0.00    +0.000 A 
ATOM     16  C   UNL     1       5.238   0.570  11.537  0.00  0.00    +0.000 A 
ATOM     17  C   UNL     1       5.643  -0.080  10.371  0.00  0.00    +0.000 A 
ENDBRANCH  11  12
ENDBRANCH  10  11
ENDBRANCH   9  10
ENDBRANCH   8   9
ENDBRANCH   4   5
BRANCH   4   3
ATOM      1  O   UNL     1       3.293   1.480   1.089  0.00  0.00    +0.000 OA
ATOM      2  C   UNL     1       3.461   0.414   0.503  0.00  0.00    +0.000 C 
ATOM      3  N   UNL     1       2.957  -0.772   0.970  0.00  0.00    +0.000 N 
ATOM     30  H   UNL     1       3.258  -1.643   0.548  0.00  0.00    +0.000 HD
BRANCH   2  20
ATOM     20  C   UNL     1       4.175   0.356  -0.778  0.00  0.00    +0.000 A 
ATOM     21  C   UNL     1       4.259   1.492  -1.571  0.00  0.00    +0.000 A 
ATOM     22  S   UNL     1       5.143   1.256  -3.010  0.00  0.00    +0.000 S 
ATOM     23  C   UNL     1       5.472  -0.362  -2.605  0.00  0.00    +0.000 A 
ATOM     24  N   UNL     1       6.240  -1.144  -3.415  0.00  0.00    +0.000 NA
ATOM     25  C   UNL     1       6.444  -2.336  -2.966  0.00  0.00    +0.000 A 
ATOM     26  N   UNL     1       5.934  -2.828  -1.792  0.00  0.00    +0.000 N 
ATOM     27  C   UNL     1       5.082  -2.106  -0.992  0.00  0.00    +0.000 A 
ATOM     28  O   UNL     1       4.512  -2.629  -0.039  0.00  0.00    +0.000 OA
ATOM     29  C   UNL     1       4.880  -0.732  -1.411  0.00  0.00    +0.000 A 
ATOM     32  H   UNL     1       6.092  -3.786  -1.521  0.00  0.00    +0.000 HD
ENDBRANCH   2  20
ENDBRANCH   4   3
TORSDOF 7
