REMARK  Name = 
REMARK  9 active torsions:
REMARK  status: ('A' for Active; 'I' for Inactive)
REMARK    1  A    between atoms: C_1  and  C_2
REMARK    2  A    between atoms: C_2  and  C_3
REMARK    3  A    between atoms: C_3  and  O_4
REMARK    4  A    between atoms: O_4  and  C_5
REMARK    5  A    between atoms: C_12  and  C_13
REMARK    6  A    between atoms: N_15  and  C_16
REMARK    7  A    between atoms: C_16  and  C_17
REMARK    8  A    between atoms: C_20  and  C_21
REMARK    9  A    between atoms: C_21  and  N_22
REMARK                            x       y       z     vdW  Elec       q    Type
REMARK                         _______ _______ _______ _____ _____    ______ ____
ROOT
ATOM     13  C   UNL     1       7.102  -1.482  -0.199  0.00  0.00    +0.000 C 
ATOM     14  O   UNL     1       7.900  -2.086   0.518  0.00  0.00    +0.000 OA
ATOM     15  N   UNL     1       5.921  -1.004   0.301  0.00  0.00    +0.000 N 
ATOM     31  H   UNL     1       5.215  -0.655  -0.334  0.00  0.00    +0.000 HD
ENDROOT
BRANCH  13  12
ATOM      5  C   UNL     1       5.291  -0.170  -2.821  0.00  0.00    +0.000 A 
ATOM      6  N   UNL     1       4.873   0.448  -3.943  0.00  0.00    +0.000 NA
ATOM      7  C   UNL     1       5.736   0.567  -4.956  0.00  0.00    +0.000 A 
ATOM      8  N   UNL     1       6.989   0.122  -4.995  0.00  0.00    +0.000 NA
ATOM      9  C   UNL     1       7.377  -0.451  -3.843  0.00  0.00    +0.000 A 
ATOM     10  S   UNL     1       8.945  -1.089  -3.714  0.00  0.00    +0.000 S 
ATOM     11  C   UNL     1       8.678  -1.542  -2.097  0.00  0.00    +0.000 A 
ATOM     12  C   UNL     1       7.413  -1.211  -1.617  0.00  0.00    +0.000 A 
ATOM     30  C   UNL     1       6.619  -0.608  -2.687  0.00  0.00    +0.000 A 
BRANCH   5   4
ATOM      4  O   UNL     1       4.386  -0.355  -1.796  0.00  0.00    +0.000 OA
BRANCH   4   3
ATOM      3  C   UNL     1       3.016  -0.394  -2.214  0.00  0.00    +0.000 C 
BRANCH   3   2
ATOM      1  C   UNL     1       0.839   0.868  -2.121  0.00  0.00    +0.000 C 
ATOM      2  C   UNL     1       2.305   0.863  -1.727  0.00  0.00    +0.000 C 
ENDBRANCH   3   2
ENDBRANCH   4   3
ENDBRANCH   5   4
ENDBRANCH  13  12
BRANCH  15  16
ATOM     16  C   UNL     1       5.528  -1.222   1.680  0.00  0.00    +0.000 C 
BRANCH  16  17
ATOM     17  C   UNL     1       4.426  -0.269   2.080  0.00  0.00    +0.000 A 
ATOM     18  C   UNL     1       3.087  -0.622   1.894  0.00  0.00    +0.000 A 
ATOM     19  C   UNL     1       2.060   0.306   2.119  0.00  0.00    +0.000 A 
ATOM     20  C   UNL     1       2.344   1.614   2.538  0.00  0.00    +0.000 A 
ATOM     28  C   UNL     1       3.682   1.943   2.799  0.00  0.00    +0.000 A 
ATOM     29  C   UNL     1       4.711   1.015   2.564  0.00  0.00    +0.000 A 
BRANCH  20  21
ATOM     21  C   UNL     1       1.266   2.683   2.499  0.00  0.00    +0.000 C 
BRANCH  21  22
ATOM     22  N   UNL     1       0.353   2.891   3.617  0.00  0.00    +0.000 NA
ATOM     23  C   UNL     1       0.919   3.423   4.857  0.00  0.00    +0.000 C 
ATOM     24  C   UNL     1       1.372   2.346   5.854  0.00  0.00    +0.000 C 
ATOM     25  O   UNL     1       0.338   1.385   6.112  0.00  0.00    +0.000 OA
ATOM     26  C   UNL     1      -0.129   0.783   4.898  0.00  0.00    +0.000 C 
ATOM     27  C   UNL     1      -0.623   1.839   3.900  0.00  0.00    +0.000 C 
ENDBRANCH  21  22
ENDBRANCH  20  21
ENDBRANCH  16  17
ENDBRANCH  15  16
TORSDOF 8
