REMARK  Name = 
REMARK  8 active torsions:
REMARK  status: ('A' for Active; 'I' for Inactive)
REMARK    1  A    between atoms: C_1  and  C_2
REMARK    2  A    between atoms: C_2  and  N_3
REMARK    3  A    between atoms: N_3  and  C_4
REMARK    4  A    between atoms: N_3  and  C_25
REMARK    5  A    between atoms: C_4  and  C_5
REMARK    6  A    between atoms: C_8  and  C_9
REMARK    7  A    between atoms: C_9  and  N_10
REMARK    8  A    between atoms: C_11  and  C_13
REMARK                            x       y       z     vdW  Elec       q    Type
REMARK                         _______ _______ _______ _____ _____    ______ ____
ROOT
ATOM      5  C   UNL     1       0.871   1.329   2.166  0.00  0.00    +0.000 A 
ATOM      6  C   UNL     1       0.179   0.147   2.471  0.00  0.00    +0.000 A 
ATOM      7  C   UNL     1      -1.214   0.128   2.491  0.00  0.00    +0.000 A 
ATOM      8  C   UNL     1      -1.937   1.294   2.218  0.00  0.00    +0.000 A 
ATOM     23  C   UNL     1      -1.246   2.499   2.026  0.00  0.00    +0.000 A 
ATOM     24  C   UNL     1       0.149   2.517   1.998  0.00  0.00    +0.000 A 
ENDROOT
BRANCH   5   4
ATOM      4  C   UNL     1       2.374   1.291   2.013  0.00  0.00    +0.000 C 
BRANCH   4   3
ATOM      3  N   UNL     1       2.924   1.722   0.705  0.00  0.00    +0.000 NA
BRANCH   3  25
ATOM     25  C   UNL     1       4.430   1.756   0.724  0.00  0.00    +0.000 C 
ATOM     26  C   UNL     1       5.098   0.363   0.870  0.00  0.00    +0.000 C 
ATOM     27  C   UNL     1       6.619   0.425   0.953  0.00  0.00    +0.000 C 
ATOM     28  C   UNL     1       7.074   1.372   2.050  0.00  0.00    +0.000 C 
ATOM     29  C   UNL     1       6.525   2.771   1.804  0.00  0.00    +0.000 C 
ATOM     30  C   UNL     1       4.996   2.762   1.758  0.00  0.00    +0.000 C 
ENDBRANCH   3  25
BRANCH   3   2
ATOM      1  C   UNL     1       0.998   0.925  -0.842  0.00  0.00    +0.000 C 
ATOM      2  C   UNL     1       2.475   0.914  -0.456  0.00  0.00    +0.000 C 
ENDBRANCH   3   2
ENDBRANCH   4   3
ENDBRANCH   5   4
BRANCH   8   9
ATOM      9  C   UNL     1      -3.439   1.255   2.133  0.00  0.00    +0.000 C 
BRANCH   9  10
ATOM     10  N   UNL     1      -4.035   1.484   3.421  0.00  0.00    +0.000 N 
ATOM     11  C   UNL     1      -5.392   1.390   3.587  0.00  0.00    +0.000 C 
ATOM     12  O   UNL     1      -6.139   1.056   2.672  0.00  0.00    +0.000 OA
ATOM     31  H   UNL     1      -3.474   1.968   4.114  0.00  0.00    +0.000 HD
BRANCH  11  13
ATOM     13  C   UNL     1      -5.907   1.655   4.934  0.00  0.00    +0.000 A 
ATOM     14  C   UNL     1      -7.139   1.135   5.310  0.00  0.00    +0.000 A 
ATOM     15  S   UNL     1      -7.562   1.485   6.923  0.00  0.00    +0.000 S 
ATOM     16  C   UNL     1      -6.140   2.388   7.157  0.00  0.00    +0.000 A 
ATOM     17  N   UNL     1      -5.888   2.994   8.349  0.00  0.00    +0.000 NA
ATOM     18  C   UNL     1      -4.791   3.674   8.380  0.00  0.00    +0.000 A 
ATOM     19  N   UNL     1      -3.921   3.800   7.328  0.00  0.00    +0.000 N 
ATOM     20  C   UNL     1      -4.117   3.180   6.117  0.00  0.00    +0.000 A 
ATOM     21  O   UNL     1      -3.295   3.275   5.213  0.00  0.00    +0.000 OA
ATOM     22  C   UNL     1      -5.344   2.411   6.028  0.00  0.00    +0.000 A 
ATOM     32  H   UNL     1      -3.075   4.342   7.419  0.00  0.00    +0.000 HD
ENDBRANCH  11  13
ENDBRANCH   9  10
ENDBRANCH   8   9
TORSDOF 7
