REMARK  Name = 
REMARK  20 active torsions:
REMARK  status: ('A' for Active; 'I' for Inactive)
REMARK    1  A    between atoms: C_1  and  C_2
REMARK    2  A    between atoms: C_2  and  C_3
REMARK    3  A    between atoms: C_3  and  C_4
REMARK    4  A    between atoms: C_4  and  C_5
REMARK    5  A    between atoms: C_5  and  C_6
REMARK    6  A    between atoms: C_6  and  C_7
REMARK    7  A    between atoms: C_7  and  C_8
REMARK    8  A    between atoms: C_8  and  N_9
REMARK    9  A    between atoms: N_9  and  C_10
REMARK   10  A    between atoms: C_10  and  C_11
REMARK   11  A    between atoms: C_14  and  C_15
REMARK   12  A    between atoms: C_15  and  N_16
REMARK   13  A    between atoms: C_17  and  C_19
REMARK   14  A    between atoms: C_26  and  O_27
REMARK   15  A    between atoms: O_27  and  C_28
REMARK   16  A    between atoms: C_28  and  C_29
REMARK   17  A    between atoms: C_29  and  C_30
REMARK   18  A    between atoms: C_30  and  C_31
REMARK   19  A    between atoms: C_31  and  C_32
REMARK   20  A    between atoms: C_32  and  C_33
REMARK                            x       y       z     vdW  Elec       q    Type
REMARK                         _______ _______ _______ _____ _____    ______ ____
ROOT
ATOM     16  N   UNL     1      11.294  -0.963  12.057  0.00  0.00    +0.000 N 
ATOM     17  C   UNL     1      11.386  -1.010  13.425  0.00  0.00    +0.000 C 
ATOM     18  O   UNL     1      12.459  -1.148  14.003  0.00  0.00    +0.000 OA
ATOM     38  H   UNL     1      10.389  -1.107  11.635  0.00  0.00    +0.000 HD
ENDROOT
BRANCH  17  19
ATOM     19  C   UNL     1      10.131  -0.814  14.169  0.00  0.00    +0.000 A 
ATOM     20  C   UNL     1      10.170  -0.300  15.459  0.00  0.00    +0.000 A 
ATOM     21  S   UNL     1       8.629  -0.072  16.150  0.00  0.00    +0.000 S 
ATOM     22  C   UNL     1       7.862  -0.705  14.771  0.00  0.00    +0.000 A 
ATOM     23  N   UNL     1       6.526  -0.805  14.737  0.00  0.00    +0.000 NA
ATOM     24  C   UNL     1       6.077  -1.345  13.599  0.00  0.00    +0.000 A 
ATOM     25  N   UNL     1       6.810  -1.759  12.561  0.00  0.00    +0.000 NA
ATOM     26  C   UNL     1       8.147  -1.615  12.635  0.00  0.00    +0.000 A 
ATOM     34  C   UNL     1       8.755  -1.074  13.774  0.00  0.00    +0.000 A 
BRANCH  26  27
ATOM     27  O   UNL     1       8.926  -2.075  11.601  0.00  0.00    +0.000 OA
BRANCH  27  28
ATOM     28  C   UNL     1       8.297  -2.081  10.319  0.00  0.00    +0.000 C 
BRANCH  28  29
ATOM     29  C   UNL     1       8.311  -3.498   9.762  0.00  0.00    +0.000 C 
BRANCH  29  30
ATOM     30  C   UNL     1       7.518  -4.469  10.634  0.00  0.00    +0.000 C 
BRANCH  30  31
ATOM     31  C   UNL     1       7.560  -5.877  10.045  0.00  0.00    +0.000 C 
BRANCH  31  32
ATOM     32  C   UNL     1       6.758  -6.855  10.899  0.00  0.00    +0.000 C 
ATOM     33  C   UNL     1       6.795  -8.254  10.309  0.00  0.00    +0.000 C 
ENDBRANCH  31  32
ENDBRANCH  30  31
ENDBRANCH  29  30
ENDBRANCH  28  29
ENDBRANCH  27  28
ENDBRANCH  26  27
ENDBRANCH  17  19
BRANCH  16  15
ATOM     15  C   UNL     1      12.446  -1.138  11.201  0.00  0.00    +0.000 C 
BRANCH  15  14
ATOM     11  C   UNL     1      11.192  -0.780   7.055  0.00  0.00    +0.000 A 
ATOM     12  C   UNL     1      11.614   0.349   7.776  0.00  0.00    +0.000 A 
ATOM     13  C   UNL     1      12.051   0.236   9.102  0.00  0.00    +0.000 A 
ATOM     14  C   UNL     1      12.063  -1.007   9.746  0.00  0.00    +0.000 A 
ATOM     35  C   UNL     1      11.650  -2.135   9.024  0.00  0.00    +0.000 A 
ATOM     36  C   UNL     1      11.221  -2.025   7.695  0.00  0.00    +0.000 A 
BRANCH  11  10
ATOM     10  C   UNL     1      10.683  -0.653   5.635  0.00  0.00    +0.000 C 
BRANCH  10   9
ATOM      9  N   UNL     1      11.702  -0.105   4.739  0.00  0.00    +0.000 NA
ATOM     37  H   UNL     1      12.004   0.803   5.086  0.00  0.00    +0.000 HD
BRANCH   9   8
ATOM      8  C   UNL     1      11.192   0.044   3.378  0.00  0.00    +0.000 C 
BRANCH   8   7
ATOM      7  C   UNL     1      12.285   0.642   2.491  0.00  0.00    +0.000 C 
BRANCH   7   6
ATOM      6  C   UNL     1      11.795   0.800   1.051  0.00  0.00    +0.000 C 
BRANCH   6   5
ATOM      5  C   UNL     1      12.882   1.391   0.154  0.00  0.00    +0.000 C 
BRANCH   5   4
ATOM      4  C   UNL     1      12.378   1.545  -1.280  0.00  0.00    +0.000 C 
BRANCH   4   3
ATOM      3  C   UNL     1      13.453   2.138  -2.189  0.00  0.00    +0.000 C 
BRANCH   3   2
ATOM      1  C   UNL     1      13.998   2.880  -4.531  0.00  0.00    +0.000 C 
ATOM      2  C   UNL     1      12.936   2.290  -3.618  0.00  0.00    +0.000 C 
ENDBRANCH   3   2
ENDBRANCH   4   3
ENDBRANCH   5   4
ENDBRANCH   6   5
ENDBRANCH   7   6
ENDBRANCH   8   7
ENDBRANCH   9   8
ENDBRANCH  10   9
ENDBRANCH  11  10
ENDBRANCH  15  14
ENDBRANCH  16  15
TORSDOF 18
