REMARK  Name = 
REMARK  4 active torsions:
REMARK  status: ('A' for Active; 'I' for Inactive)
REMARK    1  A    between atoms: C_1  and  N_2
REMARK    2  A    between atoms: C_3  and  C_5
REMARK    3  A    between atoms: C_5  and  N_6
REMARK    4  A    between atoms: C_11  and  C_12
REMARK                            x       y       z     vdW  Elec       q    Type
REMARK                         _______ _______ _______ _____ _____    ______ ____
ROOT
ATOM      6  N   UNL     1       5.167   2.737  -0.589  0.00  0.00    +0.000 N 
ATOM      7  C   UNL     1       4.530   3.841  -0.078  0.00  0.00    +0.000 A 
ATOM      8  C   UNL     1       5.186   4.961  -0.541  0.00  0.00    +0.000 A 
ATOM      9  C   UNL     1       6.274   4.522  -1.340  0.00  0.00    +0.000 A 
ATOM     10  C   UNL     1       7.287   5.163  -2.074  0.00  0.00    +0.000 A 
ATOM     11  C   UNL     1       8.222   4.362  -2.735  0.00  0.00    +0.000 A 
ATOM     15  C   UNL     1       8.096   2.975  -2.628  0.00  0.00    +0.000 A 
ATOM     16  N   UNL     1       7.135   2.302  -1.931  0.00  0.00    +0.000 NA
ATOM     17  C   UNL     1       6.256   3.130  -1.329  0.00  0.00    +0.000 A 
ENDROOT
BRANCH  11  12
ATOM     12  C   UNL     1       9.345   4.909  -3.534  0.00  0.00    +0.000 C 
ATOM     13  N   UNL     1       9.483   6.266  -3.636  0.00  0.00    +0.000 N 
ATOM     14  O   UNL     1      10.144   4.167  -4.096  0.00  0.00    +0.000 OA
ATOM     19  H   UNL     1       8.882   6.951  -3.206  0.00  0.00    +0.000 HD
ATOM     20  H   UNL     1      10.265   6.608  -4.180  0.00  0.00    +0.000 HD
ENDBRANCH  11  12
BRANCH   6   5
ATOM      5  C   UNL     1       4.719   1.367  -0.425  0.00  0.00    +0.000 C 
BRANCH   5   3
ATOM      1  C   UNL     1       7.382  -0.129   1.819  0.00  0.00    +0.000 C 
ATOM      2  N   UNL     1       6.671   0.453   0.709  0.00  0.00    +0.000 N 
ATOM      3  C   UNL     1       5.318   0.708   0.793  0.00  0.00    +0.000 C 
ATOM      4  O   UNL     1       4.636   0.392   1.767  0.00  0.00    +0.000 OA
ATOM     18  H   UNL     1       7.198   0.862  -0.062  0.00  0.00    +0.000 HD
ENDBRANCH   5   3
ENDBRANCH   6   5
TORSDOF 3
