REMARK  Name = 
REMARK  4 active torsions:
REMARK  status: ('A' for Active; 'I' for Inactive)
REMARK    1  A    between atoms: C_2  and  C_4
REMARK    2  A    between atoms: N_8  and  C_9
REMARK    3  A    between atoms: C_9  and  C_10
REMARK    4  A    between atoms: C_14  and  N_15
REMARK                            x       y       z     vdW  Elec       q    Type
REMARK                         _______ _______ _______ _____ _____    ______ ____
ROOT
ATOM      9  C   UNL     1       5.100   5.382   2.713  0.00  0.00    +0.000 C 
ENDROOT
BRANCH   9   8
ATOM      4  C   UNL     1       4.701   4.600  -2.371  0.00  0.00    +0.000 A 
ATOM      5  C   UNL     1       5.751   4.342  -1.496  0.00  0.00    +0.000 A 
ATOM      6  C   UNL     1       5.612   4.678  -0.151  0.00  0.00    +0.000 A 
ATOM      7  C   UNL     1       4.434   5.263   0.301  0.00  0.00    +0.000 A 
ATOM      8  N   UNL     1       4.187   5.551   1.611  0.00  0.00    +0.000 N 
ATOM     22  N   UNL     1       3.425   5.550  -0.548  0.00  0.00    +0.000 NA
ATOM     23  C   UNL     1       3.575   5.224  -1.857  0.00  0.00    +0.000 A 
ATOM     26  H   UNL     1       3.319   6.051   1.761  0.00  0.00    +0.000 HD
BRANCH   4   2
ATOM      1  N   UNL     1       5.563   3.201  -4.157  0.00  0.00    +0.000 N 
ATOM      2  C   UNL     1       4.752   4.244  -3.802  0.00  0.00    +0.000 C 
ATOM      3  O   UNL     1       4.072   4.830  -4.633  0.00  0.00    +0.000 OA
ATOM     24  H   UNL     1       5.518   2.900  -5.122  0.00  0.00    +0.000 HD
ATOM     25  H   UNL     1       5.942   2.550  -3.481  0.00  0.00    +0.000 HD
ENDBRANCH   4   2
ENDBRANCH   9   8
BRANCH   9  10
ATOM     10  C   UNL     1       6.022   6.562   2.919  0.00  0.00    +0.000 A 
ATOM     11  C   UNL     1       5.615   7.872   2.643  0.00  0.00    +0.000 A 
ATOM     12  C   UNL     1       6.432   8.944   2.981  0.00  0.00    +0.000 A 
ATOM     13  C   UNL     1       7.648   8.717   3.626  0.00  0.00    +0.000 A 
ATOM     14  C   UNL     1       8.094   7.424   3.933  0.00  0.00    +0.000 A 
ATOM     21  C   UNL     1       7.273   6.357   3.538  0.00  0.00    +0.000 A 
BRANCH  14  15
ATOM     15  N   UNL     1       9.267   7.218   4.626  0.00  0.00    +0.000 N 
ATOM     16  C   UNL     1       9.674   8.104   5.724  0.00  0.00    +0.000 C 
ATOM     17  C   UNL     1      11.107   8.620   5.483  0.00  0.00    +0.000 C 
ATOM     18  N   UNL     1      12.089   7.532   5.278  0.00  0.00    +0.000 NA
ATOM     19  C   UNL     1      11.628   6.686   4.152  0.00  0.00    +0.000 C 
ATOM     20  C   UNL     1      10.193   6.123   4.323  0.00  0.00    +0.000 C 
ATOM     27  H   UNL     1      12.095   6.955   6.119  0.00  0.00    +0.000 HD
ENDBRANCH  14  15
ENDBRANCH   9  10
TORSDOF 4
