REMARK  Name = 
REMARK  9 active torsions:
REMARK  status: ('A' for Active; 'I' for Inactive)
REMARK    1  A    between atoms: C_1  and  C_2
REMARK    2  A    between atoms: C_2  and  C_3
REMARK    3  A    between atoms: C_3  and  C_4
REMARK    4  A    between atoms: C_4  and  N_5
REMARK    5  A    between atoms: N_5  and  C_6
REMARK    6  A    between atoms: C_6  and  C_7
REMARK    7  A    between atoms: C_10  and  C_11
REMARK    8  A    between atoms: C_11  and  N_12
REMARK    9  A    between atoms: C_13  and  C_15
REMARK                            x       y       z     vdW  Elec       q    Type
REMARK                         _______ _______ _______ _____ _____    ______ ____
ROOT
ATOM     12  N   UNL     1       6.567   7.290   5.601  0.00  0.00    +0.000 N 
ATOM     13  C   UNL     1       6.524   8.410   6.388  0.00  0.00    +0.000 C 
ATOM     14  O   UNL     1       7.491   9.157   6.513  0.00  0.00    +0.000 OA
ATOM     28  H   UNL     1       5.843   6.584   5.693  0.00  0.00    +0.000 HD
ENDROOT
BRANCH  13  15
ATOM     15  C   UNL     1       5.235   8.710   7.025  0.00  0.00    +0.000 A 
ATOM     16  C   UNL     1       4.951  10.010   7.421  0.00  0.00    +0.000 A 
ATOM     17  S   UNL     1       3.388  10.201   8.075  0.00  0.00    +0.000 S 
ATOM     18  C   UNL     1       3.054   8.542   7.904  0.00  0.00    +0.000 A 
ATOM     19  N   UNL     1       1.860   8.024   8.302  0.00  0.00    +0.000 NA
ATOM     20  C   UNL     1       1.754   6.747   8.144  0.00  0.00    +0.000 A 
ATOM     21  N   UNL     1       2.730   5.942   7.620  0.00  0.00    +0.000 N 
ATOM     22  C   UNL     1       3.941   6.424   7.178  0.00  0.00    +0.000 A 
ATOM     23  O   UNL     1       4.777   5.680   6.681  0.00  0.00    +0.000 OA
ATOM     24  C   UNL     1       4.115   7.854   7.343  0.00  0.00    +0.000 A 
ATOM     29  H   UNL     1       2.585   4.948   7.520  0.00  0.00    +0.000 HD
ENDBRANCH  13  15
BRANCH  12  11
ATOM     11  C   UNL     1       7.766   6.903   4.902  0.00  0.00    +0.000 C 
BRANCH  11  10
ATOM      7  C   UNL     1       6.911   3.442   2.442  0.00  0.00    +0.000 A 
ATOM      8  C   UNL     1       6.750   4.741   1.935  0.00  0.00    +0.000 A 
ATOM      9  C   UNL     1       7.046   5.859   2.719  0.00  0.00    +0.000 A 
ATOM     10  C   UNL     1       7.501   5.702   4.033  0.00  0.00    +0.000 A 
ATOM     25  C   UNL     1       7.639   4.408   4.552  0.00  0.00    +0.000 A 
ATOM     26  C   UNL     1       7.355   3.290   3.762  0.00  0.00    +0.000 A 
BRANCH   7   6
ATOM      6  C   UNL     1       6.578   2.232   1.597  0.00  0.00    +0.000 C 
BRANCH   6   5
ATOM      5  N   UNL     1       7.388   2.193   0.381  0.00  0.00    +0.000 NA
ATOM     27  H   UNL     1       7.271   3.065  -0.130  0.00  0.00    +0.000 HD
BRANCH   5   4
ATOM      4  C   UNL     1       7.017   1.074  -0.482  0.00  0.00    +0.000 C 
BRANCH   4   3
ATOM      3  C   UNL     1       7.863   1.135  -1.755  0.00  0.00    +0.000 C 
BRANCH   3   2
ATOM      1  C   UNL     1       8.389   0.039  -3.958  0.00  0.00    +0.000 C 
ATOM      2  C   UNL     1       7.539  -0.022  -2.699  0.00  0.00    +0.000 C 
ENDBRANCH   3   2
ENDBRANCH   4   3
ENDBRANCH   5   4
ENDBRANCH   6   5
ENDBRANCH   7   6
ENDBRANCH  11  10
ENDBRANCH  12  11
TORSDOF 8
