REMARK  Name = 
REMARK  15 active torsions:
REMARK  status: ('A' for Active; 'I' for Inactive)
REMARK    1  A    between atoms: C_1  and  C_2
REMARK    2  A    between atoms: C_2  and  C_3
REMARK    3  A    between atoms: C_3  and  C_4
REMARK    4  A    between atoms: C_4  and  C_5
REMARK    5  A    between atoms: C_5  and  C_6
REMARK    6  A    between atoms: C_6  and  C_7
REMARK    7  A    between atoms: C_7  and  C_8
REMARK    8  A    between atoms: C_8  and  N_9
REMARK    9  A    between atoms: N_9  and  C_10
REMARK   10  A    between atoms: C_10  and  C_11
REMARK   11  A    between atoms: C_14  and  C_15
REMARK   12  A    between atoms: C_15  and  N_16
REMARK   13  A    between atoms: C_17  and  C_19
REMARK   14  A    between atoms: C_26  and  O_27
REMARK   15  A    between atoms: O_27  and  C_28
REMARK                            x       y       z     vdW  Elec       q    Type
REMARK                         _______ _______ _______ _____ _____    ______ ____
ROOT
ATOM     11  C   UNL     1      11.131   3.699  -6.172  0.00  0.00    +0.000 A 
ATOM     12  C   UNL     1      10.830   5.070  -6.269  0.00  0.00    +0.000 A 
ATOM     13  C   UNL     1      11.173   5.800  -7.404  0.00  0.00    +0.000 A 
ATOM     14  C   UNL     1      11.833   5.182  -8.476  0.00  0.00    +0.000 A 
ATOM     30  C   UNL     1      12.193   3.833  -8.354  0.00  0.00    +0.000 A 
ATOM     31  C   UNL     1      11.840   3.097  -7.219  0.00  0.00    +0.000 A 
ENDROOT
BRANCH  11  10
ATOM     10  C   UNL     1      10.665   2.889  -4.985  0.00  0.00    +0.000 C 
BRANCH  10   9
ATOM      9  N   UNL     1       9.204   2.858  -4.931  0.00  0.00    +0.000 NA
ATOM     32  H   UNL     1       8.848   3.811  -4.883  0.00  0.00    +0.000 HD
BRANCH   9   8
ATOM      8  C   UNL     1       8.720   2.099  -3.784  0.00  0.00    +0.000 C 
BRANCH   8   7
ATOM      7  C   UNL     1       7.192   2.153  -3.761  0.00  0.00    +0.000 C 
BRANCH   7   6
ATOM      6  C   UNL     1       6.644   1.354  -2.583  0.00  0.00    +0.000 C 
BRANCH   6   5
ATOM      5  C   UNL     1       5.118   1.391  -2.547  0.00  0.00    +0.000 C 
BRANCH   5   4
ATOM      4  C   UNL     1       4.588   0.586  -1.362  0.00  0.00    +0.000 C 
BRANCH   4   3
ATOM      3  C   UNL     1       3.062   0.614  -1.317  0.00  0.00    +0.000 C 
BRANCH   3   2
ATOM      1  C   UNL     1       1.015  -0.163  -0.084  0.00  0.00    +0.000 C 
ATOM      2  C   UNL     1       2.533  -0.191  -0.133  0.00  0.00    +0.000 C 
ENDBRANCH   3   2
ENDBRANCH   4   3
ENDBRANCH   5   4
ENDBRANCH   6   5
ENDBRANCH   7   6
ENDBRANCH   8   7
ENDBRANCH   9   8
ENDBRANCH  10   9
ENDBRANCH  11  10
BRANCH  14  15
ATOM     15  C   UNL     1      12.164   5.955  -9.725  0.00  0.00    +0.000 C 
BRANCH  15  16
ATOM     16  N   UNL     1      13.433   6.623  -9.605  0.00  0.00    +0.000 N 
ATOM     17  C   UNL     1      13.940   7.392 -10.617  0.00  0.00    +0.000 C 
ATOM     18  O   UNL     1      13.313   7.623 -11.646  0.00  0.00    +0.000 OA
ATOM     33  H   UNL     1      14.046   6.318  -8.861  0.00  0.00    +0.000 HD
BRANCH  17  19
ATOM     19  C   UNL     1      15.262   7.984 -10.373  0.00  0.00    +0.000 A 
ATOM     20  C   UNL     1      15.616   9.164 -11.016  0.00  0.00    +0.000 A 
ATOM     21  S   UNL     1      17.147   9.752 -10.554  0.00  0.00    +0.000 S 
ATOM     22  C   UNL     1      17.406   8.419  -9.533  0.00  0.00    +0.000 A 
ATOM     23  N   UNL     1      18.555   8.318  -8.841  0.00  0.00    +0.000 NA
ATOM     24  C   UNL     1      18.616   7.208  -8.103  0.00  0.00    +0.000 A 
ATOM     25  N   UNL     1      17.691   6.245  -8.007  0.00  0.00    +0.000 NA
ATOM     26  C   UNL     1      16.558   6.391  -8.718  0.00  0.00    +0.000 A 
ATOM     29  C   UNL     1      16.348   7.523  -9.523  0.00  0.00    +0.000 A 
BRANCH  26  27
ATOM     27  O   UNL     1      15.589   5.410  -8.654  0.00  0.00    +0.000 OA
ATOM     28  C   UNL     1      15.896   4.341  -7.764  0.00  0.00    +0.000 C 
ENDBRANCH  26  27
ENDBRANCH  17  19
ENDBRANCH  15  16
ENDBRANCH  14  15
TORSDOF 13
