REMARK  Name = 
REMARK  7 active torsions:
REMARK  status: ('A' for Active; 'I' for Inactive)
REMARK    1  A    between atoms: C_1  and  C_2
REMARK    2  A    between atoms: C_2  and  C_3
REMARK    3  A    between atoms: C_2  and  C_4
REMARK    4  A    between atoms: C_7  and  C_9
REMARK    5  A    between atoms: C_9  and  N_10
REMARK    6  A    between atoms: C_11  and  C_12
REMARK    7  A    between atoms: C_18  and  C_19
REMARK                            x       y       z     vdW  Elec       q    Type
REMARK                         _______ _______ _______ _____ _____    ______ ____
ROOT
ATOM     10  N   UNL     1       5.471   6.069  -0.764  0.00  0.00    +0.000 N 
ATOM     11  C   UNL     1       5.036   7.325  -0.402  0.00  0.00    +0.000 A 
ATOM     15  C   UNL     1       6.059   8.213  -0.666  0.00  0.00    +0.000 A 
ATOM     16  C   UNL     1       7.153   7.481  -1.184  0.00  0.00    +0.000 A 
ATOM     17  C   UNL     1       8.445   7.812  -1.628  0.00  0.00    +0.000 A 
ATOM     18  C   UNL     1       9.277   6.771  -2.042  0.00  0.00    +0.000 A 
ATOM     22  C   UNL     1       8.782   5.466  -1.994  0.00  0.00    +0.000 A 
ATOM     23  N   UNL     1       7.536   5.096  -1.587  0.00  0.00    +0.000 NA
ATOM     24  C   UNL     1       6.774   6.143  -1.209  0.00  0.00    +0.000 A 
ENDROOT
BRANCH  18  19
ATOM     19  C   UNL     1      10.663   6.983  -2.522  0.00  0.00    +0.000 C 
ATOM     20  N   UNL     1      11.141   8.262  -2.603  0.00  0.00    +0.000 N 
ATOM     21  O   UNL     1      11.378   6.041  -2.841  0.00  0.00    +0.000 OA
ATOM     28  H   UNL     1      10.617   9.097  -2.394  0.00  0.00    +0.000 HD
ATOM     29  H   UNL     1      12.086   8.374  -2.948  0.00  0.00    +0.000 HD
ENDBRANCH  18  19
BRANCH  11  12
ATOM     12  C   UNL     1       3.665   7.690   0.159  0.00  0.00    +0.000 C 
ATOM     13  C   UNL     1       3.107   9.064  -0.161  0.00  0.00    +0.000 C 
ATOM     14  C   UNL     1       3.567   8.765   1.225  0.00  0.00    +0.000 C 
ENDBRANCH  11  12
BRANCH  10   9
ATOM      9  C   UNL     1       4.761   4.807  -0.614  0.00  0.00    +0.000 C 
BRANCH   9   7
ATOM      4  C   UNL     1       1.694   1.731  -2.821  0.00  0.00    +0.000 C 
ATOM      5  C   UNL     1       2.937   2.595  -3.194  0.00  0.00    +0.000 C 
ATOM      6  N   UNL     1       3.662   3.063  -2.004  0.00  0.00    +0.000 N 
ATOM      7  C   UNL     1       3.961   4.413  -1.848  0.00  0.00    +0.000 C 
ATOM      8  O   UNL     1       3.534   5.256  -2.639  0.00  0.00    +0.000 OA
ATOM     25  C   UNL     1       4.033   1.984  -1.084  0.00  0.00    +0.000 C 
ATOM     26  C   UNL     1       2.802   1.141  -0.718  0.00  0.00    +0.000 C 
ATOM     27  N   UNL     1       2.102   0.632  -1.904  0.00  0.00    +0.000 NA
ATOM     30  H   UNL     1       1.292   0.085  -1.620  0.00  0.00    +0.000 HD
BRANCH   4   2
ATOM      1  C   UNL     1      -0.706   1.671  -1.898  0.00  0.00    +0.000 C 
ATOM      2  C   UNL     1       0.488   2.563  -2.275  0.00  0.00    +0.000 C 
ATOM      3  C   UNL     1      -0.007   3.604  -3.288  0.00  0.00    +0.000 C 
ENDBRANCH   4   2
ENDBRANCH   9   7
ENDBRANCH  10   9
TORSDOF 5
