REMARK  Name = 
REMARK  10 active torsions:
REMARK  status: ('A' for Active; 'I' for Inactive)
REMARK    1  A    between atoms: C_1  and  C_2
REMARK    2  A    between atoms: C_2  and  C_3
REMARK    3  A    between atoms: C_3  and  C_4
REMARK    4  A    between atoms: C_4  and  C_5
REMARK    5  A    between atoms: C_5  and  N_6
REMARK    6  A    between atoms: N_6  and  C_7
REMARK    7  A    between atoms: C_7  and  C_8
REMARK    8  A    between atoms: C_11  and  C_12
REMARK    9  A    between atoms: C_12  and  N_13
REMARK   10  A    between atoms: C_14  and  C_16
REMARK                            x       y       z     vdW  Elec       q    Type
REMARK                         _______ _______ _______ _____ _____    ______ ____
ROOT
ATOM     12  C   UNL     1      12.835   2.004  -3.834  0.00  0.00    +0.000 C 
ENDROOT
BRANCH  12  11
ATOM      8  C   UNL     1       8.500   1.827  -3.755  0.00  0.00    +0.000 A 
ATOM      9  C   UNL     1       9.170   2.447  -4.821  0.00  0.00    +0.000 A 
ATOM     10  C   UNL     1      10.567   2.513  -4.852  0.00  0.00    +0.000 A 
ATOM     11  C   UNL     1      11.327   1.956  -3.816  0.00  0.00    +0.000 A 
ATOM     26  C   UNL     1      10.658   1.377  -2.729  0.00  0.00    +0.000 A 
ATOM     27  C   UNL     1       9.261   1.305  -2.702  0.00  0.00    +0.000 A 
BRANCH   8   7
ATOM      7  C   UNL     1       6.989   1.751  -3.733  0.00  0.00    +0.000 C 
BRANCH   7   6
ATOM      6  N   UNL     1       6.473   1.005  -4.881  0.00  0.00    +0.000 NA
ATOM     28  H   UNL     1       6.799   1.443  -5.741  0.00  0.00    +0.000 HD
BRANCH   6   5
ATOM      5  C   UNL     1       5.014   0.970  -4.881  0.00  0.00    +0.000 C 
BRANCH   5   4
ATOM      4  C   UNL     1       4.534   0.200  -6.112  0.00  0.00    +0.000 C 
BRANCH   4   3
ATOM      3  C   UNL     1       3.010   0.129  -6.151  0.00  0.00    +0.000 C 
BRANCH   3   2
ATOM      1  C   UNL     1       1.005  -0.711  -7.405  0.00  0.00    +0.000 C 
ATOM      2  C   UNL     1       2.522  -0.643  -7.375  0.00  0.00    +0.000 C 
ENDBRANCH   3   2
ENDBRANCH   4   3
ENDBRANCH   5   4
ENDBRANCH   6   5
ENDBRANCH   7   6
ENDBRANCH   8   7
ENDBRANCH  12  11
BRANCH  12  13
ATOM     13  N   UNL     1      13.318   3.195  -3.186  0.00  0.00    +0.000 N 
ATOM     14  C   UNL     1      14.652   3.497  -3.095  0.00  0.00    +0.000 C 
ATOM     15  O   UNL     1      15.527   2.783  -3.583  0.00  0.00    +0.000 OA
ATOM     29  H   UNL     1      12.678   3.625  -2.526  0.00  0.00    +0.000 HD
BRANCH  14  16
ATOM     16  C   UNL     1      14.964   4.770  -2.439  0.00  0.00    +0.000 A 
ATOM     17  C   UNL     1      16.135   5.449  -2.746  0.00  0.00    +0.000 A 
ATOM     18  S   UNL     1      16.267   6.961  -1.963  0.00  0.00    +0.000 S 
ATOM     19  C   UNL     1      14.797   6.727  -1.138  0.00  0.00    +0.000 A 
ATOM     20  N   UNL     1      14.318   7.661  -0.273  0.00  0.00    +0.000 NA
ATOM     21  C   UNL     1      13.208   7.339   0.302  0.00  0.00    +0.000 A 
ATOM     22  N   UNL     1      12.529   6.167   0.089  0.00  0.00    +0.000 N 
ATOM     23  C   UNL     1      12.959   5.208  -0.794  0.00  0.00    +0.000 A 
ATOM     24  O   UNL     1      12.306   4.191  -0.986  0.00  0.00    +0.000 OA
ATOM     25  C   UNL     1      14.207   5.520  -1.465  0.00  0.00    +0.000 A 
ATOM     30  H   UNL     1      11.659   5.976   0.561  0.00  0.00    +0.000 HD
ENDBRANCH  14  16
ENDBRANCH  12  13
TORSDOF 9
