REMARK  Name = 
REMARK  6 active torsions:
REMARK  status: ('A' for Active; 'I' for Inactive)
REMARK    1  A    between atoms: N_1  and  C_2
REMARK    2  A    between atoms: N_5  and  C_6
REMARK    3  A    between atoms: C_6  and  C_7
REMARK    4  A    between atoms: C_10  and  C_11
REMARK    5  A    between atoms: C_11  and  N_12
REMARK    6  A    between atoms: C_13  and  C_15
REMARK                            x       y       z     vdW  Elec       q    Type
REMARK                         _______ _______ _______ _____ _____    ______ ____
ROOT
ATOM      7  C   UNL     1       5.176   0.201  -3.707  0.00  0.00    +0.000 A 
ATOM      8  C   UNL     1       5.039   1.566  -3.427  0.00  0.00    +0.000 A 
ATOM      9  C   UNL     1       5.367   2.531  -4.367  0.00  0.00    +0.000 A 
ATOM     10  C   UNL     1       5.945   2.180  -5.590  0.00  0.00    +0.000 A 
ATOM     25  C   UNL     1       6.227   0.822  -5.813  0.00  0.00    +0.000 A 
ATOM     26  C   UNL     1       5.826  -0.161  -4.894  0.00  0.00    +0.000 A 
ENDROOT
BRANCH   7   6
ATOM      6  C   UNL     1       4.594  -0.817  -2.745  0.00  0.00    +0.000 C 
BRANCH   6   5
ATOM      2  C   UNL     1       1.650  -0.479  -0.532  0.00  0.00    +0.000 C 
ATOM      3  C   UNL     1       2.082   0.552  -1.576  0.00  0.00    +0.000 C 
ATOM      4  C   UNL     1       2.207  -0.090  -2.964  0.00  0.00    +0.000 C 
ATOM      5  N   UNL     1       3.185  -1.195  -3.003  0.00  0.00    +0.000 NA
ATOM     27  C   UNL     1       2.725  -2.232  -2.054  0.00  0.00    +0.000 C 
ATOM     28  C   UNL     1       2.552  -1.720  -0.615  0.00  0.00    +0.000 C 
BRANCH   2   1
ATOM      1  N   UNL     1       0.244  -0.830  -0.745  0.00  0.00    +0.000 NA
ATOM     29  H   UNL     1      -0.336   0.005  -0.663  0.00  0.00    +0.000 HD
ATOM     30  H   UNL     1      -0.071  -1.481  -0.028  0.00  0.00    +0.000 HD
ENDBRANCH   2   1
ENDBRANCH   6   5
ENDBRANCH   7   6
BRANCH  10  11
ATOM     11  C   UNL     1       6.236   3.220  -6.644  0.00  0.00    +0.000 C 
BRANCH  11  12
ATOM     12  N   UNL     1       7.554   3.785  -6.528  0.00  0.00    +0.000 N 
ATOM     13  C   UNL     1       8.002   4.745  -7.390  0.00  0.00    +0.000 C 
ATOM     14  O   UNL     1       7.326   5.213  -8.299  0.00  0.00    +0.000 OA
ATOM     31  H   UNL     1       8.240   3.249  -5.997  0.00  0.00    +0.000 HD
BRANCH  13  15
ATOM     15  C   UNL     1       9.369   5.248  -7.118  0.00  0.00    +0.000 A 
ATOM     16  C   UNL     1       9.699   6.554  -7.454  0.00  0.00    +0.000 A 
ATOM     17  S   UNL     1      11.310   6.971  -7.080  0.00  0.00    +0.000 S 
ATOM     18  C   UNL     1      11.633   5.410  -6.483  0.00  0.00    +0.000 A 
ATOM     19  N   UNL     1      12.874   5.075  -6.035  0.00  0.00    +0.000 NA
ATOM     20  C   UNL     1      12.988   3.850  -5.644  0.00  0.00    +0.000 A 
ATOM     21  N   UNL     1      11.969   2.933  -5.641  0.00  0.00    +0.000 N 
ATOM     22  C   UNL     1      10.680   3.244  -6.024  0.00  0.00    +0.000 A 
ATOM     23  O   UNL     1       9.769   2.438  -5.914  0.00  0.00    +0.000 OA
ATOM     24  C   UNL     1      10.517   4.596  -6.532  0.00  0.00    +0.000 A 
ATOM     32  H   UNL     1      12.115   2.001  -5.289  0.00  0.00    +0.000 HD
ENDBRANCH  13  15
ENDBRANCH  11  12
ENDBRANCH  10  11
TORSDOF 6
