REMARK  Name = 
REMARK  9 active torsions:
REMARK  status: ('A' for Active; 'I' for Inactive)
REMARK    1  A    between atoms: C_1  and  O_2
REMARK    2  A    between atoms: O_2  and  C_3
REMARK    3  A    between atoms: C_10  and  C_11
REMARK    4  A    between atoms: N_13  and  C_14
REMARK    5  A    between atoms: C_14  and  C_15
REMARK    6  A    between atoms: C_18  and  C_19
REMARK    7  A    between atoms: C_19  and  N_20
REMARK    8  A    between atoms: N_20  and  C_21
REMARK    9  A    between atoms: C_21  and  C_22
REMARK                            x       y       z     vdW  Elec       q    Type
REMARK                         _______ _______ _______ _____ _____    ______ ____
ROOT
ATOM     14  C   UNL     1       2.956  -1.757  -2.814  0.00  0.00    +0.000 C 
ENDROOT
BRANCH  14  15
ATOM     15  C   UNL     1       1.799  -2.488  -2.186  0.00  0.00    +0.000 A 
ATOM     16  C   UNL     1       1.839  -3.877  -2.009  0.00  0.00    +0.000 A 
ATOM     17  C   UNL     1       0.798  -4.540  -1.352  0.00  0.00    +0.000 A 
ATOM     18  C   UNL     1      -0.307  -3.829  -0.859  0.00  0.00    +0.000 A 
ATOM     28  C   UNL     1      -0.373  -2.450  -1.094  0.00  0.00    +0.000 A 
ATOM     29  C   UNL     1       0.665  -1.788  -1.757  0.00  0.00    +0.000 A 
BRANCH  18  19
ATOM     19  C   UNL     1      -1.393  -4.534  -0.072  0.00  0.00    +0.000 C 
BRANCH  19  20
ATOM     20  N   UNL     1      -0.847  -5.138   1.142  0.00  0.00    +0.000 NA
ATOM     32  H   UNL     1      -0.400  -4.415   1.705  0.00  0.00    +0.000 HD
BRANCH  20  21
ATOM     21  C   UNL     1      -1.882  -5.789   1.943  0.00  0.00    +0.000 C 
BRANCH  21  22
ATOM     22  C   UNL     1      -1.288  -6.435   3.176  0.00  0.00    +0.000 A 
ATOM     23  C   UNL     1      -1.683  -6.042   4.463  0.00  0.00    +0.000 A 
ATOM     24  C   UNL     1      -1.138  -6.660   5.593  0.00  0.00    +0.000 A 
ATOM     25  C   UNL     1      -0.194  -7.676   5.449  0.00  0.00    +0.000 A 
ATOM     26  C   UNL     1       0.208  -8.074   4.176  0.00  0.00    +0.000 A 
ATOM     27  C   UNL     1      -0.337  -7.458   3.048  0.00  0.00    +0.000 A 
ENDBRANCH  21  22
ENDBRANCH  20  21
ENDBRANCH  19  20
ENDBRANCH  18  19
ENDBRANCH  14  15
BRANCH  14  13
ATOM     11  C   UNL     1       3.797  -1.072  -5.005  0.00  0.00    +0.000 C 
ATOM     12  O   UNL     1       4.794  -0.578  -4.485  0.00  0.00    +0.000 OA
ATOM     13  N   UNL     1       2.828  -1.669  -4.245  0.00  0.00    +0.000 N 
ATOM     31  H   UNL     1       1.991  -2.040  -4.675  0.00  0.00    +0.000 HD
BRANCH  11  10
ATOM      3  C   UNL     1       1.356  -2.300  -7.116  0.00  0.00    +0.000 A 
ATOM      4  N   UNL     1       0.604  -2.705  -8.160  0.00  0.00    +0.000 NA
ATOM      5  C   UNL     1       1.016  -2.405  -9.394  0.00  0.00    +0.000 A 
ATOM      6  N   UNL     1       2.114  -1.734  -9.726  0.00  0.00    +0.000 NA
ATOM      7  C   UNL     1       2.843  -1.359  -8.662  0.00  0.00    +0.000 A 
ATOM      8  S   UNL     1       4.279  -0.488  -8.908  0.00  0.00    +0.000 S 
ATOM      9  C   UNL     1       4.578  -0.420  -7.239  0.00  0.00    +0.000 A 
ATOM     10  C   UNL     1       3.609  -1.049  -6.465  0.00  0.00    +0.000 A 
ATOM     30  C   UNL     1       2.558  -1.598  -7.320  0.00  0.00    +0.000 A 
BRANCH   3   2
ATOM      1  C   UNL     1      -0.337  -3.281  -5.815  0.00  0.00    +0.000 C 
ATOM      2  O   UNL     1       0.900  -2.570  -5.840  0.00  0.00    +0.000 OA
ENDBRANCH   3   2
ENDBRANCH  11  10
ENDBRANCH  14  13
TORSDOF 8
