REMARK  Name = 
REMARK  13 active torsions:
REMARK  status: ('A' for Active; 'I' for Inactive)
REMARK    1  A    between atoms: C_1  and  C_2
REMARK    2  A    between atoms: C_2  and  C_3
REMARK    3  A    between atoms: C_3  and  C_4
REMARK    4  A    between atoms: C_4  and  C_5
REMARK    5  A    between atoms: C_5  and  C_6
REMARK    6  A    between atoms: C_6  and  N_7
REMARK    7  A    between atoms: N_7  and  C_8
REMARK    8  A    between atoms: N_7  and  C_15
REMARK    9  A    between atoms: C_8  and  C_9
REMARK   10  A    between atoms: C_15  and  C_16
REMARK   11  A    between atoms: C_19  and  C_20
REMARK   12  A    between atoms: C_20  and  N_21
REMARK   13  A    between atoms: C_22  and  C_24
REMARK                            x       y       z     vdW  Elec       q    Type
REMARK                         _______ _______ _______ _____ _____    ______ ____
ROOT
ATOM     16  C   UNL     1       9.255   1.905  -3.313  0.00  0.00    +0.000 A 
ATOM     17  C   UNL     1       8.962   1.211  -4.496  0.00  0.00    +0.000 A 
ATOM     18  C   UNL     1       9.525  -0.046  -4.743  0.00  0.00    +0.000 A 
ATOM     19  C   UNL     1      10.394  -0.633  -3.813  0.00  0.00    +0.000 A 
ATOM     34  C   UNL     1      10.762   0.102  -2.679  0.00  0.00    +0.000 A 
ATOM     35  C   UNL     1      10.195   1.356  -2.429  0.00  0.00    +0.000 A 
ENDROOT
BRANCH  16  15
ATOM     15  C   UNL     1       8.520   3.189  -2.960  0.00  0.00    +0.000 C 
BRANCH  15   7
ATOM      7  N   UNL     1       7.053   3.022  -2.858  0.00  0.00    +0.000 NA
BRANCH   7   6
ATOM      6  C   UNL     1       6.678   2.039  -1.836  0.00  0.00    +0.000 C 
BRANCH   6   5
ATOM      5  C   UNL     1       5.186   1.743  -1.621  0.00  0.00    +0.000 C 
BRANCH   5   4
ATOM      4  C   UNL     1       4.396   1.154  -2.797  0.00  0.00    +0.000 C 
BRANCH   4   3
ATOM      3  C   UNL     1       2.948   0.945  -2.324  0.00  0.00    +0.000 C 
BRANCH   3   2
ATOM      1  C   UNL     1       0.613   0.187  -2.798  0.00  0.00    +0.000 C 
ATOM      2  C   UNL     1       2.017   0.347  -3.373  0.00  0.00    +0.000 C 
ENDBRANCH   3   2
ENDBRANCH   4   3
ENDBRANCH   5   4
ENDBRANCH   6   5
ENDBRANCH   7   6
BRANCH   7   8
ATOM      8  C   UNL     1       6.351   4.313  -2.793  0.00  0.00    +0.000 C 
BRANCH   8   9
ATOM      9  C   UNL     1       6.555   5.239  -1.603  0.00  0.00    +0.000 A 
ATOM     10  C   UNL     1       7.501   6.276  -1.659  0.00  0.00    +0.000 A 
ATOM     11  C   UNL     1       7.530   7.275  -0.679  0.00  0.00    +0.000 A 
ATOM     12  C   UNL     1       6.631   7.242   0.385  0.00  0.00    +0.000 A 
ATOM     13  C   UNL     1       5.730   6.190   0.491  0.00  0.00    +0.000 A 
ATOM     14  C   UNL     1       5.695   5.198  -0.494  0.00  0.00    +0.000 A 
ENDBRANCH   8   9
ENDBRANCH   7   8
ENDBRANCH  15   7
ENDBRANCH  16  15
BRANCH  19  20
ATOM     20  C   UNL     1      10.900  -2.037  -4.008  0.00  0.00    +0.000 C 
BRANCH  20  21
ATOM     21  N   UNL     1      12.132  -2.076  -4.751  0.00  0.00    +0.000 N 
ATOM     22  C   UNL     1      12.670  -3.280  -5.136  0.00  0.00    +0.000 C 
ATOM     23  O   UNL     1      12.101  -4.345  -4.913  0.00  0.00    +0.000 OA
ATOM     36  H   UNL     1      12.711  -1.243  -4.740  0.00  0.00    +0.000 HD
BRANCH  22  24
ATOM     24  C   UNL     1      13.932  -3.234  -5.883  0.00  0.00    +0.000 A 
ATOM     25  C   UNL     1      14.284  -4.306  -6.693  0.00  0.00    +0.000 A 
ATOM     26  S   UNL     1      15.749  -4.078  -7.532  0.00  0.00    +0.000 S 
ATOM     27  C   UNL     1      15.994  -2.560  -6.803  0.00  0.00    +0.000 A 
ATOM     28  N   UNL     1      17.100  -1.823  -7.077  0.00  0.00    +0.000 NA
ATOM     29  C   UNL     1      17.179  -0.711  -6.427  0.00  0.00    +0.000 A 
ATOM     30  N   UNL     1      16.243  -0.264  -5.531  0.00  0.00    +0.000 N 
ATOM     31  C   UNL     1      15.091  -0.958  -5.245  0.00  0.00    +0.000 A 
ATOM     32  O   UNL     1      14.249  -0.509  -4.472  0.00  0.00    +0.000 OA
ATOM     33  C   UNL     1      14.960  -2.224  -5.945  0.00  0.00    +0.000 A 
ATOM     37  H   UNL     1      16.357   0.621  -5.062  0.00  0.00    +0.000 HD
ENDBRANCH  22  24
ENDBRANCH  20  21
ENDBRANCH  19  20
TORSDOF 12
