REMARK  Name = 
REMARK  17 active torsions:
REMARK  status: ('A' for Active; 'I' for Inactive)
REMARK    1  A    between atoms: C_1  and  C_2
REMARK    2  A    between atoms: C_2  and  C_3
REMARK    3  A    between atoms: C_3  and  C_4
REMARK    4  A    between atoms: C_4  and  C_5
REMARK    5  A    between atoms: C_5  and  C_6
REMARK    6  A    between atoms: C_6  and  C_7
REMARK    7  A    between atoms: C_7  and  C_8
REMARK    8  A    between atoms: C_8  and  C_9
REMARK    9  A    between atoms: C_9  and  C_10
REMARK   10  A    between atoms: C_10  and  C_11
REMARK   11  A    between atoms: C_11  and  C_12
REMARK   12  A    between atoms: C_12  and  N_13
REMARK   13  A    between atoms: N_13  and  C_14
REMARK   14  A    between atoms: C_14  and  C_15
REMARK   15  A    between atoms: C_18  and  C_19
REMARK   16  A    between atoms: C_19  and  N_20
REMARK   17  A    between atoms: C_21  and  C_23
REMARK                            x       y       z     vdW  Elec       q    Type
REMARK                         _______ _______ _______ _____ _____    ______ ____
ROOT
ATOM     15  C   UNL     1      13.347  -4.967   9.578  0.00  0.00    +0.000 A 
ATOM     16  C   UNL     1      12.467  -5.291  10.620  0.00  0.00    +0.000 A 
ATOM     17  C   UNL     1      12.956  -5.788  11.827  0.00  0.00    +0.000 A 
ATOM     18  C   UNL     1      14.334  -5.954  12.015  0.00  0.00    +0.000 A 
ATOM     33  C   UNL     1      15.210  -5.635  10.971  0.00  0.00    +0.000 A 
ATOM     34  C   UNL     1      14.722  -5.139   9.763  0.00  0.00    +0.000 A 
ENDROOT
BRANCH  15  14
ATOM     14  C   UNL     1      12.818  -4.465   8.262  0.00  0.00    +0.000 C 
BRANCH  14  13
ATOM     13  N   UNL     1      13.229  -3.084   8.013  0.00  0.00    +0.000 NA
ATOM     35  H   UNL     1      12.900  -2.499   8.781  0.00  0.00    +0.000 HD
BRANCH  13  12
ATOM     12  C   UNL     1      12.712  -2.577   6.743  0.00  0.00    +0.000 C 
BRANCH  12  11
ATOM     11  C   UNL     1      11.187  -2.511   6.720  0.00  0.00    +0.000 C 
BRANCH  11  10
ATOM     10  C   UNL     1      10.674  -1.986   5.390  0.00  0.00    +0.000 C 
BRANCH  10   9
ATOM      9  C   UNL     1       9.151  -2.003   5.392  0.00  0.00    +0.000 C 
BRANCH   9   8
ATOM      8  C   UNL     1       8.619  -1.503   4.061  0.00  0.00    +0.000 C 
BRANCH   8   7
ATOM      7  C   UNL     1       7.098  -1.505   4.061  0.00  0.00    +0.000 C 
BRANCH   7   6
ATOM      6  C   UNL     1       6.578  -0.990   2.727  0.00  0.00    +0.000 C 
BRANCH   6   5
ATOM      5  C   UNL     1       5.056  -0.980   2.715  0.00  0.00    +0.000 C 
BRANCH   5   4
ATOM      4  C   UNL     1       4.536  -0.463   1.380  0.00  0.00    +0.000 C 
BRANCH   4   3
ATOM      3  C   UNL     1       3.012  -0.452   1.368  0.00  0.00    +0.000 C 
BRANCH   3   2
ATOM      1  C   UNL     1       0.961   0.076   0.026  0.00  0.00    +0.000 C 
ATOM      2  C   UNL     1       2.480   0.065   0.036  0.00  0.00    +0.000 C 
ENDBRANCH   3   2
ENDBRANCH   4   3
ENDBRANCH   5   4
ENDBRANCH   6   5
ENDBRANCH   7   6
ENDBRANCH   8   7
ENDBRANCH   9   8
ENDBRANCH  10   9
ENDBRANCH  11  10
ENDBRANCH  12  11
ENDBRANCH  13  12
ENDBRANCH  14  13
ENDBRANCH  15  14
BRANCH  18  19
ATOM     19  C   UNL     1      14.868  -6.521  13.299  0.00  0.00    +0.000 C 
BRANCH  19  20
ATOM     20  N   UNL     1      14.966  -7.956  13.222  0.00  0.00    +0.000 N 
ATOM     21  C   UNL     1      15.363  -8.690  14.308  0.00  0.00    +0.000 C 
ATOM     22  O   UNL     1      15.580  -8.169  15.399  0.00  0.00    +0.000 OA
ATOM     36  H   UNL     1      14.997  -8.369  12.294  0.00  0.00    +0.000 HD
BRANCH  21  23
ATOM     23  C   UNL     1      15.467 -10.141  14.121  0.00  0.00    +0.000 A 
ATOM     24  C   UNL     1      15.382 -10.978  15.225  0.00  0.00    +0.000 A 
ATOM     25  S   UNL     1      15.506 -12.634  14.840  0.00  0.00    +0.000 S 
ATOM     26  C   UNL     1      15.715 -12.289  13.188  0.00  0.00    +0.000 A 
ATOM     27  N   UNL     1      15.905 -13.286  12.287  0.00  0.00    +0.000 NA
ATOM     28  C   UNL     1      16.079 -12.889  11.070  0.00  0.00    +0.000 A 
ATOM     29  N   UNL     1      16.063 -11.576  10.672  0.00  0.00    +0.000 N 
ATOM     30  C   UNL     1      15.844 -10.535  11.545  0.00  0.00    +0.000 A 
ATOM     31  O   UNL     1      15.793  -9.373  11.149  0.00  0.00    +0.000 OA
ATOM     32  C   UNL     1      15.667 -10.932  12.928  0.00  0.00    +0.000 A 
ATOM     37  H   UNL     1      16.190 -11.327   9.703  0.00  0.00    +0.000 HD
ENDBRANCH  21  23
ENDBRANCH  19  20
ENDBRANCH  18  19
TORSDOF 16
