REMARK  Name = 
REMARK  6 active torsions:
REMARK  status: ('A' for Active; 'I' for Inactive)
REMARK    1  A    between atoms: C_1  and  C_2
REMARK    2  A    between atoms: C_2  and  C_3
REMARK    3  A    between atoms: C_2  and  C_4
REMARK    4  A    between atoms: C_2  and  C_15
REMARK    5  A    between atoms: C_4  and  N_5
REMARK    6  A    between atoms: C_9  and  C_10
REMARK                            x       y       z     vdW  Elec       q    Type
REMARK                         _______ _______ _______ _____ _____    ______ ____
ROOT
ATOM      5  N   UNL     1       2.639  -2.368   0.559  0.00  0.00    +0.000 N 
ATOM      6  C   UNL     1       2.989  -3.451   1.336  0.00  0.00    +0.000 A 
ATOM      7  C   UNL     1       3.165  -3.387   2.714  0.00  0.00    +0.000 A 
ATOM      8  C   UNL     1       3.424  -4.554   3.434  0.00  0.00    +0.000 A 
ATOM      9  C   UNL     1       3.482  -5.778   2.770  0.00  0.00    +0.000 A 
ATOM     13  C   UNL     1       3.307  -5.751   1.397  0.00  0.00    +0.000 A 
ATOM     14  N   UNL     1       3.070  -4.623   0.676  0.00  0.00    +0.000 NA
ATOM     21  H   UNL     1       2.751  -2.626  -0.420  0.00  0.00    +0.000 HD
ENDROOT
BRANCH   9  10
ATOM     10  C   UNL     1       3.705  -7.012   3.559  0.00  0.00    +0.000 C 
ATOM     11  N   UNL     1       3.726  -8.218   2.917  0.00  0.00    +0.000 N 
ATOM     12  O   UNL     1       3.859  -6.967   4.774  0.00  0.00    +0.000 OA
ATOM     22  H   UNL     1       3.580  -8.372   1.932  0.00  0.00    +0.000 HD
ATOM     23  H   UNL     1       3.856  -9.035   3.503  0.00  0.00    +0.000 HD
ENDBRANCH   9  10
BRANCH   5   4
ATOM      4  C   UNL     1       3.061  -1.022   0.914  0.00  0.00    +0.000 C 
BRANCH   4   2
ATOM      1  C   UNL     1       0.974   0.059  -0.019  0.00  0.00    +0.000 C 
ATOM      2  C   UNL     1       2.522   0.046  -0.089  0.00  0.00    +0.000 C 
ATOM      3  C   UNL     1       2.996   1.433   0.415  0.00  0.00    +0.000 C 
BRANCH   2  15
ATOM     15  C   UNL     1       3.059  -0.189  -1.516  0.00  0.00    +0.000 A 
ATOM     16  C   UNL     1       2.203  -0.390  -2.614  0.00  0.00    +0.000 A 
ATOM     17  C   UNL     1       2.703  -0.588  -3.904  0.00  0.00    +0.000 A 
ATOM     18  C   UNL     1       4.075  -0.594  -4.126  0.00  0.00    +0.000 A 
ATOM     19  C   UNL     1       4.945  -0.412  -3.058  0.00  0.00    +0.000 A 
ATOM     20  C   UNL     1       4.443  -0.215  -1.767  0.00  0.00    +0.000 A 
ENDBRANCH   2  15
ENDBRANCH   4   2
ENDBRANCH   5   4
TORSDOF 4
