REMARK  Name = 
REMARK  1 active torsions:
REMARK  status: ('A' for Active; 'I' for Inactive)
REMARK    1  A    between atoms: C_2  and  C_4
REMARK                            x       y       z     vdW  Elec       q    Type
REMARK                         _______ _______ _______ _____ _____    ______ ____
ROOT
ATOM      4  C   UNL     1       3.101   1.154   0.410  0.00  0.00    +0.000 A 
ATOM      5  C   UNL     1       4.238   1.598  -0.267  0.00  0.00    +0.000 A 
ATOM      6  C   UNL     1       4.930   2.732   0.178  0.00  0.00    +0.000 A 
ATOM      7  C   UNL     1       4.488   3.415   1.330  0.00  0.00    +0.000 A 
ATOM      8  N   UNL     1       5.079   4.533   1.892  0.00  0.00    +0.000 NA
ATOM      9  C   UNL     1       4.436   4.887   2.975  0.00  0.00    +0.000 A 
ATOM     10  N   UNL     1       4.810   5.913   3.747  0.00  0.00    +0.000 N 
ATOM     11  S   UNL     1       3.062   3.942   3.366  0.00  0.00    +0.000 S 
ATOM     12  C   UNL     1       3.358   2.942   1.998  0.00  0.00    +0.000 A 
ATOM     13  C   UNL     1       2.643   1.816   1.558  0.00  0.00    +0.000 A 
ATOM     16  H   UNL     1       5.553   6.522   3.429  0.00  0.00    +0.000 HD
ATOM     17  H   UNL     1       4.229   6.246   4.504  0.00  0.00    +0.000 HD
ENDROOT
BRANCH   4   2
ATOM      1  N   UNL     1       1.053  -0.120   0.122  0.00  0.00    +0.000 N 
ATOM      2  C   UNL     1       2.403  -0.056  -0.093  0.00  0.00    +0.000 C 
ATOM      3  O   UNL     1       2.995  -0.936  -0.698  0.00  0.00    +0.000 OA
ATOM     14  H   UNL     1       0.565  -0.897  -0.308  0.00  0.00    +0.000 HD
ATOM     15  H   UNL     1       0.508   0.687   0.387  0.00  0.00    +0.000 HD
ENDBRANCH   4   2
TORSDOF 1
