MODEL 1
REMARK VINA RESULT:    -8.670      0.000      0.000
REMARK INTER + INTRA:         -13.263
REMARK INTER:                 -12.218
REMARK INTRA:                  -1.046
REMARK UNBOUND:                -1.046
REMARK  Name = 
REMARK  8 active torsions:
REMARK  status: ('A' for Active; 'I' for Inactive)
REMARK    1  A    between atoms: C_2  and  C_24
REMARK    2  A    between atoms: N_3  and  C_4
REMARK    3  A    between atoms: C_4  and  C_5
REMARK    4  A    between atoms: C_8  and  C_9
REMARK    5  A    between atoms: C_9  and  N_10
REMARK    6  A    between atoms: C_11  and  C_13
REMARK    7  A    between atoms: C_17  and  O_18
REMARK    8  A    between atoms: N_20  and  O_21
REMARK                            x       y       z     vdW  Elec       q    Type
REMARK                         _______ _______ _______ _____ _____    ______ ____
ROOT
ATOM      5  C   UNL     1      46.985   8.033  12.956  0.00  0.00    +0.000 A 
ATOM      6  C   UNL     1      45.608   8.291  12.977  0.00  0.00    +0.000 A 
ATOM      7  C   UNL     1      44.723   7.521  12.214  0.00  0.00    +0.000 A 
ATOM      8  C   UNL     1      45.191   6.456  11.433  0.00  0.00    +0.000 A 
ATOM     22  C   UNL     1      46.568   6.197  11.409  0.00  0.00    +0.000 A 
ATOM     23  C   UNL     1      47.455   6.970  12.170  0.00  0.00    +0.000 A 
ENDROOT
BRANCH   8   9
ATOM      9  C   UNL     1      44.233   5.609  10.632  0.00  0.00    +0.000 C 
BRANCH   9  10
ATOM     10  N   UNL     1      44.909   4.830   9.627  0.00  0.00    +0.000 N 
ATOM     11  C   UNL     1      44.781   3.465   9.567  0.00  0.00    +0.000 C 
ATOM     12  O   UNL     1      43.989   2.835  10.260  0.00  0.00    +0.000 OA
ATOM     35  H   UNL     1      45.670   5.246   9.106  0.00  0.00    +0.000 HD
BRANCH  11  13
ATOM     13  C   UNL     1      45.675   2.788   8.553  0.00  0.00    +0.000 A 
ATOM     14  C   UNL     1      45.726   1.446   8.637  0.00  0.00    +0.000 A 
ATOM     15  C   UNL     1      46.563   0.710   7.661  0.00  0.00    +0.000 A 
ATOM     16  O   UNL     1      46.641  -0.516   7.656  0.00  0.00    +0.000 OA
ATOM     17  C   UNL     1      47.335   1.503   6.660  0.00  0.00    +0.000 A 
ATOM     19  C   UNL     1      47.205   2.833   6.697  0.00  0.00    +0.000 A 
ATOM     20  N   UNL     1      46.378   3.507   7.578  0.00  0.00    +0.000 N 
BRANCH  17  18
ATOM     18  O   UNL     1      48.154   0.850   5.765  0.00  0.00    +0.000 OA
ATOM     36  H   UNL     1      47.867   1.165   4.881  0.00  0.00    +0.000 HD
ENDBRANCH  17  18
BRANCH  20  21
ATOM     21  O   UNL     1      46.558   4.884   7.722  0.00  0.00    +0.000 OA
ATOM     37  H   UNL     1      46.518   5.224   6.809  0.00  0.00    +0.000 HD
ENDBRANCH  20  21
ENDBRANCH  11  13
ENDBRANCH   9  10
ENDBRANCH   8   9
BRANCH   5   4
ATOM      4  C   UNL     1      47.928   8.859  13.796  0.00  0.00    +0.000 C 
BRANCH   4   3
ATOM      1  O   UNL     1      49.889   7.012  14.616  0.00  0.00    +0.000 OA
ATOM      2  C   UNL     1      49.012   7.347  15.401  0.00  0.00    +0.000 C 
ATOM      3  N   UNL     1      48.066   8.306  15.118  0.00  0.00    +0.000 N 
ATOM     34  H   UNL     1      47.291   8.436  15.748  0.00  0.00    +0.000 HD
BRANCH   2  24
ATOM     24  C   UNL     1      48.750   6.628  16.648  0.00  0.00    +0.000 A 
ATOM     25  C   UNL     1      49.160   7.125  17.875  0.00  0.00    +0.000 A 
ATOM     26  S   UNL     1      49.067   5.952  19.119  0.00  0.00    +0.000 S 
ATOM     27  C   UNL     1      48.476   4.775  18.036  0.00  0.00    +0.000 A 
ATOM     28  N   UNL     1      48.370   3.462  18.375  0.00  0.00    +0.000 NA
ATOM     29  C   UNL     1      47.915   2.708  17.429  0.00  0.00    +0.000 A 
ATOM     30  N   UNL     1      47.474   3.154  16.206  0.00  0.00    +0.000 N 
ATOM     31  C   UNL     1      47.486   4.482  15.855  0.00  0.00    +0.000 A 
ATOM     32  O   UNL     1      46.965   4.887  14.822  0.00  0.00    +0.000 OA
ATOM     33  C   UNL     1      48.173   5.326  16.809  0.00  0.00    +0.000 A 
ATOM     38  H   UNL     1      47.044   2.522  15.547  0.00  0.00    +0.000 HD
ENDBRANCH   2  24
ENDBRANCH   4   3
ENDBRANCH   5   4
TORSDOF 8
ENDMDL
MODEL 2
REMARK VINA RESULT:    -8.079      1.460      1.508
REMARK INTER + INTRA:         -12.431
REMARK INTER:                 -11.569
REMARK INTRA:                  -0.861
REMARK UNBOUND:                -1.046
REMARK  Name = 
REMARK  8 active torsions:
REMARK  status: ('A' for Active; 'I' for Inactive)
REMARK    1  A    between atoms: C_2  and  C_24
REMARK    2  A    between atoms: N_3  and  C_4
REMARK    3  A    between atoms: C_4  and  C_5
REMARK    4  A    between atoms: C_8  and  C_9
REMARK    5  A    between atoms: C_9  and  N_10
REMARK    6  A    between atoms: C_11  and  C_13
REMARK    7  A    between atoms: C_17  and  O_18
REMARK    8  A    between atoms: N_20  and  O_21
REMARK                            x       y       z     vdW  Elec       q    Type
REMARK                         _______ _______ _______ _____ _____    ______ ____
ROOT
ATOM      5  C   UNL     1      47.067   7.065  13.501  0.00  0.00    +0.000 A 
ATOM      6  C   UNL     1      46.370   7.864  12.587  0.00  0.00    +0.000 A 
ATOM      7  C   UNL     1      45.476   7.295  11.672  0.00  0.00    +0.000 A 
ATOM      8  C   UNL     1      45.237   5.914  11.671  0.00  0.00    +0.000 A 
ATOM     22  C   UNL     1      45.935   5.112  12.584  0.00  0.00    +0.000 A 
ATOM     23  C   UNL     1      46.832   5.682  13.496  0.00  0.00    +0.000 A 
ENDROOT
BRANCH   8   9
ATOM      9  C   UNL     1      44.252   5.305  10.704  0.00  0.00    +0.000 C 
BRANCH   9  10
ATOM     10  N   UNL     1      44.910   4.580   9.647  0.00  0.00    +0.000 N 
ATOM     11  C   UNL     1      44.777   3.221   9.515  0.00  0.00    +0.000 C 
ATOM     12  O   UNL     1      43.993   2.556  10.185  0.00  0.00    +0.000 OA
ATOM     35  H   UNL     1      45.664   5.022   9.137  0.00  0.00    +0.000 HD
BRANCH  11  13
ATOM     13  C   UNL     1      45.651   2.598   8.451  0.00  0.00    +0.000 A 
ATOM     14  C   UNL     1      45.814   1.266   8.548  0.00  0.00    +0.000 A 
ATOM     15  C   UNL     1      46.640   0.580   7.527  0.00  0.00    +0.000 A 
ATOM     16  O   UNL     1      46.813  -0.636   7.531  0.00  0.00    +0.000 OA
ATOM     17  C   UNL     1      47.279   1.413   6.466  0.00  0.00    +0.000 A 
ATOM     19  C   UNL     1      47.048   2.730   6.496  0.00  0.00    +0.000 A 
ATOM     20  N   UNL     1      46.230   3.353   7.422  0.00  0.00    +0.000 N 
BRANCH  17  18
ATOM     18  O   UNL     1      48.086   0.810   5.526  0.00  0.00    +0.000 OA
ATOM     36  H   UNL     1      48.046  -0.148   5.733  0.00  0.00    +0.000 HD
ENDBRANCH  17  18
BRANCH  20  21
ATOM     21  O   UNL     1      46.310   4.742   7.537  0.00  0.00    +0.000 OA
ATOM     37  H   UNL     1      45.929   5.070   6.701  0.00  0.00    +0.000 HD
ENDBRANCH  20  21
ENDBRANCH  11  13
ENDBRANCH   9  10
ENDBRANCH   8   9
BRANCH   5   4
ATOM      4  C   UNL     1      48.016   7.692  14.493  0.00  0.00    +0.000 C 
BRANCH   4   3
ATOM      1  O   UNL     1      48.494   8.073  17.242  0.00  0.00    +0.000 OA
ATOM      2  C   UNL     1      48.815   7.015  16.716  0.00  0.00    +0.000 C 
ATOM      3  N   UNL     1      48.541   6.708  15.403  0.00  0.00    +0.000 N 
ATOM     34  H   UNL     1      48.951   5.883  14.993  0.00  0.00    +0.000 HD
BRANCH   2  24
ATOM     24  C   UNL     1      49.693   6.043  17.366  0.00  0.00    +0.000 A 
ATOM     25  C   UNL     1      50.894   6.421  17.945  0.00  0.00    +0.000 A 
ATOM     26  S   UNL     1      51.895   5.079  18.307  0.00  0.00    +0.000 S 
ATOM     27  C   UNL     1      50.736   3.985  17.701  0.00  0.00    +0.000 A 
ATOM     28  N   UNL     1      51.011   2.668  17.504  0.00  0.00    +0.000 NA
ATOM     29  C   UNL     1      50.021   1.987  17.027  0.00  0.00    +0.000 A 
ATOM     30  N   UNL     1      48.756   2.479  16.810  0.00  0.00    +0.000 N 
ATOM     31  C   UNL     1      48.414   3.783  17.076  0.00  0.00    +0.000 A 
ATOM     32  O   UNL     1      47.255   4.177  17.011  0.00  0.00    +0.000 OA
ATOM     33  C   UNL     1      49.544   4.619  17.417  0.00  0.00    +0.000 A 
ATOM     38  H   UNL     1      48.004   1.870  16.523  0.00  0.00    +0.000 HD
ENDBRANCH   2  24
ENDBRANCH   4   3
ENDBRANCH   5   4
TORSDOF 8
ENDMDL
MODEL 3
REMARK VINA RESULT:    -7.860      1.186      2.034
REMARK INTER + INTRA:         -12.122
REMARK INTER:                 -10.548
REMARK INTRA:                  -1.575
REMARK UNBOUND:                -1.046
REMARK  Name = 
REMARK  8 active torsions:
REMARK  status: ('A' for Active; 'I' for Inactive)
REMARK    1  A    between atoms: C_2  and  C_24
REMARK    2  A    between atoms: N_3  and  C_4
REMARK    3  A    between atoms: C_4  and  C_5
REMARK    4  A    between atoms: C_8  and  C_9
REMARK    5  A    between atoms: C_9  and  N_10
REMARK    6  A    between atoms: C_11  and  C_13
REMARK    7  A    between atoms: C_17  and  O_18
REMARK    8  A    between atoms: N_20  and  O_21
REMARK                            x       y       z     vdW  Elec       q    Type
REMARK                         _______ _______ _______ _____ _____    ______ ____
ROOT
ATOM      5  C   UNL     1      48.161   8.226  13.729  0.00  0.00    +0.000 A 
ATOM      6  C   UNL     1      48.345   7.181  12.815  0.00  0.00    +0.000 A 
ATOM      7  C   UNL     1      47.303   6.768  11.977  0.00  0.00    +0.000 A 
ATOM      8  C   UNL     1      46.058   7.412  12.014  0.00  0.00    +0.000 A 
ATOM     22  C   UNL     1      45.870   8.456  12.930  0.00  0.00    +0.000 A 
ATOM     23  C   UNL     1      46.913   8.866  13.771  0.00  0.00    +0.000 A 
ENDROOT
BRANCH   8   9
ATOM      9  C   UNL     1      44.944   6.984  11.091  0.00  0.00    +0.000 C 
BRANCH   9  10
ATOM     10  N   UNL     1      45.344   5.904  10.225  0.00  0.00    +0.000 N 
ATOM     11  C   UNL     1      44.501   4.860   9.939  0.00  0.00    +0.000 C 
ATOM     12  O   UNL     1      43.322   4.838  10.278  0.00  0.00    +0.000 OA
ATOM     35  H   UNL     1      46.324   5.780  10.009  0.00  0.00    +0.000 HD
BRANCH  11  13
ATOM     13  C   UNL     1      45.127   3.740   9.142  0.00  0.00    +0.000 A 
ATOM     14  C   UNL     1      45.863   4.129   8.084  0.00  0.00    +0.000 A 
ATOM     15  C   UNL     1      46.528   3.088   7.267  0.00  0.00    +0.000 A 
ATOM     16  O   UNL     1      47.237   3.364   6.303  0.00  0.00    +0.000 OA
ATOM     17  C   UNL     1      46.314   1.659   7.640  0.00  0.00    +0.000 A 
ATOM     19  C   UNL     1      45.546   1.410   8.706  0.00  0.00    +0.000 A 
ATOM     20  N   UNL     1      44.974   2.392   9.495  0.00  0.00    +0.000 N 
BRANCH  17  18
ATOM     18  O   UNL     1      46.886   0.666   6.876  0.00  0.00    +0.000 OA
ATOM     36  H   UNL     1      46.373  -0.144   7.085  0.00  0.00    +0.000 HD
ENDBRANCH  17  18
BRANCH  20  21
ATOM     21  O   UNL     1      43.962   2.015  10.380  0.00  0.00    +0.000 OA
ATOM     37  H   UNL     1      44.341   1.259  10.864  0.00  0.00    +0.000 HD
ENDBRANCH  20  21
ENDBRANCH  11  13
ENDBRANCH   9  10
ENDBRANCH   8   9
BRANCH   5   4
ATOM      4  C   UNL     1      49.297   8.673  14.616  0.00  0.00    +0.000 C 
BRANCH   4   3
ATOM      1  O   UNL     1      50.997   6.612  15.508  0.00  0.00    +0.000 OA
ATOM      2  C   UNL     1      50.064   6.973  16.215  0.00  0.00    +0.000 C 
ATOM      3  N   UNL     1      49.238   8.027  15.901  0.00  0.00    +0.000 N 
ATOM     34  H   UNL     1      48.408   8.185  16.451  0.00  0.00    +0.000 HD
BRANCH   2  24
ATOM     24  C   UNL     1      49.605   6.202  17.370  0.00  0.00    +0.000 A 
ATOM     25  C   UNL     1      50.138   6.397  18.634  0.00  0.00    +0.000 A 
ATOM     26  S   UNL     1      49.709   5.147  19.723  0.00  0.00    +0.000 S 
ATOM     27  C   UNL     1      48.806   4.340  18.523  0.00  0.00    +0.000 A 
ATOM     28  N   UNL     1      48.325   3.081  18.698  0.00  0.00    +0.000 NA
ATOM     29  C   UNL     1      47.674   2.618  17.682  0.00  0.00    +0.000 A 
ATOM     30  N   UNL     1      47.382   3.327  16.541  0.00  0.00    +0.000 N 
ATOM     31  C   UNL     1      47.777   4.631  16.360  0.00  0.00    +0.000 A 
ATOM     32  O   UNL     1      47.397   5.299  15.405  0.00  0.00    +0.000 OA
ATOM     33  C   UNL     1      48.677   5.110  17.386  0.00  0.00    +0.000 A 
ATOM     38  H   UNL     1      46.789   2.937  15.824  0.00  0.00    +0.000 HD
ENDBRANCH   2  24
ENDBRANCH   4   3
ENDBRANCH   5   4
TORSDOF 8
ENDMDL
MODEL 4
REMARK VINA RESULT:    -7.797      1.606      2.031
REMARK INTER + INTRA:         -12.033
REMARK INTER:                 -11.008
REMARK INTRA:                  -1.026
REMARK UNBOUND:                -1.046
REMARK  Name = 
REMARK  8 active torsions:
REMARK  status: ('A' for Active; 'I' for Inactive)
REMARK    1  A    between atoms: C_2  and  C_24
REMARK    2  A    between atoms: N_3  and  C_4
REMARK    3  A    between atoms: C_4  and  C_5
REMARK    4  A    between atoms: C_8  and  C_9
REMARK    5  A    between atoms: C_9  and  N_10
REMARK    6  A    between atoms: C_11  and  C_13
REMARK    7  A    between atoms: C_17  and  O_18
REMARK    8  A    between atoms: N_20  and  O_21
REMARK                            x       y       z     vdW  Elec       q    Type
REMARK                         _______ _______ _______ _____ _____    ______ ____
ROOT
ATOM      5  C   UNL     1      47.855   6.623  13.653  0.00  0.00    +0.000 A 
ATOM      6  C   UNL     1      47.755   7.251  12.405  0.00  0.00    +0.000 A 
ATOM      7  C   UNL     1      46.803   6.835  11.467  0.00  0.00    +0.000 A 
ATOM      8  C   UNL     1      45.908   5.799  11.768  0.00  0.00    +0.000 A 
ATOM     22  C   UNL     1      46.008   5.168  13.015  0.00  0.00    +0.000 A 
ATOM     23  C   UNL     1      46.964   5.582  13.952  0.00  0.00    +0.000 A 
ENDROOT
BRANCH   8   9
ATOM      9  C   UNL     1      44.863   5.370  10.767  0.00  0.00    +0.000 C 
BRANCH   9  10
ATOM     10  N   UNL     1      45.430   4.598   9.691  0.00  0.00    +0.000 N 
ATOM     11  C   UNL     1      45.000   3.325   9.414  0.00  0.00    +0.000 C 
ATOM     12  O   UNL     1      44.026   2.813   9.957  0.00  0.00    +0.000 OA
ATOM     35  H   UNL     1      46.309   4.889   9.281  0.00  0.00    +0.000 HD
BRANCH  11  13
ATOM     13  C   UNL     1      45.801   2.601   8.356  0.00  0.00    +0.000 A 
ATOM     14  C   UNL     1      45.904   1.270   8.523  0.00  0.00    +0.000 A 
ATOM     15  C   UNL     1      46.655   0.488   7.514  0.00  0.00    +0.000 A 
ATOM     16  O   UNL     1      46.770  -0.733   7.581  0.00  0.00    +0.000 OA
ATOM     17  C   UNL     1      47.290   1.227   6.384  0.00  0.00    +0.000 A 
ATOM     19  C   UNL     1      47.124   2.554   6.346  0.00  0.00    +0.000 A 
ATOM     20  N   UNL     1      46.374   3.267   7.264  0.00  0.00    +0.000 N 
BRANCH  17  18
ATOM     18  O   UNL     1      48.030   0.534   5.451  0.00  0.00    +0.000 OA
ATOM     36  H   UNL     1      48.458  -0.192   5.954  0.00  0.00    +0.000 HD
ENDBRANCH  17  18
BRANCH  20  21
ATOM     21  O   UNL     1      46.525   4.655   7.296  0.00  0.00    +0.000 OA
ATOM     37  H   UNL     1      45.782   4.985   6.758  0.00  0.00    +0.000 HD
ENDBRANCH  20  21
ENDBRANCH  11  13
ENDBRANCH   9  10
ENDBRANCH   8   9
BRANCH   5   4
ATOM      4  C   UNL     1      48.876   7.091  14.662  0.00  0.00    +0.000 C 
BRANCH   4   3
ATOM      1  O   UNL     1      50.151   8.176  16.926  0.00  0.00    +0.000 OA
ATOM      2  C   UNL     1      49.004   7.757  17.023  0.00  0.00    +0.000 C 
ATOM      3  N   UNL     1      48.274   7.292  15.953  0.00  0.00    +0.000 N 
ATOM     34  H   UNL     1      47.392   6.833  16.120  0.00  0.00    +0.000 HD
BRANCH   2  24
ATOM     24  C   UNL     1      48.356   7.521  18.312  0.00  0.00    +0.000 A 
ATOM     25  C   UNL     1      47.863   8.564  19.081  0.00  0.00    +0.000 A 
ATOM     26  S   UNL     1      47.489   8.077  20.680  0.00  0.00    +0.000 S 
ATOM     27  C   UNL     1      47.976   6.474  20.361  0.00  0.00    +0.000 A 
ATOM     28  N   UNL     1      48.122   5.548  21.345  0.00  0.00    +0.000 NA
ATOM     29  C   UNL     1      48.509   4.388  20.927  0.00  0.00    +0.000 A 
ATOM     30  N   UNL     1      48.681   4.041  19.608  0.00  0.00    +0.000 N 
ATOM     31  C   UNL     1      48.462   4.923  18.577  0.00  0.00    +0.000 A 
ATOM     32  O   UNL     1      48.483   4.570  17.403  0.00  0.00    +0.000 OA
ATOM     33  C   UNL     1      48.225   6.281  19.018  0.00  0.00    +0.000 A 
ATOM     38  H   UNL     1      48.895   3.091  19.344  0.00  0.00    +0.000 HD
ENDBRANCH   2  24
ENDBRANCH   4   3
ENDBRANCH   5   4
TORSDOF 8
ENDMDL
MODEL 5
REMARK VINA RESULT:    -7.763      1.463      2.163
REMARK INTER + INTRA:         -11.986
REMARK INTER:                 -11.265
REMARK INTRA:                  -0.721
REMARK UNBOUND:                -1.046
REMARK  Name = 
REMARK  8 active torsions:
REMARK  status: ('A' for Active; 'I' for Inactive)
REMARK    1  A    between atoms: C_2  and  C_24
REMARK    2  A    between atoms: N_3  and  C_4
REMARK    3  A    between atoms: C_4  and  C_5
REMARK    4  A    between atoms: C_8  and  C_9
REMARK    5  A    between atoms: C_9  and  N_10
REMARK    6  A    between atoms: C_11  and  C_13
REMARK    7  A    between atoms: C_17  and  O_18
REMARK    8  A    between atoms: N_20  and  O_21
REMARK                            x       y       z     vdW  Elec       q    Type
REMARK                         _______ _______ _______ _____ _____    ______ ____
ROOT
ATOM      5  C   UNL     1      46.948   7.543  13.395  0.00  0.00    +0.000 A 
ATOM      6  C   UNL     1      45.950   8.276  12.742  0.00  0.00    +0.000 A 
ATOM      7  C   UNL     1      45.067   7.652  11.852  0.00  0.00    +0.000 A 
ATOM      8  C   UNL     1      45.146   6.272  11.617  0.00  0.00    +0.000 A 
ATOM     22  C   UNL     1      46.146   5.537  12.268  0.00  0.00    +0.000 A 
ATOM     23  C   UNL     1      47.031   6.163  13.155  0.00  0.00    +0.000 A 
ENDROOT
BRANCH   8   9
ATOM      9  C   UNL     1      44.176   5.596  10.680  0.00  0.00    +0.000 C 
BRANCH   9  10
ATOM     10  N   UNL     1      44.852   4.824   9.668  0.00  0.00    +0.000 N 
ATOM     11  C   UNL     1      44.775   3.455   9.635  0.00  0.00    +0.000 C 
ATOM     12  O   UNL     1      44.029   2.807  10.363  0.00  0.00    +0.000 OA
ATOM     35  H   UNL     1      45.580   5.260   9.116  0.00  0.00    +0.000 HD
BRANCH  11  13
ATOM     13  C   UNL     1      45.663   2.795   8.605  0.00  0.00    +0.000 A 
ATOM     14  C   UNL     1      45.728   1.452   8.678  0.00  0.00    +0.000 A 
ATOM     15  C   UNL     1      46.560   0.732   7.687  0.00  0.00    +0.000 A 
ATOM     16  O   UNL     1      46.650  -0.493   7.671  0.00  0.00    +0.000 OA
ATOM     17  C   UNL     1      47.313   1.539   6.683  0.00  0.00    +0.000 A 
ATOM     19  C   UNL     1      47.172   2.868   6.732  0.00  0.00    +0.000 A 
ATOM     20  N   UNL     1      46.348   3.528   7.627  0.00  0.00    +0.000 N 
BRANCH  17  18
ATOM     18  O   UNL     1      48.128   0.901   5.773  0.00  0.00    +0.000 OA
ATOM     36  H   UNL     1      47.668   0.059   5.567  0.00  0.00    +0.000 HD
ENDBRANCH  17  18
BRANCH  20  21
ATOM     21  O   UNL     1      46.517   4.905   7.780  0.00  0.00    +0.000 OA
ATOM     37  H   UNL     1      46.074   5.285   6.999  0.00  0.00    +0.000 HD
ENDBRANCH  20  21
ENDBRANCH  11  13
ENDBRANCH   9  10
ENDBRANCH   8   9
BRANCH   5   4
ATOM      4  C   UNL     1      47.883   8.224  14.364  0.00  0.00    +0.000 C 
BRANCH   4   3
ATOM      1  O   UNL     1      50.240   6.876  15.112  0.00  0.00    +0.000 OA
ATOM      2  C   UNL     1      49.231   6.748  15.793  0.00  0.00    +0.000 C 
ATOM      3  N   UNL     1      48.063   7.435  15.554  0.00  0.00    +0.000 N 
ATOM     34  H   UNL     1      47.229   7.183  16.062  0.00  0.00    +0.000 HD
BRANCH   2  24
ATOM     24  C   UNL     1      49.093   5.709  16.813  0.00  0.00    +0.000 A 
ATOM     25  C   UNL     1      48.321   4.578  16.600  0.00  0.00    +0.000 A 
ATOM     26  S   UNL     1      48.024   3.708  18.045  0.00  0.00    +0.000 S 
ATOM     27  C   UNL     1      48.925   4.827  18.965  0.00  0.00    +0.000 A 
ATOM     28  N   UNL     1      48.924   4.820  20.324  0.00  0.00    +0.000 NA
ATOM     29  C   UNL     1      49.652   5.745  20.858  0.00  0.00    +0.000 A 
ATOM     30  N   UNL     1      50.450   6.622  20.162  0.00  0.00    +0.000 N 
ATOM     31  C   UNL     1      50.545   6.606  18.792  0.00  0.00    +0.000 A 
ATOM     32  O   UNL     1      51.361   7.295  18.188  0.00  0.00    +0.000 OA
ATOM     33  C   UNL     1      49.594   5.722  18.156  0.00  0.00    +0.000 A 
ATOM     38  H   UNL     1      51.066   7.259  20.645  0.00  0.00    +0.000 HD
ENDBRANCH   2  24
ENDBRANCH   4   3
ENDBRANCH   5   4
TORSDOF 8
ENDMDL
MODEL 6
REMARK VINA RESULT:    -7.171      1.886      2.650
REMARK INTER + INTRA:         -11.151
REMARK INTER:                 -10.060
REMARK INTRA:                  -1.092
REMARK UNBOUND:                -1.046
REMARK  Name = 
REMARK  8 active torsions:
REMARK  status: ('A' for Active; 'I' for Inactive)
REMARK    1  A    between atoms: C_2  and  C_24
REMARK    2  A    between atoms: N_3  and  C_4
REMARK    3  A    between atoms: C_4  and  C_5
REMARK    4  A    between atoms: C_8  and  C_9
REMARK    5  A    between atoms: C_9  and  N_10
REMARK    6  A    between atoms: C_11  and  C_13
REMARK    7  A    between atoms: C_17  and  O_18
REMARK    8  A    between atoms: N_20  and  O_21
REMARK                            x       y       z     vdW  Elec       q    Type
REMARK                         _______ _______ _______ _____ _____    ______ ____
ROOT
ATOM      5  C   UNL     1      47.976   7.885  14.124  0.00  0.00    +0.000 A 
ATOM      6  C   UNL     1      46.997   8.822  13.770  0.00  0.00    +0.000 A 
ATOM      7  C   UNL     1      45.986   8.494  12.859  0.00  0.00    +0.000 A 
ATOM      8  C   UNL     1      45.915   7.210  12.301  0.00  0.00    +0.000 A 
ATOM     22  C   UNL     1      46.895   6.272  12.652  0.00  0.00    +0.000 A 
ATOM     23  C   UNL     1      47.908   6.601  13.561  0.00  0.00    +0.000 A 
ENDROOT
BRANCH   8   9
ATOM      9  C   UNL     1      44.809   6.849  11.340  0.00  0.00    +0.000 C 
BRANCH   9  10
ATOM     10  N   UNL     1      45.239   5.887  10.357  0.00  0.00    +0.000 N 
ATOM     11  C   UNL     1      44.482   4.785  10.048  0.00  0.00    +0.000 C 
ATOM     12  O   UNL     1      43.344   4.614  10.472  0.00  0.00    +0.000 OA
ATOM     35  H   UNL     1      46.206   5.883  10.058  0.00  0.00    +0.000 HD
BRANCH  11  13
ATOM     13  C   UNL     1      45.147   3.802   9.112  0.00  0.00    +0.000 A 
ATOM     14  C   UNL     1      45.747   4.347   8.038  0.00  0.00    +0.000 A 
ATOM     15  C   UNL     1      46.441   3.448   7.086  0.00  0.00    +0.000 A 
ATOM     16  O   UNL     1      47.034   3.871   6.097  0.00  0.00    +0.000 OA
ATOM     17  C   UNL     1      46.403   1.980   7.353  0.00  0.00    +0.000 A 
ATOM     19  C   UNL     1      45.758   1.571   8.450  0.00  0.00    +0.000 A 
ATOM     20  N   UNL     1      45.160   2.423   9.361  0.00  0.00    +0.000 N 
BRANCH  17  18
ATOM     18  O   UNL     1      47.004   1.115   6.465  0.00  0.00    +0.000 OA
ATOM     36  H   UNL     1      46.494   1.211   5.631  0.00  0.00    +0.000 HD
ENDBRANCH  17  18
BRANCH  20  21
ATOM     21  O   UNL     1      44.270   1.874  10.286  0.00  0.00    +0.000 OA
ATOM     37  H   UNL     1      44.806   1.763  11.092  0.00  0.00    +0.000 HD
ENDBRANCH  20  21
ENDBRANCH  11  13
ENDBRANCH   9  10
ENDBRANCH   8   9
BRANCH   5   4
ATOM      4  C   UNL     1      49.051   8.245  15.120  0.00  0.00    +0.000 C 
BRANCH   4   3
ATOM      1  O   UNL     1      50.521   7.757  17.472  0.00  0.00    +0.000 OA
ATOM      2  C   UNL     1      49.312   7.936  17.544  0.00  0.00    +0.000 C 
ATOM      3  N   UNL     1      48.529   8.266  16.461  0.00  0.00    +0.000 N 
ATOM     34  H   UNL     1      47.526   8.264  16.559  0.00  0.00    +0.000 HD
BRANCH   2  24
ATOM     24  C   UNL     1      48.538   7.628  18.745  0.00  0.00    +0.000 A 
ATOM     25  C   UNL     1      47.952   8.624  19.509  0.00  0.00    +0.000 A 
ATOM     26  S   UNL     1      47.423   8.052  21.035  0.00  0.00    +0.000 S 
ATOM     27  C   UNL     1      47.966   6.473  20.689  0.00  0.00    +0.000 A 
ATOM     28  N   UNL     1      48.025   5.499  21.635  0.00  0.00    +0.000 NA
ATOM     29  C   UNL     1      48.472   4.367  21.202  0.00  0.00    +0.000 A 
ATOM     30  N   UNL     1      48.785   4.090  19.892  0.00  0.00    +0.000 N 
ATOM     31  C   UNL     1      48.659   5.021  18.890  0.00  0.00    +0.000 A 
ATOM     32  O   UNL     1      48.806   4.729  17.709  0.00  0.00    +0.000 OA
ATOM     33  C   UNL     1      48.356   6.351  19.371  0.00  0.00    +0.000 A 
ATOM     38  H   UNL     1      49.041   3.157  19.605  0.00  0.00    +0.000 HD
ENDBRANCH   2  24
ENDBRANCH   4   3
ENDBRANCH   5   4
TORSDOF 8
ENDMDL
MODEL 7
REMARK VINA RESULT:    -7.138      3.846      5.327
REMARK INTER + INTRA:         -11.104
REMARK INTER:                  -9.872
REMARK INTRA:                  -1.233
REMARK UNBOUND:                -1.046
REMARK  Name = 
REMARK  8 active torsions:
REMARK  status: ('A' for Active; 'I' for Inactive)
REMARK    1  A    between atoms: C_2  and  C_24
REMARK    2  A    between atoms: N_3  and  C_4
REMARK    3  A    between atoms: C_4  and  C_5
REMARK    4  A    between atoms: C_8  and  C_9
REMARK    5  A    between atoms: C_9  and  N_10
REMARK    6  A    between atoms: C_11  and  C_13
REMARK    7  A    between atoms: C_17  and  O_18
REMARK    8  A    between atoms: N_20  and  O_21
REMARK                            x       y       z     vdW  Elec       q    Type
REMARK                         _______ _______ _______ _____ _____    ______ ____
ROOT
ATOM      5  C   UNL     1      51.131   7.799  15.189  0.00  0.00    +0.000 A 
ATOM      6  C   UNL     1      49.994   7.439  15.923  0.00  0.00    +0.000 A 
ATOM      7  C   UNL     1      48.710   7.744  15.454  0.00  0.00    +0.000 A 
ATOM      8  C   UNL     1      48.534   8.393  14.224  0.00  0.00    +0.000 A 
ATOM     22  C   UNL     1      49.671   8.756  13.489  0.00  0.00    +0.000 A 
ATOM     23  C   UNL     1      50.955   8.453  13.960  0.00  0.00    +0.000 A 
ENDROOT
BRANCH   8   9
ATOM      9  C   UNL     1      47.150   8.696  13.706  0.00  0.00    +0.000 C 
BRANCH   9  10
ATOM     10  N   UNL     1      46.459   7.505  13.281  0.00  0.00    +0.000 N 
ATOM     11  C   UNL     1      45.412   7.557  12.396  0.00  0.00    +0.000 C 
ATOM     12  O   UNL     1      45.084   8.581  11.804  0.00  0.00    +0.000 OA
ATOM     35  H   UNL     1      46.578   6.649  13.807  0.00  0.00    +0.000 HD
BRANCH  11  13
ATOM     13  C   UNL     1      44.703   6.241  12.175  0.00  0.00    +0.000 A 
ATOM     14  C   UNL     1      45.412   5.144  12.501  0.00  0.00    +0.000 A 
ATOM     15  C   UNL     1      44.774   3.817  12.334  0.00  0.00    +0.000 A 
ATOM     16  O   UNL     1      45.346   2.772  12.634  0.00  0.00    +0.000 OA
ATOM     17  C   UNL     1      43.391   3.768  11.777  0.00  0.00    +0.000 A 
ATOM     19  C   UNL     1      42.806   4.933  11.480  0.00  0.00    +0.000 A 
ATOM     20  N   UNL     1      43.390   6.170  11.691  0.00  0.00    +0.000 N 
BRANCH  17  18
ATOM     18  O   UNL     1      42.786   2.547  11.572  0.00  0.00    +0.000 OA
ATOM     36  H   UNL     1      43.457   1.883  11.841  0.00  0.00    +0.000 HD
ENDBRANCH  17  18
BRANCH  20  21
ATOM     21  O   UNL     1      42.816   7.280  11.069  0.00  0.00    +0.000 OA
ATOM     37  H   UNL     1      42.768   7.025  10.129  0.00  0.00    +0.000 HD
ENDBRANCH  20  21
ENDBRANCH  11  13
ENDBRANCH   9  10
ENDBRANCH   8   9
BRANCH   5   4
ATOM      4  C   UNL     1      52.508   7.450  15.698  0.00  0.00    +0.000 C 
BRANCH   4   3
ATOM      1  O   UNL     1      53.157   7.177  18.425  0.00  0.00    +0.000 OA
ATOM      2  C   UNL     1      52.899   6.179  17.764  0.00  0.00    +0.000 C 
ATOM      3  N   UNL     1      52.488   6.224  16.451  0.00  0.00    +0.000 N 
ATOM     34  H   UNL     1      52.426   5.368  15.923  0.00  0.00    +0.000 HD
BRANCH   2  24
ATOM     24  C   UNL     1      53.188   4.824  18.233  0.00  0.00    +0.000 A 
ATOM     25  C   UNL     1      54.416   4.489  18.778  0.00  0.00    +0.000 A 
ATOM     26  S   UNL     1      54.632   2.795  18.909  0.00  0.00    +0.000 S 
ATOM     27  C   UNL     1      53.091   2.495  18.245  0.00  0.00    +0.000 A 
ATOM     28  N   UNL     1      52.689   1.251  17.870  0.00  0.00    +0.000 NA
ATOM     29  C   UNL     1      51.496   1.208  17.375  0.00  0.00    +0.000 A 
ATOM     30  N   UNL     1      50.633   2.275  17.300  0.00  0.00    +0.000 N 
ATOM     31  C   UNL     1      50.969   3.531  17.745  0.00  0.00    +0.000 A 
ATOM     32  O   UNL     1      50.151   4.442  17.803  0.00  0.00    +0.000 OA
ATOM     33  C   UNL     1      52.362   3.659  18.117  0.00  0.00    +0.000 A 
ATOM     38  H   UNL     1      49.681   2.153  16.988  0.00  0.00    +0.000 HD
ENDBRANCH   2  24
ENDBRANCH   4   3
ENDBRANCH   5   4
TORSDOF 8
ENDMDL
MODEL 8
REMARK VINA RESULT:    -7.054      3.443      4.378
REMARK INTER + INTRA:         -10.987
REMARK INTER:                  -9.088
REMARK INTRA:                  -1.899
REMARK UNBOUND:                -1.046
REMARK  Name = 
REMARK  8 active torsions:
REMARK  status: ('A' for Active; 'I' for Inactive)
REMARK    1  A    between atoms: C_2  and  C_24
REMARK    2  A    between atoms: N_3  and  C_4
REMARK    3  A    between atoms: C_4  and  C_5
REMARK    4  A    between atoms: C_8  and  C_9
REMARK    5  A    between atoms: C_9  and  N_10
REMARK    6  A    between atoms: C_11  and  C_13
REMARK    7  A    between atoms: C_17  and  O_18
REMARK    8  A    between atoms: N_20  and  O_21
REMARK                            x       y       z     vdW  Elec       q    Type
REMARK                         _______ _______ _______ _____ _____    ______ ____
ROOT
ATOM      5  C   UNL     1      50.360   8.866  15.231  0.00  0.00    +0.000 A 
ATOM      6  C   UNL     1      49.008   9.213  15.345  0.00  0.00    +0.000 A 
ATOM      7  C   UNL     1      48.166   9.199  14.226  0.00  0.00    +0.000 A 
ATOM      8  C   UNL     1      48.652   8.811  12.970  0.00  0.00    +0.000 A 
ATOM     22  C   UNL     1      50.005   8.465  12.853  0.00  0.00    +0.000 A 
ATOM     23  C   UNL     1      50.848   8.482  13.972  0.00  0.00    +0.000 A 
ENDROOT
BRANCH   8   9
ATOM      9  C   UNL     1      47.738   8.770  11.771  0.00  0.00    +0.000 C 
BRANCH   9  10
ATOM     10  N   UNL     1      46.961   7.558  11.725  0.00  0.00    +0.000 N 
ATOM     11  C   UNL     1      45.646   7.529  12.115  0.00  0.00    +0.000 C 
ATOM     12  O   UNL     1      45.007   8.540  12.393  0.00  0.00    +0.000 OA
ATOM     35  H   UNL     1      47.435   6.668  11.632  0.00  0.00    +0.000 HD
BRANCH  11  13
ATOM     13  C   UNL     1      45.024   6.153  12.149  0.00  0.00    +0.000 A 
ATOM     14  C   UNL     1      45.848   5.158  12.528  0.00  0.00    +0.000 A 
ATOM     15  C   UNL     1      45.304   3.783  12.608  0.00  0.00    +0.000 A 
ATOM     16  O   UNL     1      45.986   2.828  12.971  0.00  0.00    +0.000 OA
ATOM     17  C   UNL     1      43.878   3.569  12.226  0.00  0.00    +0.000 A 
ATOM     19  C   UNL     1      43.174   4.643  11.853  0.00  0.00    +0.000 A 
ATOM     20  N   UNL     1      43.677   5.932  11.834  0.00  0.00    +0.000 N 
BRANCH  17  18
ATOM     18  O   UNL     1      43.353   2.295  12.251  0.00  0.00    +0.000 OA
ATOM     36  H   UNL     1      42.384   2.418  12.162  0.00  0.00    +0.000 HD
ENDBRANCH  17  18
BRANCH  20  21
ATOM     21  O   UNL     1      42.953   6.907  11.145  0.00  0.00    +0.000 OA
ATOM     37  H   UNL     1      43.257   6.819  10.223  0.00  0.00    +0.000 HD
ENDBRANCH  20  21
ENDBRANCH  11  13
ENDBRANCH   9  10
ENDBRANCH   8   9
BRANCH   5   4
ATOM      4  C   UNL     1      51.253   8.868  16.447  0.00  0.00    +0.000 C 
BRANCH   4   3
ATOM      1  O   UNL     1      51.749   6.102  16.626  0.00  0.00    +0.000 OA
ATOM      2  C   UNL     1      50.982   6.629  17.421  0.00  0.00    +0.000 C 
ATOM      3  N   UNL     1      50.747   7.984  17.464  0.00  0.00    +0.000 N 
ATOM     34  H   UNL     1      50.004   8.339  18.045  0.00  0.00    +0.000 HD
BRANCH   2  24
ATOM     24  C   UNL     1      50.083   5.859  18.280  0.00  0.00    +0.000 A 
ATOM     25  C   UNL     1      50.268   5.790  19.652  0.00  0.00    +0.000 A 
ATOM     26  S   UNL     1      49.327   4.557  20.377  0.00  0.00    +0.000 S 
ATOM     27  C   UNL     1      48.662   4.107  18.872  0.00  0.00    +0.000 A 
ATOM     28  N   UNL     1      47.927   2.975  18.710  0.00  0.00    +0.000 NA
ATOM     29  C   UNL     1      47.512   2.783  17.501  0.00  0.00    +0.000 A 
ATOM     30  N   UNL     1      47.689   3.660  16.457  0.00  0.00    +0.000 N 
ATOM     31  C   UNL     1      48.353   4.854  16.599  0.00  0.00    +0.000 A 
ATOM     32  O   UNL     1      48.386   5.690  15.703  0.00  0.00    +0.000 OA
ATOM     33  C   UNL     1      49.002   5.006  17.883  0.00  0.00    +0.000 A 
ATOM     38  H   UNL     1      47.258   3.492  15.560  0.00  0.00    +0.000 HD
ENDBRANCH   2  24
ENDBRANCH   4   3
ENDBRANCH   5   4
TORSDOF 8
ENDMDL
MODEL 9
REMARK VINA RESULT:    -6.888      5.082      7.263
REMARK INTER + INTRA:         -10.752
REMARK INTER:                  -9.420
REMARK INTRA:                  -1.333
REMARK UNBOUND:                -1.046
REMARK  Name = 
REMARK  8 active torsions:
REMARK  status: ('A' for Active; 'I' for Inactive)
REMARK    1  A    between atoms: C_2  and  C_24
REMARK    2  A    between atoms: N_3  and  C_4
REMARK    3  A    between atoms: C_4  and  C_5
REMARK    4  A    between atoms: C_8  and  C_9
REMARK    5  A    between atoms: C_9  and  N_10
REMARK    6  A    between atoms: C_11  and  C_13
REMARK    7  A    between atoms: C_17  and  O_18
REMARK    8  A    between atoms: N_20  and  O_21
REMARK                            x       y       z     vdW  Elec       q    Type
REMARK                         _______ _______ _______ _____ _____    ______ ____
ROOT
ATOM      5  C   UNL     1      50.705   8.666  12.664  0.00  0.00    +0.000 A 
ATOM      6  C   UNL     1      49.888   8.392  11.560  0.00  0.00    +0.000 A 
ATOM      7  C   UNL     1      48.499   8.290  11.703  0.00  0.00    +0.000 A 
ATOM      8  C   UNL     1      47.892   8.487  12.951  0.00  0.00    +0.000 A 
ATOM     22  C   UNL     1      48.708   8.759  14.057  0.00  0.00    +0.000 A 
ATOM     23  C   UNL     1      50.098   8.858  13.914  0.00  0.00    +0.000 A 
ENDROOT
BRANCH   8   9
ATOM      9  C   UNL     1      46.393   8.404  13.098  0.00  0.00    +0.000 C 
BRANCH   9  10
ATOM     10  N   UNL     1      45.826   7.364  12.279  0.00  0.00    +0.000 N 
ATOM     11  C   UNL     1      45.849   6.048  12.667  0.00  0.00    +0.000 C 
ATOM     12  O   UNL     1      46.218   5.683  13.779  0.00  0.00    +0.000 OA
ATOM     35  H   UNL     1      45.620   7.555  11.307  0.00  0.00    +0.000 HD
BRANCH  11  13
ATOM     13  C   UNL     1      45.351   5.071  11.627  0.00  0.00    +0.000 A 
ATOM     14  C   UNL     1      45.658   5.381  10.354  0.00  0.00    +0.000 A 
ATOM     15  C   UNL     1      45.224   4.459   9.279  0.00  0.00    +0.000 A 
ATOM     16  O   UNL     1      45.489   4.658   8.096  0.00  0.00    +0.000 OA
ATOM     17  C   UNL     1      44.436   3.253   9.665  0.00  0.00    +0.000 A 
ATOM     19  C   UNL     1      44.186   3.072  10.966  0.00  0.00    +0.000 A 
ATOM     20  N   UNL     1      44.643   3.911  11.967  0.00  0.00    +0.000 N 
BRANCH  17  18
ATOM     18  O   UNL     1      43.983   2.397   8.685  0.00  0.00    +0.000 OA
ATOM     36  H   UNL     1      44.713   1.755   8.550  0.00  0.00    +0.000 HD
ENDBRANCH  17  18
BRANCH  20  21
ATOM     21  O   UNL     1      44.070   3.791  13.235  0.00  0.00    +0.000 OA
ATOM     37  H   UNL     1      44.830   3.851  13.843  0.00  0.00    +0.000 HD
ENDBRANCH  20  21
ENDBRANCH  11  13
ENDBRANCH   9  10
ENDBRANCH   8   9
BRANCH   5   4
ATOM      4  C   UNL     1      52.200   8.791  12.494  0.00  0.00    +0.000 C 
BRANCH   4   3
ATOM      1  O   UNL     1      53.955  10.095  10.719  0.00  0.00    +0.000 OA
ATOM      2  C   UNL     1      53.420   9.048  10.377  0.00  0.00    +0.000 C 
ATOM      3  N   UNL     1      52.618   8.299  11.208  0.00  0.00    +0.000 N 
ATOM     34  H   UNL     1      52.098   7.525  10.826  0.00  0.00    +0.000 HD
BRANCH   2  24
ATOM     24  C   UNL     1      53.412   8.581   8.991  0.00  0.00    +0.000 A 
ATOM     25  C   UNL     1      53.027   9.406   7.946  0.00  0.00    +0.000 A 
ATOM     26  S   UNL     1      52.755   8.539   6.495  0.00  0.00    +0.000 S 
ATOM     27  C   UNL     1      53.151   7.059   7.244  0.00  0.00    +0.000 A 
ATOM     28  N   UNL     1      52.933   5.858   6.645  0.00  0.00    +0.000 NA
ATOM     29  C   UNL     1      53.280   4.840   7.360  0.00  0.00    +0.000 A 
ATOM     30  N   UNL     1      53.906   4.909   8.582  0.00  0.00    +0.000 N 
ATOM     31  C   UNL     1      54.221   6.103   9.184  0.00  0.00    +0.000 A 
ATOM     32  O   UNL     1      54.900   6.159  10.203  0.00  0.00    +0.000 OA
ATOM     33  C   UNL     1      53.667   7.256   8.508  0.00  0.00    +0.000 A 
ATOM     38  H   UNL     1      54.235   4.075   9.045  0.00  0.00    +0.000 HD
ENDBRANCH   2  24
ENDBRANCH   4   3
ENDBRANCH   5   4
TORSDOF 8
ENDMDL
