MODEL 1
REMARK VINA RESULT:    -8.425      0.000      0.000
REMARK INTER + INTRA:         -11.166
REMARK INTER:                 -10.395
REMARK INTRA:                  -0.771
REMARK UNBOUND:                -0.771
REMARK  Name = 
REMARK  4 active torsions:
REMARK  status: ('A' for Active; 'I' for Inactive)
REMARK    1  A    between atoms: C_2  and  C_4
REMARK    2  A    between atoms: N_8  and  C_9
REMARK    3  A    between atoms: C_9  and  C_10
REMARK    4  A    between atoms: C_14  and  N_15
REMARK                            x       y       z     vdW  Elec       q    Type
REMARK                         _______ _______ _______ _____ _____    ______ ____
ROOT
ATOM      9  C   UNL     1      43.576   4.387  11.036  0.00  0.00    +0.000 C 
ENDROOT
BRANCH   9   8
ATOM      4  C   UNL     1      46.643   2.447   7.419  0.00  0.00    +0.000 A 
ATOM      5  C   UNL     1      45.914   1.792   8.403  0.00  0.00    +0.000 A 
ATOM      6  C   UNL     1      45.023   2.522   9.188  0.00  0.00    +0.000 A 
ATOM      7  C   UNL     1      44.890   3.894   8.995  0.00  0.00    +0.000 A 
ATOM      8  N   UNL     1      43.983   4.668   9.675  0.00  0.00    +0.000 N 
ATOM     22  N   UNL     1      45.603   4.538   8.048  0.00  0.00    +0.000 NA
ATOM     23  C   UNL     1      46.466   3.813   7.290  0.00  0.00    +0.000 A 
ATOM     26  H   UNL     1      44.143   5.643   9.445  0.00  0.00    +0.000 HD
BRANCH   4   2
ATOM      1  N   UNL     1      48.750   2.388   6.215  0.00  0.00    +0.000 N 
ATOM      2  C   UNL     1      47.590   1.738   6.533  0.00  0.00    +0.000 C 
ATOM      3  O   UNL     1      47.363   0.606   6.126  0.00  0.00    +0.000 OA
ATOM     24  H   UNL     1      49.434   1.861   5.686  0.00  0.00    +0.000 HD
ATOM     25  H   UNL     1      49.079   3.196   6.727  0.00  0.00    +0.000 HD
ENDBRANCH   4   2
ENDBRANCH   9   8
BRANCH   9  10
ATOM     10  C   UNL     1      44.623   4.736  12.066  0.00  0.00    +0.000 A 
ATOM     11  C   UNL     1      45.397   3.734  12.663  0.00  0.00    +0.000 A 
ATOM     12  C   UNL     1      46.481   4.076  13.463  0.00  0.00    +0.000 A 
ATOM     13  C   UNL     1      46.816   5.417  13.651  0.00  0.00    +0.000 A 
ATOM     14  C   UNL     1      46.066   6.454  13.074  0.00  0.00    +0.000 A 
ATOM     21  C   UNL     1      44.942   6.085  12.320  0.00  0.00    +0.000 A 
BRANCH  14  15
ATOM     15  N   UNL     1      46.451   7.774  13.183  0.00  0.00    +0.000 N 
ATOM     16  C   UNL     1      45.505   8.873  12.956  0.00  0.00    +0.000 C 
ATOM     17  C   UNL     1      46.014   9.803  11.836  0.00  0.00    +0.000 C 
ATOM     18  N   UNL     1      47.383  10.307  12.078  0.00  0.00    +0.000 NA
ATOM     19  C   UNL     1      48.287   9.145  12.252  0.00  0.00    +0.000 C 
ATOM     20  C   UNL     1      47.852   8.165  13.373  0.00  0.00    +0.000 C 
ATOM     27  H   UNL     1      47.374  10.828  12.955  0.00  0.00    +0.000 HD
ENDBRANCH  14  15
ENDBRANCH   9  10
TORSDOF 4
ENDMDL
MODEL 2
REMARK VINA RESULT:    -7.730      1.753      3.067
REMARK INTER + INTRA:         -10.309
REMARK INTER:                  -9.606
REMARK INTRA:                  -0.704
REMARK UNBOUND:                -0.771
REMARK  Name = 
REMARK  4 active torsions:
REMARK  status: ('A' for Active; 'I' for Inactive)
REMARK    1  A    between atoms: C_2  and  C_4
REMARK    2  A    between atoms: N_8  and  C_9
REMARK    3  A    between atoms: C_9  and  C_10
REMARK    4  A    between atoms: C_14  and  N_15
REMARK                            x       y       z     vdW  Elec       q    Type
REMARK                         _______ _______ _______ _____ _____    ______ ____
ROOT
ATOM      9  C   UNL     1      43.631   5.332  10.863  0.00  0.00    +0.000 C 
ENDROOT
BRANCH   9   8
ATOM      4  C   UNL     1      46.188   1.953   7.980  0.00  0.00    +0.000 A 
ATOM      5  C   UNL     1      45.524   1.762   9.185  0.00  0.00    +0.000 A 
ATOM      6  C   UNL     1      44.765   2.805   9.715  0.00  0.00    +0.000 A 
ATOM      7  C   UNL     1      44.698   4.024   9.048  0.00  0.00    +0.000 A 
ATOM      8  N   UNL     1      43.914   5.071   9.466  0.00  0.00    +0.000 N 
ATOM     22  N   UNL     1      45.349   4.219   7.883  0.00  0.00    +0.000 NA
ATOM     23  C   UNL     1      46.084   3.194   7.378  0.00  0.00    +0.000 A 
ATOM     26  H   UNL     1      44.110   5.881   8.888  0.00  0.00    +0.000 HD
BRANCH   4   2
ATOM      1  N   UNL     1      47.849   1.269   6.347  0.00  0.00    +0.000 N 
ATOM      2  C   UNL     1      46.994   0.889   7.345  0.00  0.00    +0.000 C 
ATOM      3  O   UNL     1      46.924  -0.276   7.715  0.00  0.00    +0.000 OA
ATOM     24  H   UNL     1      48.464   0.553   5.981  0.00  0.00    +0.000 HD
ATOM     25  H   UNL     1      48.114   2.233   6.195  0.00  0.00    +0.000 HD
ENDBRANCH   4   2
ENDBRANCH   9   8
BRANCH   9  10
ATOM     10  C   UNL     1      44.673   6.187  11.542  0.00  0.00    +0.000 A 
ATOM     11  C   UNL     1      44.531   7.578  11.593  0.00  0.00    +0.000 A 
ATOM     12  C   UNL     1      45.390   8.337  12.379  0.00  0.00    +0.000 A 
ATOM     13  C   UNL     1      46.378   7.712  13.140  0.00  0.00    +0.000 A 
ATOM     14  C   UNL     1      46.558   6.321  13.117  0.00  0.00    +0.000 A 
ATOM     21  C   UNL     1      45.718   5.583  12.270  0.00  0.00    +0.000 A 
BRANCH  14  15
ATOM     15  N   UNL     1      47.472   5.695  13.938  0.00  0.00    +0.000 N 
ATOM     16  C   UNL     1      47.253   4.332  14.436  0.00  0.00    +0.000 C 
ATOM     17  C   UNL     1      47.275   4.308  15.978  0.00  0.00    +0.000 C 
ATOM     18  N   UNL     1      48.502   4.904  16.550  0.00  0.00    +0.000 NA
ATOM     19  C   UNL     1      48.633   6.289  16.040  0.00  0.00    +0.000 C 
ATOM     20  C   UNL     1      48.634   6.398  14.492  0.00  0.00    +0.000 C 
ATOM     27  H   UNL     1      49.299   4.368  16.204  0.00  0.00    +0.000 HD
ENDBRANCH  14  15
ENDBRANCH   9  10
TORSDOF 4
ENDMDL
MODEL 3
REMARK VINA RESULT:    -7.172      1.891      2.536
REMARK INTER + INTRA:          -9.620
REMARK INTER:                  -9.006
REMARK INTRA:                  -0.614
REMARK UNBOUND:                -0.771
REMARK  Name = 
REMARK  4 active torsions:
REMARK  status: ('A' for Active; 'I' for Inactive)
REMARK    1  A    between atoms: C_2  and  C_4
REMARK    2  A    between atoms: N_8  and  C_9
REMARK    3  A    between atoms: C_9  and  C_10
REMARK    4  A    between atoms: C_14  and  N_15
REMARK                            x       y       z     vdW  Elec       q    Type
REMARK                         _______ _______ _______ _____ _____    ______ ____
ROOT
ATOM      9  C   UNL     1      43.833   4.726  10.629  0.00  0.00    +0.000 C 
ENDROOT
BRANCH   9   8
ATOM      4  C   UNL     1      46.663   2.330   7.091  0.00  0.00    +0.000 A 
ATOM      5  C   UNL     1      46.486   3.691   7.308  0.00  0.00    +0.000 A 
ATOM      6  C   UNL     1      45.783   4.113   8.435  0.00  0.00    +0.000 A 
ATOM      7  C   UNL     1      45.249   3.175   9.313  0.00  0.00    +0.000 A 
ATOM      8  N   UNL     1      44.610   3.512  10.481  0.00  0.00    +0.000 N 
ATOM     22  N   UNL     1      45.409   1.852   9.103  0.00  0.00    +0.000 NA
ATOM     23  C   UNL     1      46.098   1.455   8.002  0.00  0.00    +0.000 A 
ATOM     26  H   UNL     1      44.218   2.674  10.897  0.00  0.00    +0.000 HD
BRANCH   4   2
ATOM      1  N   UNL     1      48.179   2.697   5.232  0.00  0.00    +0.000 N 
ATOM      2  C   UNL     1      47.415   1.805   5.933  0.00  0.00    +0.000 C 
ATOM      3  O   UNL     1      47.384   0.619   5.631  0.00  0.00    +0.000 OA
ATOM     24  H   UNL     1      48.763   2.315   4.499  0.00  0.00    +0.000 HD
ATOM     25  H   UNL     1      48.426   3.608   5.597  0.00  0.00    +0.000 HD
ENDBRANCH   4   2
ENDBRANCH   9   8
BRANCH   9  10
ATOM     10  C   UNL     1      44.584   5.847  11.305  0.00  0.00    +0.000 A 
ATOM     11  C   UNL     1      45.836   5.617  11.887  0.00  0.00    +0.000 A 
ATOM     12  C   UNL     1      46.601   6.687  12.338  0.00  0.00    +0.000 A 
ATOM     13  C   UNL     1      46.135   7.993  12.186  0.00  0.00    +0.000 A 
ATOM     14  C   UNL     1      44.886   8.269  11.611  0.00  0.00    +0.000 A 
ATOM     21  C   UNL     1      44.106   7.170  11.219  0.00  0.00    +0.000 A 
BRANCH  14  15
ATOM     15  N   UNL     1      44.466   9.562  11.376  0.00  0.00    +0.000 N 
ATOM     16  C   UNL     1      43.235   9.848  10.630  0.00  0.00    +0.000 C 
ATOM     17  C   UNL     1      43.538  10.731   9.402  0.00  0.00    +0.000 C 
ATOM     18  N   UNL     1      44.266  11.972   9.746  0.00  0.00    +0.000 NA
ATOM     19  C   UNL     1      45.514  11.603  10.454  0.00  0.00    +0.000 C 
ATOM     20  C   UNL     1      45.294  10.725  11.713  0.00  0.00    +0.000 C 
ATOM     27  H   UNL     1      43.685  12.504  10.394  0.00  0.00    +0.000 HD
ENDBRANCH  14  15
ENDBRANCH   9  10
TORSDOF 4
ENDMDL
MODEL 4
REMARK VINA RESULT:    -6.698      4.598      8.469
REMARK INTER + INTRA:          -9.036
REMARK INTER:                  -8.613
REMARK INTRA:                  -0.423
REMARK UNBOUND:                -0.771
REMARK  Name = 
REMARK  4 active torsions:
REMARK  status: ('A' for Active; 'I' for Inactive)
REMARK    1  A    between atoms: C_2  and  C_4
REMARK    2  A    between atoms: N_8  and  C_9
REMARK    3  A    between atoms: C_9  and  C_10
REMARK    4  A    between atoms: C_14  and  N_15
REMARK                            x       y       z     vdW  Elec       q    Type
REMARK                         _______ _______ _______ _____ _____    ______ ____
ROOT
ATOM      9  C   UNL     1      46.601   4.551  13.773  0.00  0.00    +0.000 C 
ENDROOT
BRANCH   9   8
ATOM      4  C   UNL     1      49.035   4.529  18.283  0.00  0.00    +0.000 A 
ATOM      5  C   UNL     1      49.061   5.479  17.269  0.00  0.00    +0.000 A 
ATOM      6  C   UNL     1      48.192   5.342  16.188  0.00  0.00    +0.000 A 
ATOM      7  C   UNL     1      47.331   4.252  16.122  0.00  0.00    +0.000 A 
ATOM      8  N   UNL     1      46.396   4.086  15.130  0.00  0.00    +0.000 N 
ATOM     22  N   UNL     1      47.308   3.320  17.098  0.00  0.00    +0.000 NA
ATOM     23  C   UNL     1      48.159   3.467  18.146  0.00  0.00    +0.000 A 
ATOM     26  H   UNL     1      45.963   3.175  15.233  0.00  0.00    +0.000 HD
BRANCH   4   2
ATOM      1  N   UNL     1      49.364   4.253  20.672  0.00  0.00    +0.000 N 
ATOM      2  C   UNL     1      49.909   4.617  19.471  0.00  0.00    +0.000 C 
ATOM      3  O   UNL     1      51.078   4.970  19.384  0.00  0.00    +0.000 OA
ATOM     24  H   UNL     1      49.993   4.226  21.464  0.00  0.00    +0.000 HD
ATOM     25  H   UNL     1      48.504   3.725  20.742  0.00  0.00    +0.000 HD
ENDBRANCH   4   2
ENDBRANCH   9   8
BRANCH   9  10
ATOM     10  C   UNL     1      45.384   4.404  12.892  0.00  0.00    +0.000 A 
ATOM     11  C   UNL     1      44.176   5.020  13.238  0.00  0.00    +0.000 A 
ATOM     12  C   UNL     1      43.120   5.038  12.334  0.00  0.00    +0.000 A 
ATOM     13  C   UNL     1      43.272   4.467  11.070  0.00  0.00    +0.000 A 
ATOM     14  C   UNL     1      44.464   3.837  10.683  0.00  0.00    +0.000 A 
ATOM     21  C   UNL     1      45.494   3.779  11.634  0.00  0.00    +0.000 A 
BRANCH  14  15
ATOM     15  N   UNL     1      44.647   3.355   9.403  0.00  0.00    +0.000 N 
ATOM     16  C   UNL     1      44.676   1.915   9.119  0.00  0.00    +0.000 C 
ATOM     17  C   UNL     1      46.003   1.524   8.437  0.00  0.00    +0.000 C 
ATOM     18  N   UNL     1      46.291   2.323   7.226  0.00  0.00    +0.000 NA
ATOM     19  C   UNL     1      46.289   3.757   7.598  0.00  0.00    +0.000 C 
ATOM     20  C   UNL     1      44.979   4.236   8.278  0.00  0.00    +0.000 C 
ATOM     27  H   UNL     1      45.528   2.172   6.565  0.00  0.00    +0.000 HD
ENDBRANCH  14  15
ENDBRANCH   9  10
TORSDOF 4
ENDMDL
MODEL 5
REMARK VINA RESULT:    -6.524      2.929      6.971
REMARK INTER + INTRA:          -8.820
REMARK INTER:                  -8.159
REMARK INTRA:                  -0.661
REMARK UNBOUND:                -0.771
REMARK  Name = 
REMARK  4 active torsions:
REMARK  status: ('A' for Active; 'I' for Inactive)
REMARK    1  A    between atoms: C_2  and  C_4
REMARK    2  A    between atoms: N_8  and  C_9
REMARK    3  A    between atoms: C_9  and  C_10
REMARK    4  A    between atoms: C_14  and  N_15
REMARK                            x       y       z     vdW  Elec       q    Type
REMARK                         _______ _______ _______ _____ _____    ______ ____
ROOT
ATOM      9  C   UNL     1      45.007   6.976  12.293  0.00  0.00    +0.000 C 
ENDROOT
BRANCH   9   8
ATOM      4  C   UNL     1      50.013   7.999  12.682  0.00  0.00    +0.000 A 
ATOM      5  C   UNL     1      49.103   8.397  11.711  0.00  0.00    +0.000 A 
ATOM      6  C   UNL     1      47.749   8.120  11.895  0.00  0.00    +0.000 A 
ATOM      7  C   UNL     1      47.328   7.434  13.029  0.00  0.00    +0.000 A 
ATOM      8  N   UNL     1      46.007   7.190  13.318  0.00  0.00    +0.000 N 
ATOM     22  N   UNL     1      48.207   7.036  13.971  0.00  0.00    +0.000 NA
ATOM     23  C   UNL     1      49.523   7.314  13.780  0.00  0.00    +0.000 A 
ATOM     26  H   UNL     1      45.953   6.588  14.132  0.00  0.00    +0.000 HD
BRANCH   4   2
ATOM      1  N   UNL     1      52.234   7.994  13.662  0.00  0.00    +0.000 N 
ATOM      2  C   UNL     1      51.460   8.276  12.570  0.00  0.00    +0.000 C 
ATOM      3  O   UNL     1      51.953   8.708  11.536  0.00  0.00    +0.000 OA
ATOM     24  H   UNL     1      53.234   8.097  13.547  0.00  0.00    +0.000 HD
ATOM     25  H   UNL     1      51.910   7.410  14.422  0.00  0.00    +0.000 HD
ENDBRANCH   4   2
ENDBRANCH   9   8
BRANCH   9  10
ATOM     10  C   UNL     1      44.725   5.519  12.017  0.00  0.00    +0.000 A 
ATOM     11  C   UNL     1      43.959   4.760  12.910  0.00  0.00    +0.000 A 
ATOM     12  C   UNL     1      43.547   3.479  12.559  0.00  0.00    +0.000 A 
ATOM     13  C   UNL     1      43.872   2.959  11.307  0.00  0.00    +0.000 A 
ATOM     14  C   UNL     1      44.639   3.683  10.382  0.00  0.00    +0.000 A 
ATOM     21  C   UNL     1      45.094   4.949  10.783  0.00  0.00    +0.000 A 
BRANCH  14  15
ATOM     15  N   UNL     1      44.881   3.207   9.110  0.00  0.00    +0.000 N 
ATOM     16  C   UNL     1      44.947   1.768   8.826  0.00  0.00    +0.000 C 
ATOM     17  C   UNL     1      46.307   1.403   8.197  0.00  0.00    +0.000 C 
ATOM     18  N   UNL     1      46.627   2.209   6.999  0.00  0.00    +0.000 NA
ATOM     19  C   UNL     1      46.585   3.642   7.371  0.00  0.00    +0.000 C 
ATOM     20  C   UNL     1      45.241   4.095   8.000  0.00  0.00    +0.000 C 
ATOM     27  H   UNL     1      45.894   2.045   6.308  0.00  0.00    +0.000 HD
ENDBRANCH  14  15
ENDBRANCH   9  10
TORSDOF 4
ENDMDL
MODEL 6
REMARK VINA RESULT:    -6.298      3.975      6.535
REMARK INTER + INTRA:          -8.542
REMARK INTER:                  -7.814
REMARK INTRA:                  -0.728
REMARK UNBOUND:                -0.771
REMARK  Name = 
REMARK  4 active torsions:
REMARK  status: ('A' for Active; 'I' for Inactive)
REMARK    1  A    between atoms: C_2  and  C_4
REMARK    2  A    between atoms: N_8  and  C_9
REMARK    3  A    between atoms: C_9  and  C_10
REMARK    4  A    between atoms: C_14  and  N_15
REMARK                            x       y       z     vdW  Elec       q    Type
REMARK                         _______ _______ _______ _____ _____    ______ ____
ROOT
ATOM      9  C   UNL     1      48.162   7.900  13.655  0.00  0.00    +0.000 C 
ENDROOT
BRANCH   9   8
ATOM      4  C   UNL     1      44.770   4.407  12.057  0.00  0.00    +0.000 A 
ATOM      5  C   UNL     1      45.901   4.243  12.847  0.00  0.00    +0.000 A 
ATOM      6  C   UNL     1      46.595   5.371  13.282  0.00  0.00    +0.000 A 
ATOM      7  C   UNL     1      46.165   6.640  12.905  0.00  0.00    +0.000 A 
ATOM      8  N   UNL     1      46.750   7.799  13.352  0.00  0.00    +0.000 N 
ATOM     22  N   UNL     1      45.074   6.805  12.129  0.00  0.00    +0.000 NA
ATOM     23  C   UNL     1      44.407   5.697  11.715  0.00  0.00    +0.000 A 
ATOM     26  H   UNL     1      46.337   8.587  12.863  0.00  0.00    +0.000 HD
BRANCH   4   2
ATOM      1  N   UNL     1      43.637   2.306  12.496  0.00  0.00    +0.000 N 
ATOM      2  C   UNL     1      43.970   3.262  11.576  0.00  0.00    +0.000 C 
ATOM      3  O   UNL     1      43.592   3.185  10.414  0.00  0.00    +0.000 OA
ATOM     24  H   UNL     1      43.012   1.574  12.183  0.00  0.00    +0.000 HD
ATOM     25  H   UNL     1      43.710   2.461  13.493  0.00  0.00    +0.000 HD
ENDBRANCH   4   2
ENDBRANCH   9   8
BRANCH   9  10
ATOM     10  C   UNL     1      48.462   7.963  15.133  0.00  0.00    +0.000 A 
ATOM     11  C   UNL     1      48.163   9.113  15.873  0.00  0.00    +0.000 A 
ATOM     12  C   UNL     1      48.265   9.096  17.259  0.00  0.00    +0.000 A 
ATOM     13  C   UNL     1      48.639   7.925  17.918  0.00  0.00    +0.000 A 
ATOM     14  C   UNL     1      48.950   6.750  17.217  0.00  0.00    +0.000 A 
ATOM     21  C   UNL     1      48.897   6.810  15.816  0.00  0.00    +0.000 A 
BRANCH  14  15
ATOM     15  N   UNL     1      49.228   5.568  17.871  0.00  0.00    +0.000 N 
ATOM     16  C   UNL     1      48.974   4.264  17.246  0.00  0.00    +0.000 C 
ATOM     17  C   UNL     1      48.023   3.421  18.119  0.00  0.00    +0.000 C 
ATOM     18  N   UNL     1      48.493   3.273  19.514  0.00  0.00    +0.000 NA
ATOM     19  C   UNL     1      48.683   4.625  20.091  0.00  0.00    +0.000 C 
ATOM     20  C   UNL     1      49.642   5.533  19.278  0.00  0.00    +0.000 C 
ATOM     27  H   UNL     1      49.404   2.814  19.488  0.00  0.00    +0.000 HD
ENDBRANCH  14  15
ENDBRANCH   9  10
TORSDOF 4
ENDMDL
MODEL 7
REMARK VINA RESULT:    -6.144      4.906      8.651
REMARK INTER + INTRA:          -8.351
REMARK INTER:                  -7.853
REMARK INTRA:                  -0.498
REMARK UNBOUND:                -0.771
REMARK  Name = 
REMARK  4 active torsions:
REMARK  status: ('A' for Active; 'I' for Inactive)
REMARK    1  A    between atoms: C_2  and  C_4
REMARK    2  A    between atoms: N_8  and  C_9
REMARK    3  A    between atoms: C_9  and  C_10
REMARK    4  A    between atoms: C_14  and  N_15
REMARK                            x       y       z     vdW  Elec       q    Type
REMARK                         _______ _______ _______ _____ _____    ______ ____
ROOT
ATOM      9  C   UNL     1      47.961   6.620  14.028  0.00  0.00    +0.000 C 
ENDROOT
BRANCH   9   8
ATOM      4  C   UNL     1      49.674   5.314  18.679  0.00  0.00    +0.000 A 
ATOM      5  C   UNL     1      49.505   6.576  18.121  0.00  0.00    +0.000 A 
ATOM      6  C   UNL     1      48.877   6.692  16.882  0.00  0.00    +0.000 A 
ATOM      7  C   UNL     1      48.447   5.552  16.210  0.00  0.00    +0.000 A 
ATOM      8  N   UNL     1      47.755   5.590  15.025  0.00  0.00    +0.000 N 
ATOM     22  N   UNL     1      48.617   4.324  16.742  0.00  0.00    +0.000 NA
ATOM     23  C   UNL     1      49.230   4.225  17.950  0.00  0.00    +0.000 A 
ATOM     26  H   UNL     1      47.645   4.643  14.677  0.00  0.00    +0.000 HD
BRANCH   4   2
ATOM      1  N   UNL     1      49.613   4.378  20.917  0.00  0.00    +0.000 N 
ATOM      2  C   UNL     1      50.310   5.112  19.997  0.00  0.00    +0.000 C 
ATOM      3  O   UNL     1      51.425   5.552  20.246  0.00  0.00    +0.000 OA
ATOM     24  H   UNL     1      50.093   4.164  21.782  0.00  0.00    +0.000 HD
ATOM     25  H   UNL     1      48.824   3.796  20.666  0.00  0.00    +0.000 HD
ENDBRANCH   4   2
ENDBRANCH   9   8
BRANCH   9  10
ATOM     10  C   UNL     1      46.720   6.952  13.235  0.00  0.00    +0.000 A 
ATOM     11  C   UNL     1      46.505   8.250  12.757  0.00  0.00    +0.000 A 
ATOM     12  C   UNL     1      45.463   8.502  11.873  0.00  0.00    +0.000 A 
ATOM     13  C   UNL     1      44.647   7.458  11.438  0.00  0.00    +0.000 A 
ATOM     14  C   UNL     1      44.824   6.143  11.893  0.00  0.00    +0.000 A 
ATOM     21  C   UNL     1      45.845   5.924  12.831  0.00  0.00    +0.000 A 
BRANCH  14  15
ATOM     15  N   UNL     1      44.078   5.096  11.393  0.00  0.00    +0.000 N 
ATOM     16  C   UNL     1      43.145   4.342  12.239  0.00  0.00    +0.000 C 
ATOM     17  C   UNL     1      43.504   2.842  12.238  0.00  0.00    +0.000 C 
ATOM     18  N   UNL     1      43.590   2.267  10.878  0.00  0.00    +0.000 NA
ATOM     19  C   UNL     1      44.579   3.049  10.099  0.00  0.00    +0.000 C 
ATOM     20  C   UNL     1      44.281   4.570  10.039  0.00  0.00    +0.000 C 
ATOM     27  H   UNL     1      42.680   2.385  10.432  0.00  0.00    +0.000 HD
ENDBRANCH  14  15
ENDBRANCH   9  10
TORSDOF 4
ENDMDL
MODEL 8
REMARK VINA RESULT:    -6.114      4.265      7.761
REMARK INTER + INTRA:          -8.314
REMARK INTER:                  -7.672
REMARK INTRA:                  -0.643
REMARK UNBOUND:                -0.771
REMARK  Name = 
REMARK  4 active torsions:
REMARK  status: ('A' for Active; 'I' for Inactive)
REMARK    1  A    between atoms: C_2  and  C_4
REMARK    2  A    between atoms: N_8  and  C_9
REMARK    3  A    between atoms: C_9  and  C_10
REMARK    4  A    between atoms: C_14  and  N_15
REMARK                            x       y       z     vdW  Elec       q    Type
REMARK                         _______ _______ _______ _____ _____    ______ ____
ROOT
ATOM      9  C   UNL     1      46.075   9.532  12.482  0.00  0.00    +0.000 C 
ENDROOT
BRANCH   9   8
ATOM      4  C   UNL     1      42.475  11.872   9.683  0.00  0.00    +0.000 A 
ATOM      5  C   UNL     1      43.589  11.152   9.268  0.00  0.00    +0.000 A 
ATOM      6  C   UNL     1      44.351  10.472  10.217  0.00  0.00    +0.000 A 
ATOM      7  C   UNL     1      44.006  10.539  11.563  0.00  0.00    +0.000 A 
ATOM      8  N   UNL     1      44.661   9.838  12.546  0.00  0.00    +0.000 N 
ATOM     22  N   UNL     1      42.932  11.244  11.974  0.00  0.00    +0.000 NA
ATOM     23  C   UNL     1      42.198  11.900  11.039  0.00  0.00    +0.000 A 
ATOM     26  H   UNL     1      44.303  10.127  13.451  0.00  0.00    +0.000 HD
BRANCH   4   2
ATOM      1  N   UNL     1      42.136  12.902   7.512  0.00  0.00    +0.000 N 
ATOM      2  C   UNL     1      41.606  12.599   8.736  0.00  0.00    +0.000 C 
ATOM      3  O   UNL     1      40.451  12.891   9.019  0.00  0.00    +0.000 OA
ATOM     24  H   UNL     1      41.507  13.316   6.836  0.00  0.00    +0.000 HD
ATOM     25  H   UNL     1      42.976  12.462   7.158  0.00  0.00    +0.000 HD
ENDBRANCH   4   2
ENDBRANCH   9   8
BRANCH   9  10
ATOM     10  C   UNL     1      46.376   8.054  12.503  0.00  0.00    +0.000 A 
ATOM     11  C   UNL     1      47.371   7.540  13.343  0.00  0.00    +0.000 A 
ATOM     12  C   UNL     1      47.513   6.166  13.496  0.00  0.00    +0.000 A 
ATOM     13  C   UNL     1      46.647   5.296  12.833  0.00  0.00    +0.000 A 
ATOM     14  C   UNL     1      45.638   5.766  11.979  0.00  0.00    +0.000 A 
ATOM     21  C   UNL     1      45.553   7.155  11.795  0.00  0.00    +0.000 A 
BRANCH  14  15
ATOM     15  N   UNL     1      44.723   4.912  11.398  0.00  0.00    +0.000 N 
ATOM     16  C   UNL     1      43.549   4.426  12.134  0.00  0.00    +0.000 C 
ATOM     17  C   UNL     1      43.537   2.885  12.176  0.00  0.00    +0.000 C 
ATOM     18  N   UNL     1      43.634   2.266  10.836  0.00  0.00    +0.000 NA
ATOM     19  C   UNL     1      44.861   2.768  10.175  0.00  0.00    +0.000 C 
ATOM     20  C   UNL     1      44.944   4.314  10.078  0.00  0.00    +0.000 C 
ATOM     27  H   UNL     1      42.833   2.583  10.288  0.00  0.00    +0.000 HD
ENDBRANCH  14  15
ENDBRANCH   9  10
TORSDOF 4
ENDMDL
MODEL 9
REMARK VINA RESULT:    -5.637      5.625      9.606
REMARK INTER + INTRA:          -7.726
REMARK INTER:                  -7.190
REMARK INTRA:                  -0.537
REMARK UNBOUND:                -0.771
REMARK  Name = 
REMARK  4 active torsions:
REMARK  status: ('A' for Active; 'I' for Inactive)
REMARK    1  A    between atoms: C_2  and  C_4
REMARK    2  A    between atoms: N_8  and  C_9
REMARK    3  A    between atoms: C_9  and  C_10
REMARK    4  A    between atoms: C_14  and  N_15
REMARK                            x       y       z     vdW  Elec       q    Type
REMARK                         _______ _______ _______ _____ _____    ______ ____
ROOT
ATOM      9  C   UNL     1      47.732   4.666  15.884  0.00  0.00    +0.000 C 
ENDROOT
BRANCH   9   8
ATOM      4  C   UNL     1      48.089   7.355  20.233  0.00  0.00    +0.000 A 
ATOM      5  C   UNL     1      47.300   6.250  19.939  0.00  0.00    +0.000 A 
ATOM      6  C   UNL     1      47.483   5.587  18.727  0.00  0.00    +0.000 A 
ATOM      7  C   UNL     1      48.431   6.048  17.818  0.00  0.00    +0.000 A 
ATOM      8  N   UNL     1      48.721   5.407  16.639  0.00  0.00    +0.000 N 
ATOM     22  N   UNL     1      49.194   7.127  18.093  0.00  0.00    +0.000 NA
ATOM     23  C   UNL     1      49.005   7.762  19.278  0.00  0.00    +0.000 A 
ATOM     26  H   UNL     1      49.361   5.981  16.100  0.00  0.00    +0.000 HD
BRANCH   4   2
ATOM      1  N   UNL     1      49.124   8.593  22.046  0.00  0.00    +0.000 N 
ATOM      2  C   UNL     1      47.970   8.096  21.505  0.00  0.00    +0.000 C 
ATOM      3  O   UNL     1      46.884   8.287  22.038  0.00  0.00    +0.000 OA
ATOM     24  H   UNL     1      49.025   9.177  22.866  0.00  0.00    +0.000 HD
ATOM     25  H   UNL     1      49.982   8.675  21.516  0.00  0.00    +0.000 HD
ENDBRANCH   4   2
ENDBRANCH   9   8
BRANCH   9  10
ATOM     10  C   UNL     1      47.309   5.349  14.607  0.00  0.00    +0.000 A 
ATOM     11  C   UNL     1      48.103   6.351  14.037  0.00  0.00    +0.000 A 
ATOM     12  C   UNL     1      47.805   6.839  12.770  0.00  0.00    +0.000 A 
ATOM     13  C   UNL     1      46.731   6.313  12.053  0.00  0.00    +0.000 A 
ATOM     14  C   UNL     1      45.906   5.311  12.586  0.00  0.00    +0.000 A 
ATOM     21  C   UNL     1      46.191   4.877  13.890  0.00  0.00    +0.000 A 
BRANCH  14  15
ATOM     15  N   UNL     1      44.903   4.726  11.842  0.00  0.00    +0.000 N 
ATOM     16  C   UNL     1      43.683   4.205  12.470  0.00  0.00    +0.000 C 
ATOM     17  C   UNL     1      43.501   2.709  12.142  0.00  0.00    +0.000 C 
ATOM     18  N   UNL     1      43.528   2.426  10.690  0.00  0.00    +0.000 NA
ATOM     19  C   UNL     1      44.802   2.939  10.135  0.00  0.00    +0.000 C 
ATOM     20  C   UNL     1      45.055   4.444  10.411  0.00  0.00    +0.000 C 
ATOM     27  H   UNL     1      42.766   2.950  10.256  0.00  0.00    +0.000 HD
ENDBRANCH  14  15
ENDBRANCH   9  10
TORSDOF 4
ENDMDL
