MODEL 1
REMARK VINA RESULT:    -9.990      0.000      0.000
REMARK INTER + INTRA:         -14.317
REMARK INTER:                 -13.494
REMARK INTRA:                  -0.823
REMARK UNBOUND:                -0.823
REMARK  Name = 
REMARK  6 active torsions:
REMARK  status: ('A' for Active; 'I' for Inactive)
REMARK    1  A    between atoms: C_2  and  C_4
REMARK    2  A    between atoms: N_8  and  C_9
REMARK    3  A    between atoms: C_9  and  C_10
REMARK    4  A    between atoms: C_10  and  C_13
REMARK    5  A    between atoms: C_17  and  O_18
REMARK    6  A    between atoms: O_18  and  C_19
REMARK                            x       y       z     vdW  Elec       q    Type
REMARK                         _______ _______ _______ _____ _____    ______ ____
ROOT
ATOM      1  C   UNL     1      43.313   4.372  11.168  0.00  0.00    +0.000 C 
ENDROOT
BRANCH   1   6
ATOM      2  C   UNL     1      46.526   2.549   7.682  0.00  0.00    +0.000 A 
ATOM      3  C   UNL     1      45.663   1.875   8.536  0.00  0.00    +0.000 A 
ATOM      4  C   UNL     1      44.741   2.609   9.285  0.00  0.00    +0.000 A 
ATOM      5  C   UNL     1      44.700   3.997   9.178  0.00  0.00    +0.000 A 
ATOM      6  N   UNL     1      43.746   4.773   9.820  0.00  0.00    +0.000 N 
ATOM      7  N   UNL     1      45.556   4.661   8.377  0.00  0.00    +0.000 NA
ATOM      8  C   UNL     1      46.452   3.934   7.658  0.00  0.00    +0.000 A 
ATOM      9  H   UNL     1      43.992   5.754   9.705  0.00  0.00    +0.000 HD
BRANCH   2  11
ATOM     10  N   UNL     1      48.587   2.564   6.402  0.00  0.00    +0.000 N 
ATOM     11  C   UNL     1      47.499   1.848   6.822  0.00  0.00    +0.000 C 
ATOM     12  O   UNL     1      47.360   0.670   6.522  0.00  0.00    +0.000 OA
ATOM     13  H   UNL     1      49.302   2.047   5.900  0.00  0.00    +0.000 HD
ATOM     14  H   UNL     1      48.865   3.435   6.835  0.00  0.00    +0.000 HD
ENDBRANCH   2  11
ENDBRANCH   1   6
BRANCH   1  15
ATOM     15  C   UNL     1      43.487   5.461  12.255  0.00  0.00    +0.000 C 
ATOM     16  F   UNL     1      43.104   6.664  11.725  0.00  0.00    +0.000 F 
ATOM     17  F   UNL     1      42.610   5.223  13.277  0.00  0.00    +0.000 F 
BRANCH  15  18
ATOM     18  C   UNL     1      44.931   5.494  12.758  0.00  0.00    +0.000 A 
ATOM     19  C   UNL     1      45.736   6.592  12.456  0.00  0.00    +0.000 A 
ATOM     20  C   UNL     1      47.065   6.590  12.877  0.00  0.00    +0.000 A 
ATOM     21  C   UNL     1      47.555   5.505  13.597  0.00  0.00    +0.000 A 
ATOM     22  C   UNL     1      46.680   4.479  13.899  0.00  0.00    +0.000 A 
ATOM     23  N   UNL     1      45.395   4.446  13.496  0.00  0.00    +0.000 NA
BRANCH  22  24
ATOM     24  O   UNL     1      47.158   3.442  14.675  0.00  0.00    +0.000 OA
BRANCH  24  25
ATOM     25  C   UNL     1      47.541   3.800  16.017  0.00  0.00    +0.000 C 
ATOM     26  C   UNL     1      48.547   2.875  16.723  0.00  0.00    +0.000 C 
ATOM     27  C   UNL     1      47.516   2.826  17.839  0.00  0.00    +0.000 C 
ATOM     28  O   UNL     1      46.522   3.465  17.005  0.00  0.00    +0.000 OA
ENDBRANCH  24  25
ENDBRANCH  22  24
ENDBRANCH  15  18
ENDBRANCH   1  15
TORSDOF 6
ENDMDL
MODEL 2
REMARK VINA RESULT:    -8.911      2.233      3.580
REMARK INTER + INTRA:         -12.860
REMARK INTER:                 -11.798
REMARK INTRA:                  -1.062
REMARK UNBOUND:                -0.823
REMARK  Name = 
REMARK  6 active torsions:
REMARK  status: ('A' for Active; 'I' for Inactive)
REMARK    1  A    between atoms: C_2  and  C_4
REMARK    2  A    between atoms: N_8  and  C_9
REMARK    3  A    between atoms: C_9  and  C_10
REMARK    4  A    between atoms: C_10  and  C_13
REMARK    5  A    between atoms: C_17  and  O_18
REMARK    6  A    between atoms: O_18  and  C_19
REMARK                            x       y       z     vdW  Elec       q    Type
REMARK                         _______ _______ _______ _____ _____    ______ ____
ROOT
ATOM      1  C   UNL     1      43.272   4.435  11.108  0.00  0.00    +0.000 C 
ENDROOT
BRANCH   1   6
ATOM      2  C   UNL     1      46.490   2.488   7.693  0.00  0.00    +0.000 A 
ATOM      3  C   UNL     1      45.647   1.845   8.591  0.00  0.00    +0.000 A 
ATOM      4  C   UNL     1      44.718   2.600   9.308  0.00  0.00    +0.000 A 
ATOM      5  C   UNL     1      44.648   3.980   9.127  0.00  0.00    +0.000 A 
ATOM      6  N   UNL     1      43.685   4.770   9.736  0.00  0.00    +0.000 N 
ATOM      7  N   UNL     1      45.483   4.615   8.283  0.00  0.00    +0.000 NA
ATOM      8  C   UNL     1      46.387   3.868   7.595  0.00  0.00    +0.000 A 
ATOM      9  H   UNL     1      43.911   5.748   9.565  0.00  0.00    +0.000 HD
BRANCH   2  11
ATOM     10  N   UNL     1      48.552   2.466   6.418  0.00  0.00    +0.000 N 
ATOM     11  C   UNL     1      47.468   1.761   6.863  0.00  0.00    +0.000 C 
ATOM     12  O   UNL     1      47.337   0.571   6.608  0.00  0.00    +0.000 OA
ATOM     13  H   UNL     1      49.271   1.935   5.937  0.00  0.00    +0.000 HD
ATOM     14  H   UNL     1      48.824   3.355   6.817  0.00  0.00    +0.000 HD
ENDBRANCH   2  11
ENDBRANCH   1   6
BRANCH   1  15
ATOM     15  C   UNL     1      43.516   5.555  12.150  0.00  0.00    +0.000 C 
ATOM     16  F   UNL     1      43.068   6.737  11.625  0.00  0.00    +0.000 F 
ATOM     17  F   UNL     1      42.732   5.329  13.247  0.00  0.00    +0.000 F 
BRANCH  15  18
ATOM     18  C   UNL     1      44.996   5.625  12.529  0.00  0.00    +0.000 A 
ATOM     19  C   UNL     1      45.472   4.842  13.580  0.00  0.00    +0.000 A 
ATOM     20  C   UNL     1      46.812   4.951  13.949  0.00  0.00    +0.000 A 
ATOM     21  C   UNL     1      47.645   5.822  13.257  0.00  0.00    +0.000 A 
ATOM     22  C   UNL     1      47.111   6.526  12.194  0.00  0.00    +0.000 A 
ATOM     23  N   UNL     1      45.818   6.452  11.821  0.00  0.00    +0.000 NA
BRANCH  22  24
ATOM     24  O   UNL     1      47.964   7.332  11.470  0.00  0.00    +0.000 OA
BRANCH  24  25
ATOM     25  C   UNL     1      48.443   8.503  12.160  0.00  0.00    +0.000 C 
ATOM     26  C   UNL     1      47.385   9.519  12.623  0.00  0.00    +0.000 C 
ATOM     27  C   UNL     1      48.232  10.539  11.877  0.00  0.00    +0.000 C 
ATOM     28  O   UNL     1      49.018   9.495  11.259  0.00  0.00    +0.000 OA
ENDBRANCH  24  25
ENDBRANCH  22  24
ENDBRANCH  15  18
ENDBRANCH   1  15
TORSDOF 6
ENDMDL
MODEL 3
REMARK VINA RESULT:    -8.647      3.078      4.702
REMARK INTER + INTRA:         -12.503
REMARK INTER:                 -11.330
REMARK INTRA:                  -1.173
REMARK UNBOUND:                -0.823
REMARK  Name = 
REMARK  6 active torsions:
REMARK  status: ('A' for Active; 'I' for Inactive)
REMARK    1  A    between atoms: C_2  and  C_4
REMARK    2  A    between atoms: N_8  and  C_9
REMARK    3  A    between atoms: C_9  and  C_10
REMARK    4  A    between atoms: C_10  and  C_13
REMARK    5  A    between atoms: C_17  and  O_18
REMARK    6  A    between atoms: O_18  and  C_19
REMARK                            x       y       z     vdW  Elec       q    Type
REMARK                         _______ _______ _______ _____ _____    ______ ____
ROOT
ATOM      1  C   UNL     1      43.354   4.284  11.177  0.00  0.00    +0.000 C 
ENDROOT
BRANCH   1   6
ATOM      2  C   UNL     1      46.587   2.769   7.563  0.00  0.00    +0.000 A 
ATOM      3  C   UNL     1      45.706   2.026   8.339  0.00  0.00    +0.000 A 
ATOM      4  C   UNL     1      44.784   2.694   9.146  0.00  0.00    +0.000 A 
ATOM      5  C   UNL     1      44.759   4.087   9.174  0.00  0.00    +0.000 A 
ATOM      6  N   UNL     1      43.807   4.808   9.879  0.00  0.00    +0.000 N 
ATOM      7  N   UNL     1      45.631   4.814   8.450  0.00  0.00    +0.000 NA
ATOM      8  C   UNL     1      46.528   4.150   7.673  0.00  0.00    +0.000 A 
ATOM      9  H   UNL     1      44.065   5.792   9.862  0.00  0.00    +0.000 HD
BRANCH   2  11
ATOM     10  N   UNL     1      47.982   2.889   5.582  0.00  0.00    +0.000 N 
ATOM     11  C   UNL     1      47.561   2.143   6.649  0.00  0.00    +0.000 C 
ATOM     12  O   UNL     1      48.002   1.019   6.851  0.00  0.00    +0.000 OA
ATOM     13  H   UNL     1      48.728   2.493   5.019  0.00  0.00    +0.000 HD
ATOM     14  H   UNL     1      47.847   3.890   5.532  0.00  0.00    +0.000 HD
ENDBRANCH   2  11
ENDBRANCH   1   6
BRANCH   1  15
ATOM     15  C   UNL     1      44.392   4.400  12.320  0.00  0.00    +0.000 C 
ATOM     16  F   UNL     1      43.728   4.321  13.515  0.00  0.00    +0.000 F 
ATOM     17  F   UNL     1      45.216   3.309  12.294  0.00  0.00    +0.000 F 
BRANCH  15  18
ATOM     18  C   UNL     1      45.187   5.700  12.196  0.00  0.00    +0.000 A 
ATOM     19  C   UNL     1      46.580   5.649  12.138  0.00  0.00    +0.000 A 
ATOM     20  C   UNL     1      47.296   6.843  12.075  0.00  0.00    +0.000 A 
ATOM     21  C   UNL     1      46.612   8.053  12.058  0.00  0.00    +0.000 A 
ATOM     22  C   UNL     1      45.231   8.019  12.067  0.00  0.00    +0.000 A 
ATOM     23  N   UNL     1      44.510   6.883  12.140  0.00  0.00    +0.000 NA
BRANCH  22  24
ATOM     24  O   UNL     1      44.562   9.222  11.977  0.00  0.00    +0.000 OA
BRANCH  24  25
ATOM     25  C   UNL     1      43.982   9.513  10.690  0.00  0.00    +0.000 C 
ATOM     26  C   UNL     1      43.803  10.996  10.327  0.00  0.00    +0.000 C 
ATOM     27  C   UNL     1      42.357  10.616  10.049  0.00  0.00    +0.000 C 
ATOM     28  O   UNL     1      42.537   9.319  10.663  0.00  0.00    +0.000 OA
ENDBRANCH  24  25
ENDBRANCH  22  24
ENDBRANCH  15  18
ENDBRANCH   1  15
TORSDOF 6
ENDMDL
MODEL 4
REMARK VINA RESULT:    -8.581      1.839      2.345
REMARK INTER + INTRA:         -12.414
REMARK INTER:                 -11.480
REMARK INTRA:                  -0.934
REMARK UNBOUND:                -0.823
REMARK  Name = 
REMARK  6 active torsions:
REMARK  status: ('A' for Active; 'I' for Inactive)
REMARK    1  A    between atoms: C_2  and  C_4
REMARK    2  A    between atoms: N_8  and  C_9
REMARK    3  A    between atoms: C_9  and  C_10
REMARK    4  A    between atoms: C_10  and  C_13
REMARK    5  A    between atoms: C_17  and  O_18
REMARK    6  A    between atoms: O_18  and  C_19
REMARK                            x       y       z     vdW  Elec       q    Type
REMARK                         _______ _______ _______ _____ _____    ______ ____
ROOT
ATOM      1  C   UNL     1      43.227   4.644  10.936  0.00  0.00    +0.000 C 
ENDROOT
BRANCH   1   6
ATOM      2  C   UNL     1      46.468   2.395   7.735  0.00  0.00    +0.000 A 
ATOM      3  C   UNL     1      45.523   1.835   8.586  0.00  0.00    +0.000 A 
ATOM      4  C   UNL     1      44.619   2.673   9.240  0.00  0.00    +0.000 A 
ATOM      5  C   UNL     1      44.676   4.052   9.046  0.00  0.00    +0.000 A 
ATOM      6  N   UNL     1      43.748   4.927   9.589  0.00  0.00    +0.000 N 
ATOM      7  N   UNL     1      45.610   4.605   8.249  0.00  0.00    +0.000 NA
ATOM      8  C   UNL     1      46.488   3.777   7.622  0.00  0.00    +0.000 A 
ATOM      9  H   UNL     1      44.065   5.881   9.426  0.00  0.00    +0.000 HD
BRANCH   2  11
ATOM     10  N   UNL     1      48.534   2.218   6.478  0.00  0.00    +0.000 N 
ATOM     11  C   UNL     1      47.430   1.579   6.971  0.00  0.00    +0.000 C 
ATOM     12  O   UNL     1      47.267   0.376   6.809  0.00  0.00    +0.000 OA
ATOM     13  H   UNL     1      49.241   1.631   6.045  0.00  0.00    +0.000 HD
ATOM     14  H   UNL     1      48.829   3.127   6.808  0.00  0.00    +0.000 HD
ENDBRANCH   2  11
ENDBRANCH   1   6
BRANCH   1  15
ATOM     15  C   UNL     1      43.627   5.680  12.016  0.00  0.00    +0.000 C 
ATOM     16  F   UNL     1      43.658   6.919  11.434  0.00  0.00    +0.000 F 
ATOM     17  F   UNL     1      42.640   5.751  12.960  0.00  0.00    +0.000 F 
BRANCH  15  18
ATOM     18  C   UNL     1      44.971   5.312  12.644  0.00  0.00    +0.000 A 
ATOM     19  C   UNL     1      45.296   3.969  12.832  0.00  0.00    +0.000 A 
ATOM     20  C   UNL     1      46.503   3.647  13.451  0.00  0.00    +0.000 A 
ATOM     21  C   UNL     1      47.360   4.664  13.853  0.00  0.00    +0.000 A 
ATOM     22  C   UNL     1      46.991   5.969  13.586  0.00  0.00    +0.000 A 
ATOM     23  N   UNL     1      45.826   6.313  13.002  0.00  0.00    +0.000 NA
BRANCH  22  24
ATOM     24  O   UNL     1      47.882   6.966  13.924  0.00  0.00    +0.000 OA
BRANCH  24  25
ATOM     25  C   UNL     1      48.640   6.736  15.128  0.00  0.00    +0.000 C 
ATOM     26  C   UNL     1      48.767   7.915  16.107  0.00  0.00    +0.000 C 
ATOM     27  C   UNL     1      50.263   7.656  16.017  0.00  0.00    +0.000 C 
ATOM     28  O   UNL     1      50.081   6.753  14.902  0.00  0.00    +0.000 OA
ENDBRANCH  24  25
ENDBRANCH  22  24
ENDBRANCH  15  18
ENDBRANCH   1  15
TORSDOF 6
ENDMDL
MODEL 5
REMARK VINA RESULT:    -8.208      2.726      3.310
REMARK INTER + INTRA:         -11.910
REMARK INTER:                 -11.254
REMARK INTRA:                  -0.656
REMARK UNBOUND:                -0.823
REMARK  Name = 
REMARK  6 active torsions:
REMARK  status: ('A' for Active; 'I' for Inactive)
REMARK    1  A    between atoms: C_2  and  C_4
REMARK    2  A    between atoms: N_8  and  C_9
REMARK    3  A    between atoms: C_9  and  C_10
REMARK    4  A    between atoms: C_10  and  C_13
REMARK    5  A    between atoms: C_17  and  O_18
REMARK    6  A    between atoms: O_18  and  C_19
REMARK                            x       y       z     vdW  Elec       q    Type
REMARK                         _______ _______ _______ _____ _____    ______ ____
ROOT
ATOM      1  C   UNL     1      43.273   4.349  11.182  0.00  0.00    +0.000 C 
ENDROOT
BRANCH   1   6
ATOM      2  C   UNL     1      46.469   2.516   7.685  0.00  0.00    +0.000 A 
ATOM      3  C   UNL     1      45.524   1.857   8.461  0.00  0.00    +0.000 A 
ATOM      4  C   UNL     1      44.634   2.609   9.228  0.00  0.00    +0.000 A 
ATOM      5  C   UNL     1      44.703   4.001   9.218  0.00  0.00    +0.000 A 
ATOM      6  N   UNL     1      43.787   4.804   9.880  0.00  0.00    +0.000 N 
ATOM      7  N   UNL     1      45.637   4.647   8.494  0.00  0.00    +0.000 NA
ATOM      8  C   UNL     1      46.502   3.901   7.756  0.00  0.00    +0.000 A 
ATOM      9  H   UNL     1      44.112   5.768   9.842  0.00  0.00    +0.000 HD
BRANCH   2  11
ATOM     10  N   UNL     1      48.486   2.512   6.337  0.00  0.00    +0.000 N 
ATOM     11  C   UNL     1      47.418   1.800   6.811  0.00  0.00    +0.000 C 
ATOM     12  O   UNL     1      47.278   0.614   6.546  0.00  0.00    +0.000 OA
ATOM     13  H   UNL     1      49.187   1.988   5.824  0.00  0.00    +0.000 HD
ATOM     14  H   UNL     1      48.771   3.396   6.737  0.00  0.00    +0.000 HD
ENDBRANCH   2  11
ENDBRANCH   1   6
BRANCH   1  15
ATOM     15  C   UNL     1      44.311   4.369  12.331  0.00  0.00    +0.000 C 
ATOM     16  F   UNL     1      43.641   4.235  13.519  0.00  0.00    +0.000 F 
ATOM     17  F   UNL     1      45.106   3.260  12.240  0.00  0.00    +0.000 F 
BRANCH  15  18
ATOM     18  C   UNL     1      45.139   5.653  12.287  0.00  0.00    +0.000 A 
ATOM     19  C   UNL     1      44.490   6.886  12.228  0.00  0.00    +0.000 A 
ATOM     20  C   UNL     1      45.256   8.048  12.138  0.00  0.00    +0.000 A 
ATOM     21  C   UNL     1      46.643   7.956  12.123  0.00  0.00    +0.000 A 
ATOM     22  C   UNL     1      47.212   6.701  12.237  0.00  0.00    +0.000 A 
ATOM     23  N   UNL     1      46.500   5.559  12.313  0.00  0.00    +0.000 NA
BRANCH  22  24
ATOM     24  O   UNL     1      48.588   6.628  12.294  0.00  0.00    +0.000 OA
BRANCH  24  25
ATOM     25  C   UNL     1      49.271   7.893  12.390  0.00  0.00    +0.000 C 
ATOM     26  C   UNL     1      50.562   8.050  11.569  0.00  0.00    +0.000 C 
ATOM     27  C   UNL     1      51.192   8.469  12.889  0.00  0.00    +0.000 C 
ATOM     28  O   UNL     1      50.028   8.036  13.628  0.00  0.00    +0.000 OA
ENDBRANCH  24  25
ENDBRANCH  22  24
ENDBRANCH  15  18
ENDBRANCH   1  15
TORSDOF 6
ENDMDL
MODEL 6
REMARK VINA RESULT:    -8.021      2.486      3.087
REMARK INTER + INTRA:         -11.657
REMARK INTER:                 -11.195
REMARK INTRA:                  -0.462
REMARK UNBOUND:                -0.823
REMARK  Name = 
REMARK  6 active torsions:
REMARK  status: ('A' for Active; 'I' for Inactive)
REMARK    1  A    between atoms: C_2  and  C_4
REMARK    2  A    between atoms: N_8  and  C_9
REMARK    3  A    between atoms: C_9  and  C_10
REMARK    4  A    between atoms: C_10  and  C_13
REMARK    5  A    between atoms: C_17  and  O_18
REMARK    6  A    between atoms: O_18  and  C_19
REMARK                            x       y       z     vdW  Elec       q    Type
REMARK                         _______ _______ _______ _____ _____    ______ ____
ROOT
ATOM      1  C   UNL     1      43.436   4.381  11.261  0.00  0.00    +0.000 C 
ENDROOT
BRANCH   1   6
ATOM      2  C   UNL     1      46.503   2.522   7.663  0.00  0.00    +0.000 A 
ATOM      3  C   UNL     1      45.699   1.857   8.580  0.00  0.00    +0.000 A 
ATOM      4  C   UNL     1      44.802   2.593   9.355  0.00  0.00    +0.000 A 
ATOM      5  C   UNL     1      44.725   3.977   9.212  0.00  0.00    +0.000 A 
ATOM      6  N   UNL     1      43.790   4.751   9.881  0.00  0.00    +0.000 N 
ATOM      7  N   UNL     1      45.524   4.634   8.350  0.00  0.00    +0.000 NA
ATOM      8  C   UNL     1      46.398   3.905   7.605  0.00  0.00    +0.000 A 
ATOM      9  H   UNL     1      44.009   5.734   9.726  0.00  0.00    +0.000 HD
BRANCH   2  11
ATOM     10  N   UNL     1      48.544   2.513   6.354  0.00  0.00    +0.000 N 
ATOM     11  C   UNL     1      47.444   1.817   6.773  0.00  0.00    +0.000 C 
ATOM     12  O   UNL     1      47.270   0.650   6.449  0.00  0.00    +0.000 OA
ATOM     13  H   UNL     1      49.238   1.990   5.830  0.00  0.00    +0.000 HD
ATOM     14  H   UNL     1      48.851   3.366   6.802  0.00  0.00    +0.000 HD
ENDBRANCH   2  11
ENDBRANCH   1   6
BRANCH   1  15
ATOM     15  C   UNL     1      42.976   5.562  12.151  0.00  0.00    +0.000 C 
ATOM     16  F   UNL     1      41.787   6.033  11.661  0.00  0.00    +0.000 F 
ATOM     17  F   UNL     1      42.689   5.097  13.404  0.00  0.00    +0.000 F 
BRANCH  15  18
ATOM     18  C   UNL     1      44.045   6.653  12.194  0.00  0.00    +0.000 A 
ATOM     19  C   UNL     1      43.839   7.843  11.496  0.00  0.00    +0.000 A 
ATOM     20  C   UNL     1      44.843   8.811  11.502  0.00  0.00    +0.000 A 
ATOM     21  C   UNL     1      46.017   8.578  12.209  0.00  0.00    +0.000 A 
ATOM     22  C   UNL     1      46.125   7.395  12.917  0.00  0.00    +0.000 A 
ATOM     23  N   UNL     1      45.179   6.436  12.921  0.00  0.00    +0.000 NA
BRANCH  22  24
ATOM     24  O   UNL     1      47.263   7.206  13.673  0.00  0.00    +0.000 OA
BRANCH  24  25
ATOM     25  C   UNL     1      48.433   6.796  12.938  0.00  0.00    +0.000 C 
ATOM     26  C   UNL     1      49.657   7.724  13.005  0.00  0.00    +0.000 C 
ATOM     27  C   UNL     1      49.613   7.673  11.486  0.00  0.00    +0.000 C 
ATOM     28  O   UNL     1      48.314   7.038  11.504  0.00  0.00    +0.000 OA
ENDBRANCH  24  25
ENDBRANCH  22  24
ENDBRANCH  15  18
ENDBRANCH   1  15
TORSDOF 6
ENDMDL
MODEL 7
REMARK VINA RESULT:    -7.682      2.471      7.933
REMARK INTER + INTRA:         -11.200
REMARK INTER:                 -10.668
REMARK INTRA:                  -0.532
REMARK UNBOUND:                -0.823
REMARK  Name = 
REMARK  6 active torsions:
REMARK  status: ('A' for Active; 'I' for Inactive)
REMARK    1  A    between atoms: C_2  and  C_4
REMARK    2  A    between atoms: N_8  and  C_9
REMARK    3  A    between atoms: C_9  and  C_10
REMARK    4  A    between atoms: C_10  and  C_13
REMARK    5  A    between atoms: C_17  and  O_18
REMARK    6  A    between atoms: O_18  and  C_19
REMARK                            x       y       z     vdW  Elec       q    Type
REMARK                         _______ _______ _______ _____ _____    ______ ____
ROOT
ATOM      1  C   UNL     1      46.000   5.887  13.038  0.00  0.00    +0.000 C 
ENDROOT
BRANCH   1   6
ATOM      2  C   UNL     1      48.545   4.463  17.198  0.00  0.00    +0.000 A 
ATOM      3  C   UNL     1      47.523   3.816  16.514  0.00  0.00    +0.000 A 
ATOM      4  C   UNL     1      47.103   4.326  15.284  0.00  0.00    +0.000 A 
ATOM      5  C   UNL     1      47.699   5.472  14.761  0.00  0.00    +0.000 A 
ATOM      6  N   UNL     1      47.394   5.970  13.503  0.00  0.00    +0.000 N 
ATOM      7  N   UNL     1      48.667   6.123  15.433  0.00  0.00    +0.000 NA
ATOM      8  C   UNL     1      49.062   5.619  16.633  0.00  0.00    +0.000 A 
ATOM      9  H   UNL     1      47.846   6.875  13.393  0.00  0.00    +0.000 HD
BRANCH   2  11
ATOM     10  N   UNL     1      48.281   3.121  19.201  0.00  0.00    +0.000 N 
ATOM     11  C   UNL     1      49.080   3.966  18.480  0.00  0.00    +0.000 C 
ATOM     12  O   UNL     1      50.200   4.269  18.870  0.00  0.00    +0.000 OA
ATOM     13  H   UNL     1      48.696   2.703  20.028  0.00  0.00    +0.000 HD
ATOM     14  H   UNL     1      47.482   2.651  18.797  0.00  0.00    +0.000 HD
ENDBRANCH   2  11
ENDBRANCH   1   6
BRANCH   1  15
ATOM     15  C   UNL     1      45.784   6.300  11.562  0.00  0.00    +0.000 C 
ATOM     16  F   UNL     1      44.908   7.352  11.533  0.00  0.00    +0.000 F 
ATOM     17  F   UNL     1      46.954   6.793  11.055  0.00  0.00    +0.000 F 
BRANCH  15  18
ATOM     18  C   UNL     1      45.277   5.115  10.739  0.00  0.00    +0.000 A 
ATOM     19  C   UNL     1      44.517   4.124  11.361  0.00  0.00    +0.000 A 
ATOM     20  C   UNL     1      44.102   3.024  10.613  0.00  0.00    +0.000 A 
ATOM     21  C   UNL     1      44.441   2.942   9.267  0.00  0.00    +0.000 A 
ATOM     22  C   UNL     1      45.153   3.988   8.712  0.00  0.00    +0.000 A 
ATOM     23  N   UNL     1      45.579   5.059   9.410  0.00  0.00    +0.000 NA
BRANCH  22  24
ATOM     24  O   UNL     1      45.422   3.930   7.360  0.00  0.00    +0.000 OA
BRANCH  24  25
ATOM     25  C   UNL     1      46.754   3.504   7.011  0.00  0.00    +0.000 C 
ATOM     26  C   UNL     1      46.938   2.858   5.628  0.00  0.00    +0.000 C 
ATOM     27  C   UNL     1      47.589   1.717   6.396  0.00  0.00    +0.000 C 
ATOM     28  O   UNL     1      47.136   2.255   7.659  0.00  0.00    +0.000 OA
ENDBRANCH  24  25
ENDBRANCH  22  24
ENDBRANCH  15  18
ENDBRANCH   1  15
TORSDOF 6
ENDMDL
MODEL 8
REMARK VINA RESULT:    -7.331      2.824      7.973
REMARK INTER + INTRA:         -10.726
REMARK INTER:                  -9.874
REMARK INTRA:                  -0.852
REMARK UNBOUND:                -0.823
REMARK  Name = 
REMARK  6 active torsions:
REMARK  status: ('A' for Active; 'I' for Inactive)
REMARK    1  A    between atoms: C_2  and  C_4
REMARK    2  A    between atoms: N_8  and  C_9
REMARK    3  A    between atoms: C_9  and  C_10
REMARK    4  A    between atoms: C_10  and  C_13
REMARK    5  A    between atoms: C_17  and  O_18
REMARK    6  A    between atoms: O_18  and  C_19
REMARK                            x       y       z     vdW  Elec       q    Type
REMARK                         _______ _______ _______ _____ _____    ______ ____
ROOT
ATOM      1  C   UNL     1      47.544   5.869  13.213  0.00  0.00    +0.000 C 
ENDROOT
BRANCH   1   6
ATOM      2  C   UNL     1      48.354   4.397  18.007  0.00  0.00    +0.000 A 
ATOM      3  C   UNL     1      48.732   5.566  17.358  0.00  0.00    +0.000 A 
ATOM      4  C   UNL     1      48.233   5.823  16.080  0.00  0.00    +0.000 A 
ATOM      5  C   UNL     1      47.377   4.911  15.466  0.00  0.00    +0.000 A 
ATOM      6  N   UNL     1      46.773   5.153  14.242  0.00  0.00    +0.000 N 
ATOM      7  N   UNL     1      47.033   3.760  16.075  0.00  0.00    +0.000 NA
ATOM      8  C   UNL     1      47.530   3.520  17.318  0.00  0.00    +0.000 A 
ATOM      9  H   UNL     1      46.305   4.302  13.936  0.00  0.00    +0.000 HD
BRANCH   2  11
ATOM     10  N   UNL     1      48.279   2.940  19.944  0.00  0.00    +0.000 N 
ATOM     11  C   UNL     1      48.799   4.070  19.375  0.00  0.00    +0.000 C 
ATOM     12  O   UNL     1      49.620   4.759  19.966  0.00  0.00    +0.000 OA
ATOM     13  H   UNL     1      48.667   2.666  20.841  0.00  0.00    +0.000 HD
ATOM     14  H   UNL     1      47.816   2.222  19.403  0.00  0.00    +0.000 HD
ENDBRANCH   2  11
ENDBRANCH   1   6
BRANCH   1  15
ATOM     15  C   UNL     1      46.711   6.834  12.334  0.00  0.00    +0.000 C 
ATOM     16  F   UNL     1      46.323   7.895  13.108  0.00  0.00    +0.000 F 
ATOM     17  F   UNL     1      47.515   7.371  11.367  0.00  0.00    +0.000 F 
BRANCH  15  18
ATOM     18  C   UNL     1      45.513   6.108  11.722  0.00  0.00    +0.000 A 
ATOM     19  C   UNL     1      44.252   6.703  11.771  0.00  0.00    +0.000 A 
ATOM     20  C   UNL     1      43.159   6.011  11.254  0.00  0.00    +0.000 A 
ATOM     21  C   UNL     1      43.347   4.753  10.691  0.00  0.00    +0.000 A 
ATOM     22  C   UNL     1      44.634   4.253  10.635  0.00  0.00    +0.000 A 
ATOM     23  N   UNL     1      45.709   4.892  11.136  0.00  0.00    +0.000 NA
BRANCH  22  24
ATOM     24  O   UNL     1      44.819   3.037  10.010  0.00  0.00    +0.000 OA
BRANCH  24  25
ATOM     25  C   UNL     1      44.914   3.089   8.573  0.00  0.00    +0.000 C 
ATOM     26  C   UNL     1      46.077   2.320   7.924  0.00  0.00    +0.000 C 
ATOM     27  C   UNL     1      46.391   3.640   7.237  0.00  0.00    +0.000 C 
ATOM     28  O   UNL     1      45.461   4.350   8.086  0.00  0.00    +0.000 OA
ENDBRANCH  24  25
ENDBRANCH  22  24
ENDBRANCH  15  18
ENDBRANCH   1  15
TORSDOF 6
ENDMDL
MODEL 9
REMARK VINA RESULT:    -7.004      3.555      7.009
REMARK INTER + INTRA:         -10.284
REMARK INTER:                  -9.618
REMARK INTRA:                  -0.666
REMARK UNBOUND:                -0.823
REMARK  Name = 
REMARK  6 active torsions:
REMARK  status: ('A' for Active; 'I' for Inactive)
REMARK    1  A    between atoms: C_2  and  C_4
REMARK    2  A    between atoms: N_8  and  C_9
REMARK    3  A    between atoms: C_9  and  C_10
REMARK    4  A    between atoms: C_10  and  C_13
REMARK    5  A    between atoms: C_17  and  O_18
REMARK    6  A    between atoms: O_18  and  C_19
REMARK                            x       y       z     vdW  Elec       q    Type
REMARK                         _______ _______ _______ _____ _____    ______ ____
ROOT
ATOM      1  C   UNL     1      44.554   5.858  12.849  0.00  0.00    +0.000 C 
ENDROOT
BRANCH   1   6
ATOM      2  C   UNL     1      48.983   8.294  12.336  0.00  0.00    +0.000 A 
ATOM      3  C   UNL     1      48.422   7.292  11.555  0.00  0.00    +0.000 A 
ATOM      4  C   UNL     1      47.103   6.904  11.795  0.00  0.00    +0.000 A 
ATOM      5  C   UNL     1      46.368   7.511  12.812  0.00  0.00    +0.000 A 
ATOM      6  N   UNL     1      45.027   7.239  13.036  0.00  0.00    +0.000 N 
ATOM      7  N   UNL     1      46.916   8.460  13.595  0.00  0.00    +0.000 NA
ATOM      8  C   UNL     1      48.203   8.824  13.354  0.00  0.00    +0.000 A 
ATOM      9  H   UNL     1      44.744   7.692  13.902  0.00  0.00    +0.000 HD
BRANCH   2  11
ATOM     10  N   UNL     1      51.382   7.963  12.470  0.00  0.00    +0.000 N 
ATOM     11  C   UNL     1      50.353   8.795  12.120  0.00  0.00    +0.000 C 
ATOM     12  O   UNL     1      50.566   9.892  11.620  0.00  0.00    +0.000 OA
ATOM     13  H   UNL     1      52.317   8.271  12.222  0.00  0.00    +0.000 HD
ATOM     14  H   UNL     1      51.250   6.974  12.633  0.00  0.00    +0.000 HD
ENDBRANCH   2  11
ENDBRANCH   1   6
BRANCH   1  15
ATOM     15  C   UNL     1      43.558   5.667  11.678  0.00  0.00    +0.000 C 
ATOM     16  F   UNL     1      42.316   5.430  12.204  0.00  0.00    +0.000 F 
ATOM     17  F   UNL     1      43.439   6.844  10.992  0.00  0.00    +0.000 F 
BRANCH  15  18
ATOM     18  C   UNL     1      44.015   4.533  10.761  0.00  0.00    +0.000 A 
ATOM     19  C   UNL     1      43.650   3.220  11.061  0.00  0.00    +0.000 A 
ATOM     20  C   UNL     1      44.113   2.189  10.246  0.00  0.00    +0.000 A 
ATOM     21  C   UNL     1      44.913   2.488   9.149  0.00  0.00    +0.000 A 
ATOM     22  C   UNL     1      45.189   3.817   8.889  0.00  0.00    +0.000 A 
ATOM     23  N   UNL     1      44.767   4.835   9.664  0.00  0.00    +0.000 NA
BRANCH  22  24
ATOM     24  O   UNL     1      45.923   4.107   7.758  0.00  0.00    +0.000 OA
BRANCH  24  25
ATOM     25  C   UNL     1      46.201   2.985   6.897  0.00  0.00    +0.000 C 
ATOM     26  C   UNL     1      47.505   2.213   7.160  0.00  0.00    +0.000 C 
ATOM     27  C   UNL     1      47.785   2.447   5.683  0.00  0.00    +0.000 C 
ATOM     28  O   UNL     1      46.691   3.387   5.583  0.00  0.00    +0.000 OA
ENDBRANCH  24  25
ENDBRANCH  22  24
ENDBRANCH  15  18
ENDBRANCH   1  15
TORSDOF 6
ENDMDL
