MODEL 1
REMARK VINA RESULT:    -9.918      0.000      0.000
REMARK INTER + INTRA:         -13.274
REMARK INTER:                 -13.106
REMARK INTRA:                  -0.168
REMARK UNBOUND:                -0.168
REMARK  Name = 
REMARK  6 active torsions:
REMARK  status: ('A' for Active; 'I' for Inactive)
REMARK    1  A    between atoms: C_2  and  C_4
REMARK    2  A    between atoms: C_7  and  O_8
REMARK    3  A    between atoms: O_8  and  C_9
REMARK    4  A    between atoms: C_9  and  C_10
REMARK    5  A    between atoms: C_14  and  C_15
REMARK    6  A    between atoms: C_19  and  O_20
REMARK                            x       y       z     vdW  Elec       q    Type
REMARK                         _______ _______ _______ _____ _____    ______ ____
ROOT
ATOM      1  C   UNL     1      44.024   4.841  11.528  0.00  0.00    +0.000 C 
ATOM      2  C   UNL     1      43.368   3.659  12.226  0.00  0.00    +0.000 C 
ATOM      3  C   UNL     1      42.811   5.031  12.420  0.00  0.00    +0.000 C 
ENDROOT
BRANCH   1   4
ATOM      4  C   UNL     1      45.393   5.309  11.987  0.00  0.00    +0.000 A 
ATOM      5  C   UNL     1      46.092   6.302  11.288  0.00  0.00    +0.000 A 
ATOM      6  C   UNL     1      47.285   6.827  11.780  0.00  0.00    +0.000 A 
ATOM      7  C   UNL     1      47.796   6.382  13.002  0.00  0.00    +0.000 A 
ATOM      8  C   UNL     1      47.131   5.401  13.753  0.00  0.00    +0.000 A 
ATOM      9  C   UNL     1      45.961   4.854  13.195  0.00  0.00    +0.000 A 
BRANCH   8  10
ATOM     10  C   UNL     1      47.548   5.041  15.132  0.00  0.00    +0.000 A 
ATOM     11  C   UNL     1      48.459   5.852  15.839  0.00  0.00    +0.000 A 
ATOM     12  C   UNL     1      48.766   5.605  17.182  0.00  0.00    +0.000 A 
ATOM     13  C   UNL     1      48.160   4.551  17.856  0.00  0.00    +0.000 A 
ATOM     14  C   UNL     1      47.269   3.736  17.171  0.00  0.00    +0.000 A 
ATOM     15  C   UNL     1      46.982   3.956  15.823  0.00  0.00    +0.000 A 
BRANCH  14  16
ATOM     16  O   UNL     1      46.623   2.711  17.798  0.00  0.00    +0.000 OA
ATOM     17  H   UNL     1      45.854   2.456  17.261  0.00  0.00    +0.000 HD
ENDBRANCH  14  16
ENDBRANCH   8  10
ENDBRANCH   1   4
BRANCH   1  18
ATOM     18  O   UNL     1      43.836   4.748  10.094  0.00  0.00    +0.000 OA
BRANCH  18  22
ATOM     19  C   UNL     1      46.302   2.257   7.837  0.00  0.00    +0.000 A 
ATOM     20  C   UNL     1      45.429   1.672   8.761  0.00  0.00    +0.000 A 
ATOM     21  C   UNL     1      44.566   2.472   9.516  0.00  0.00    +0.000 A 
ATOM     22  C   UNL     1      44.570   3.855   9.359  0.00  0.00    +0.000 A 
ATOM     23  C   UNL     1      45.416   4.435   8.411  0.00  0.00    +0.000 A 
ATOM     24  C   UNL     1      46.287   3.643   7.657  0.00  0.00    +0.000 A 
BRANCH  19  26
ATOM     25  N   UNL     1      48.381   2.105   6.577  0.00  0.00    +0.000 N 
ATOM     26  C   UNL     1      47.297   1.446   7.090  0.00  0.00    +0.000 C 
ATOM     27  O   UNL     1      47.161   0.237   6.942  0.00  0.00    +0.000 OA
ATOM     28  H   UNL     1      49.077   1.531   6.116  0.00  0.00    +0.000 HD
ATOM     29  H   UNL     1      48.639   3.035   6.856  0.00  0.00    +0.000 HD
ENDBRANCH  19  26
ENDBRANCH  18  22
ENDBRANCH   1  18
TORSDOF 6
ENDMDL
MODEL 2
REMARK VINA RESULT:    -9.691      2.347      3.867
REMARK INTER + INTRA:         -12.974
REMARK INTER:                 -11.634
REMARK INTRA:                  -1.340
REMARK UNBOUND:                -0.168
REMARK  Name = 
REMARK  6 active torsions:
REMARK  status: ('A' for Active; 'I' for Inactive)
REMARK    1  A    between atoms: C_2  and  C_4
REMARK    2  A    between atoms: C_7  and  O_8
REMARK    3  A    between atoms: O_8  and  C_9
REMARK    4  A    between atoms: C_9  and  C_10
REMARK    5  A    between atoms: C_14  and  C_15
REMARK    6  A    between atoms: C_19  and  O_20
REMARK                            x       y       z     vdW  Elec       q    Type
REMARK                         _______ _______ _______ _____ _____    ______ ____
ROOT
ATOM      1  C   UNL     1      43.782   4.920  11.347  0.00  0.00    +0.000 C 
ATOM      2  C   UNL     1      42.441   5.172  12.020  0.00  0.00    +0.000 C 
ATOM      3  C   UNL     1      42.953   6.147  11.012  0.00  0.00    +0.000 C 
ENDROOT
BRANCH   1   4
ATOM      4  C   UNL     1      45.058   5.057  12.157  0.00  0.00    +0.000 A 
ATOM      5  C   UNL     1      45.496   4.027  12.999  0.00  0.00    +0.000 A 
ATOM      6  C   UNL     1      46.732   4.095  13.640  0.00  0.00    +0.000 A 
ATOM      7  C   UNL     1      47.571   5.192  13.432  0.00  0.00    +0.000 A 
ATOM      8  C   UNL     1      47.192   6.246  12.587  0.00  0.00    +0.000 A 
ATOM      9  C   UNL     1      45.913   6.169  12.005  0.00  0.00    +0.000 A 
BRANCH   8  10
ATOM     10  C   UNL     1      48.130   7.331  12.203  0.00  0.00    +0.000 A 
ATOM     11  C   UNL     1      47.665   8.652  12.035  0.00  0.00    +0.000 A 
ATOM     12  C   UNL     1      48.548   9.712  11.802  0.00  0.00    +0.000 A 
ATOM     13  C   UNL     1      49.917   9.482  11.744  0.00  0.00    +0.000 A 
ATOM     14  C   UNL     1      50.391   8.186  11.897  0.00  0.00    +0.000 A 
ATOM     15  C   UNL     1      49.515   7.119  12.099  0.00  0.00    +0.000 A 
BRANCH  14  16
ATOM     16  O   UNL     1      51.727   7.916  11.884  0.00  0.00    +0.000 OA
ATOM     17  H   UNL     1      52.160   8.528  11.266  0.00  0.00    +0.000 HD
ENDBRANCH  14  16
ENDBRANCH   8  10
ENDBRANCH   1   4
BRANCH   1  18
ATOM     18  O   UNL     1      43.703   3.759  10.483  0.00  0.00    +0.000 OA
BRANCH  18  22
ATOM     19  C   UNL     1      46.528   2.768   7.582  0.00  0.00    +0.000 A 
ATOM     20  C   UNL     1      46.228   4.119   7.788  0.00  0.00    +0.000 A 
ATOM     21  C   UNL     1      45.307   4.494   8.771  0.00  0.00    +0.000 A 
ATOM     22  C   UNL     1      44.678   3.527   9.550  0.00  0.00    +0.000 A 
ATOM     23  C   UNL     1      45.005   2.181   9.369  0.00  0.00    +0.000 A 
ATOM     24  C   UNL     1      45.918   1.798   8.383  0.00  0.00    +0.000 A 
BRANCH  19  26
ATOM     25  N   UNL     1      47.314   2.987   5.288  0.00  0.00    +0.000 N 
ATOM     26  C   UNL     1      47.427   2.331   6.484  0.00  0.00    +0.000 C 
ATOM     27  O   UNL     1      48.240   1.428   6.638  0.00  0.00    +0.000 OA
ATOM     28  H   UNL     1      47.970   2.714   4.564  0.00  0.00    +0.000 HD
ATOM     29  H   UNL     1      46.827   3.860   5.184  0.00  0.00    +0.000 HD
ENDBRANCH  19  26
ENDBRANCH  18  22
ENDBRANCH   1  18
TORSDOF 6
ENDMDL
MODEL 3
REMARK VINA RESULT:    -8.860      2.902      7.758
REMARK INTER + INTRA:         -11.876
REMARK INTER:                 -10.735
REMARK INTRA:                  -1.141
REMARK UNBOUND:                -0.168
REMARK  Name = 
REMARK  6 active torsions:
REMARK  status: ('A' for Active; 'I' for Inactive)
REMARK    1  A    between atoms: C_2  and  C_4
REMARK    2  A    between atoms: C_7  and  O_8
REMARK    3  A    between atoms: O_8  and  C_9
REMARK    4  A    between atoms: C_9  and  C_10
REMARK    5  A    between atoms: C_14  and  C_15
REMARK    6  A    between atoms: C_19  and  O_20
REMARK                            x       y       z     vdW  Elec       q    Type
REMARK                         _______ _______ _______ _____ _____    ______ ____
ROOT
ATOM      1  C   UNL     1      46.187   7.099  12.265  0.00  0.00    +0.000 C 
ATOM      2  C   UNL     1      46.312   8.497  11.677  0.00  0.00    +0.000 C 
ATOM      3  C   UNL     1      45.590   8.303  12.969  0.00  0.00    +0.000 C 
ENDROOT
BRANCH   1   4
ATOM      4  C   UNL     1      45.285   6.084  11.584  0.00  0.00    +0.000 A 
ATOM      5  C   UNL     1      43.895   6.122  11.753  0.00  0.00    +0.000 A 
ATOM      6  C   UNL     1      43.057   5.278  11.027  0.00  0.00    +0.000 A 
ATOM      7  C   UNL     1      43.594   4.388  10.094  0.00  0.00    +0.000 A 
ATOM      8  C   UNL     1      44.978   4.318   9.871  0.00  0.00    +0.000 A 
ATOM      9  C   UNL     1      45.795   5.144  10.665  0.00  0.00    +0.000 A 
BRANCH   8  10
ATOM     10  C   UNL     1      45.563   3.520   8.764  0.00  0.00    +0.000 A 
ATOM     11  C   UNL     1      46.130   4.161   7.642  0.00  0.00    +0.000 A 
ATOM     12  C   UNL     1      46.802   3.437   6.651  0.00  0.00    +0.000 A 
ATOM     13  C   UNL     1      46.937   2.058   6.762  0.00  0.00    +0.000 A 
ATOM     14  C   UNL     1      46.375   1.411   7.854  0.00  0.00    +0.000 A 
ATOM     15  C   UNL     1      45.677   2.122   8.831  0.00  0.00    +0.000 A 
BRANCH  14  16
ATOM     16  O   UNL     1      46.512   0.065   8.025  0.00  0.00    +0.000 OA
ATOM     17  H   UNL     1      46.789  -0.103   8.941  0.00  0.00    +0.000 HD
ENDBRANCH  14  16
ENDBRANCH   8  10
ENDBRANCH   1   4
BRANCH   1  18
ATOM     18  O   UNL     1      47.485   6.610  12.684  0.00  0.00    +0.000 OA
BRANCH  18  22
ATOM     19  C   UNL     1      47.944   4.949  16.480  0.00  0.00    +0.000 A 
ATOM     20  C   UNL     1      47.150   4.273  15.547  0.00  0.00    +0.000 A 
ATOM     21  C   UNL     1      46.995   4.783  14.255  0.00  0.00    +0.000 A 
ATOM     22  C   UNL     1      47.624   5.968  13.886  0.00  0.00    +0.000 A 
ATOM     23  C   UNL     1      48.446   6.623  14.807  0.00  0.00    +0.000 A 
ATOM     24  C   UNL     1      48.600   6.124  16.102  0.00  0.00    +0.000 A 
BRANCH  19  26
ATOM     25  N   UNL     1      47.134   4.974  18.776  0.00  0.00    +0.000 N 
ATOM     26  C   UNL     1      48.052   4.486  17.887  0.00  0.00    +0.000 C 
ATOM     27  O   UNL     1      48.920   3.697  18.240  0.00  0.00    +0.000 OA
ATOM     28  H   UNL     1      47.187   4.609  19.721  0.00  0.00    +0.000 HD
ATOM     29  H   UNL     1      46.290   5.440  18.493  0.00  0.00    +0.000 HD
ENDBRANCH  19  26
ENDBRANCH  18  22
ENDBRANCH   1  18
TORSDOF 6
ENDMDL
MODEL 4
REMARK VINA RESULT:    -8.763      2.337      3.153
REMARK INTER + INTRA:         -11.749
REMARK INTER:                 -11.284
REMARK INTRA:                  -0.465
REMARK UNBOUND:                -0.168
REMARK  Name = 
REMARK  6 active torsions:
REMARK  status: ('A' for Active; 'I' for Inactive)
REMARK    1  A    between atoms: C_2  and  C_4
REMARK    2  A    between atoms: C_7  and  O_8
REMARK    3  A    between atoms: O_8  and  C_9
REMARK    4  A    between atoms: C_9  and  C_10
REMARK    5  A    between atoms: C_14  and  C_15
REMARK    6  A    between atoms: C_19  and  O_20
REMARK                            x       y       z     vdW  Elec       q    Type
REMARK                         _______ _______ _______ _____ _____    ______ ____
ROOT
ATOM      1  C   UNL     1      44.097   3.919  11.521  0.00  0.00    +0.000 C 
ATOM      2  C   UNL     1      44.806   2.921  12.424  0.00  0.00    +0.000 C 
ATOM      3  C   UNL     1      43.431   3.384  12.775  0.00  0.00    +0.000 C 
ENDROOT
BRANCH   1   4
ATOM      4  C   UNL     1      44.590   5.355  11.469  0.00  0.00    +0.000 A 
ATOM      5  C   UNL     1      43.698   6.421  11.293  0.00  0.00    +0.000 A 
ATOM      6  C   UNL     1      44.130   7.743  11.378  0.00  0.00    +0.000 A 
ATOM      7  C   UNL     1      45.467   8.028  11.666  0.00  0.00    +0.000 A 
ATOM      8  C   UNL     1      46.401   7.001  11.869  0.00  0.00    +0.000 A 
ATOM      9  C   UNL     1      45.940   5.680  11.716  0.00  0.00    +0.000 A 
BRANCH   8  10
ATOM     10  C   UNL     1      47.779   7.266  12.353  0.00  0.00    +0.000 A 
ATOM     11  C   UNL     1      48.616   8.173  11.670  0.00  0.00    +0.000 A 
ATOM     12  C   UNL     1      49.867   8.537  12.179  0.00  0.00    +0.000 A 
ATOM     13  C   UNL     1      50.308   8.015  13.389  0.00  0.00    +0.000 A 
ATOM     14  C   UNL     1      49.502   7.113  14.069  0.00  0.00    +0.000 A 
ATOM     15  C   UNL     1      48.266   6.722  13.553  0.00  0.00    +0.000 A 
BRANCH  14  16
ATOM     16  O   UNL     1      49.875   6.602  15.277  0.00  0.00    +0.000 OA
ATOM     17  H   UNL     1      49.790   7.300  15.948  0.00  0.00    +0.000 HD
ENDBRANCH  14  16
ENDBRANCH   8  10
ENDBRANCH   1   4
BRANCH   1  18
ATOM     18  O   UNL     1      43.786   3.312  10.243  0.00  0.00    +0.000 OA
BRANCH  18  22
ATOM     19  C   UNL     1      46.630   2.635   7.272  0.00  0.00    +0.000 A 
ATOM     20  C   UNL     1      46.167   3.940   7.468  0.00  0.00    +0.000 A 
ATOM     21  C   UNL     1      45.234   4.213   8.473  0.00  0.00    +0.000 A 
ATOM     22  C   UNL     1      44.755   3.188   9.284  0.00  0.00    +0.000 A 
ATOM     23  C   UNL     1      45.246   1.891   9.112  0.00  0.00    +0.000 A 
ATOM     24  C   UNL     1      46.172   1.610   8.104  0.00  0.00    +0.000 A 
BRANCH  19  26
ATOM     25  N   UNL     1      47.492   3.092   5.040  0.00  0.00    +0.000 N 
ATOM     26  C   UNL     1      47.546   2.296   6.153  0.00  0.00    +0.000 C 
ATOM     27  O   UNL     1      48.322   1.351   6.220  0.00  0.00    +0.000 OA
ATOM     28  H   UNL     1      48.159   2.880   4.306  0.00  0.00    +0.000 HD
ATOM     29  H   UNL     1      47.039   3.988   5.028  0.00  0.00    +0.000 HD
ENDBRANCH  19  26
ENDBRANCH  18  22
ENDBRANCH   1  18
TORSDOF 6
ENDMDL
MODEL 5
REMARK VINA RESULT:    -8.191      2.326      4.142
REMARK INTER + INTRA:         -10.993
REMARK INTER:                 -10.858
REMARK INTRA:                  -0.135
REMARK UNBOUND:                -0.168
REMARK  Name = 
REMARK  6 active torsions:
REMARK  status: ('A' for Active; 'I' for Inactive)
REMARK    1  A    between atoms: C_2  and  C_4
REMARK    2  A    between atoms: C_7  and  O_8
REMARK    3  A    between atoms: O_8  and  C_9
REMARK    4  A    between atoms: C_9  and  C_10
REMARK    5  A    between atoms: C_14  and  C_15
REMARK    6  A    between atoms: C_19  and  O_20
REMARK                            x       y       z     vdW  Elec       q    Type
REMARK                         _______ _______ _______ _____ _____    ______ ____
ROOT
ATOM      1  C   UNL     1      44.081   4.361  11.862  0.00  0.00    +0.000 C 
ATOM      2  C   UNL     1      43.690   2.960  12.306  0.00  0.00    +0.000 C 
ATOM      3  C   UNL     1      42.860   4.126  12.732  0.00  0.00    +0.000 C 
ENDROOT
BRANCH   1   4
ATOM      4  C   UNL     1      45.325   5.007  12.446  0.00  0.00    +0.000 A 
ATOM      5  C   UNL     1      46.343   4.233  13.017  0.00  0.00    +0.000 A 
ATOM      6  C   UNL     1      47.541   4.811  13.433  0.00  0.00    +0.000 A 
ATOM      7  C   UNL     1      47.756   6.180  13.262  0.00  0.00    +0.000 A 
ATOM      8  C   UNL     1      46.779   7.002  12.681  0.00  0.00    +0.000 A 
ATOM      9  C   UNL     1      45.560   6.393  12.328  0.00  0.00    +0.000 A 
BRANCH   8  10
ATOM     10  C   UNL     1      47.045   8.417  12.320  0.00  0.00    +0.000 A 
ATOM     11  C   UNL     1      48.351   8.840  11.997  0.00  0.00    +0.000 A 
ATOM     12  C   UNL     1      48.605  10.134  11.529  0.00  0.00    +0.000 A 
ATOM     13  C   UNL     1      47.559  11.034  11.360  0.00  0.00    +0.000 A 
ATOM     14  C   UNL     1      46.268  10.638  11.685  0.00  0.00    +0.000 A 
ATOM     15  C   UNL     1      46.012   9.359  12.181  0.00  0.00    +0.000 A 
BRANCH  14  16
ATOM     16  O   UNL     1      45.206  11.473  11.503  0.00  0.00    +0.000 OA
ATOM     17  H   UNL     1      44.625  11.408  12.280  0.00  0.00    +0.000 HD
ENDBRANCH  14  16
ENDBRANCH   8  10
ENDBRANCH   1   4
BRANCH   1  18
ATOM     18  O   UNL     1      43.909   4.502  10.430  0.00  0.00    +0.000 OA
BRANCH  18  22
ATOM     19  C   UNL     1      46.469   2.498   7.821  0.00  0.00    +0.000 A 
ATOM     20  C   UNL     1      45.622   1.741   8.638  0.00  0.00    +0.000 A 
ATOM     21  C   UNL     1      44.729   2.377   9.506  0.00  0.00    +0.000 A 
ATOM     22  C   UNL     1      44.677   3.767   9.568  0.00  0.00    +0.000 A 
ATOM     23  C   UNL     1      45.497   4.522   8.725  0.00  0.00    +0.000 A 
ATOM     24  C   UNL     1      46.398   3.894   7.861  0.00  0.00    +0.000 A 
BRANCH  19  26
ATOM     25  N   UNL     1      48.606   2.594   6.656  0.00  0.00    +0.000 N 
ATOM     26  C   UNL     1      47.495   1.856   6.961  0.00  0.00    +0.000 C 
ATOM     27  O   UNL     1      47.361   0.711   6.544  0.00  0.00    +0.000 OA
ATOM     28  H   UNL     1      49.321   2.124   6.112  0.00  0.00    +0.000 HD
ATOM     29  H   UNL     1      48.856   3.437   7.144  0.00  0.00    +0.000 HD
ENDBRANCH  19  26
ENDBRANCH  18  22
ENDBRANCH   1  18
TORSDOF 6
ENDMDL
MODEL 6
REMARK VINA RESULT:    -8.132      3.130      7.390
REMARK INTER + INTRA:         -10.915
REMARK INTER:                  -9.710
REMARK INTRA:                  -1.204
REMARK UNBOUND:                -0.168
REMARK  Name = 
REMARK  6 active torsions:
REMARK  status: ('A' for Active; 'I' for Inactive)
REMARK    1  A    between atoms: C_2  and  C_4
REMARK    2  A    between atoms: C_7  and  O_8
REMARK    3  A    between atoms: O_8  and  C_9
REMARK    4  A    between atoms: C_9  and  C_10
REMARK    5  A    between atoms: C_14  and  C_15
REMARK    6  A    between atoms: C_19  and  O_20
REMARK                            x       y       z     vdW  Elec       q    Type
REMARK                         _______ _______ _______ _____ _____    ______ ____
ROOT
ATOM      1  C   UNL     1      46.174   4.994  13.210  0.00  0.00    +0.000 C 
ATOM      2  C   UNL     1      45.940   4.249  14.516  0.00  0.00    +0.000 C 
ATOM      3  C   UNL     1      47.160   3.954  13.707  0.00  0.00    +0.000 C 
ENDROOT
BRANCH   1   4
ATOM      4  C   UNL     1      45.285   4.698  12.016  0.00  0.00    +0.000 A 
ATOM      5  C   UNL     1      44.056   5.350  11.847  0.00  0.00    +0.000 A 
ATOM      6  C   UNL     1      43.302   5.179  10.687  0.00  0.00    +0.000 A 
ATOM      7  C   UNL     1      43.776   4.366   9.655  0.00  0.00    +0.000 A 
ATOM      8  C   UNL     1      45.007   3.701   9.762  0.00  0.00    +0.000 A 
ATOM      9  C   UNL     1      45.711   3.851  10.972  0.00  0.00    +0.000 A 
BRANCH   8  10
ATOM     10  C   UNL     1      45.621   2.980   8.618  0.00  0.00    +0.000 A 
ATOM     11  C   UNL     1      46.076   3.689   7.487  0.00  0.00    +0.000 A 
ATOM     12  C   UNL     1      46.773   3.049   6.457  0.00  0.00    +0.000 A 
ATOM     13  C   UNL     1      47.045   1.688   6.536  0.00  0.00    +0.000 A 
ATOM     14  C   UNL     1      46.595   0.973   7.638  0.00  0.00    +0.000 A 
ATOM     15  C   UNL     1      45.872   1.598   8.655  0.00  0.00    +0.000 A 
BRANCH  14  16
ATOM     16  O   UNL     1      46.868  -0.355   7.779  0.00  0.00    +0.000 OA
ATOM     17  H   UNL     1      46.390  -0.844   7.087  0.00  0.00    +0.000 HD
ENDBRANCH  14  16
ENDBRANCH   8  10
ENDBRANCH   1   4
BRANCH   1  18
ATOM     18  O   UNL     1      46.438   6.396  13.470  0.00  0.00    +0.000 OA
BRANCH  18  22
ATOM     19  C   UNL     1      50.129   7.984  12.361  0.00  0.00    +0.000 A 
ATOM     20  C   UNL     1      49.153   7.812  11.374  0.00  0.00    +0.000 A 
ATOM     21  C   UNL     1      47.893   7.309  11.711  0.00  0.00    +0.000 A 
ATOM     22  C   UNL     1      47.599   6.971  13.029  0.00  0.00    +0.000 A 
ATOM     23  C   UNL     1      48.562   7.178  14.020  0.00  0.00    +0.000 A 
ATOM     24  C   UNL     1      49.827   7.673  13.690  0.00  0.00    +0.000 A 
BRANCH  19  26
ATOM     25  N   UNL     1      52.500   8.102  12.906  0.00  0.00    +0.000 N 
ATOM     26  C   UNL     1      51.506   8.425  12.022  0.00  0.00    +0.000 C 
ATOM     27  O   UNL     1      51.748   9.044  10.993  0.00  0.00    +0.000 OA
ATOM     28  H   UNL     1      53.441   8.363  12.635  0.00  0.00    +0.000 HD
ATOM     29  H   UNL     1      52.386   7.420  13.635  0.00  0.00    +0.000 HD
ENDBRANCH  19  26
ENDBRANCH  18  22
ENDBRANCH   1  18
TORSDOF 6
ENDMDL
MODEL 7
REMARK VINA RESULT:    -8.029      2.942      7.747
REMARK INTER + INTRA:         -10.778
REMARK INTER:                  -9.776
REMARK INTRA:                  -1.002
REMARK UNBOUND:                -0.168
REMARK  Name = 
REMARK  6 active torsions:
REMARK  status: ('A' for Active; 'I' for Inactive)
REMARK    1  A    between atoms: C_2  and  C_4
REMARK    2  A    between atoms: C_7  and  O_8
REMARK    3  A    between atoms: O_8  and  C_9
REMARK    4  A    between atoms: C_9  and  C_10
REMARK    5  A    between atoms: C_14  and  C_15
REMARK    6  A    between atoms: C_19  and  O_20
REMARK                            x       y       z     vdW  Elec       q    Type
REMARK                         _______ _______ _______ _____ _____    ______ ____
ROOT
ATOM      1  C   UNL     1      45.654   7.232  11.775  0.00  0.00    +0.000 C 
ATOM      2  C   UNL     1      45.199   8.535  11.136  0.00  0.00    +0.000 C 
ATOM      3  C   UNL     1      44.873   8.264  12.567  0.00  0.00    +0.000 C 
ENDROOT
BRANCH   1   4
ATOM      4  C   UNL     1      44.997   5.929  11.356  0.00  0.00    +0.000 A 
ATOM      5  C   UNL     1      43.703   5.600  11.782  0.00  0.00    +0.000 A 
ATOM      6  C   UNL     1      43.049   4.471  11.294  0.00  0.00    +0.000 A 
ATOM      7  C   UNL     1      43.669   3.655  10.345  0.00  0.00    +0.000 A 
ATOM      8  C   UNL     1      44.958   3.944   9.870  0.00  0.00    +0.000 A 
ATOM      9  C   UNL     1      45.609   5.059  10.431  0.00  0.00    +0.000 A 
BRANCH   8  10
ATOM     10  C   UNL     1      45.569   3.206   8.736  0.00  0.00    +0.000 A 
ATOM     11  C   UNL     1      46.071   3.903   7.616  0.00  0.00    +0.000 A 
ATOM     12  C   UNL     1      46.766   3.242   6.598  0.00  0.00    +0.000 A 
ATOM     13  C   UNL     1      46.989   1.873   6.677  0.00  0.00    +0.000 A 
ATOM     14  C   UNL     1      46.492   1.170   7.767  0.00  0.00    +0.000 A 
ATOM     15  C   UNL     1      45.771   1.816   8.771  0.00  0.00    +0.000 A 
BRANCH  14  16
ATOM     16  O   UNL     1      46.716  -0.168   7.907  0.00  0.00    +0.000 OA
ATOM     17  H   UNL     1      47.217  -0.312   8.728  0.00  0.00    +0.000 HD
ENDBRANCH  14  16
ENDBRANCH   8  10
ENDBRANCH   1   4
BRANCH   1  18
ATOM     18  O   UNL     1      47.099   7.203  11.887  0.00  0.00    +0.000 OA
BRANCH  18  22
ATOM     19  C   UNL     1      48.876   6.339  15.558  0.00  0.00    +0.000 A 
ATOM     20  C   UNL     1      49.248   7.514  14.897  0.00  0.00    +0.000 A 
ATOM     21  C   UNL     1      48.654   7.853  13.677  0.00  0.00    +0.000 A 
ATOM     22  C   UNL     1      47.691   7.024  13.109  0.00  0.00    +0.000 A 
ATOM     23  C   UNL     1      47.294   5.870  13.788  0.00  0.00    +0.000 A 
ATOM     24  C   UNL     1      47.888   5.520  15.003  0.00  0.00    +0.000 A 
BRANCH  19  26
ATOM     25  N   UNL     1      49.598   6.795  17.839  0.00  0.00    +0.000 N 
ATOM     26  C   UNL     1      49.556   5.901  16.804  0.00  0.00    +0.000 C 
ATOM     27  O   UNL     1      50.053   4.787  16.908  0.00  0.00    +0.000 OA
ATOM     28  H   UNL     1      50.018   6.464  18.700  0.00  0.00    +0.000 HD
ATOM     29  H   UNL     1      49.024   7.620  17.876  0.00  0.00    +0.000 HD
ENDBRANCH  19  26
ENDBRANCH  18  22
ENDBRANCH   1  18
TORSDOF 6
ENDMDL
MODEL 8
REMARK VINA RESULT:    -8.008      2.744      4.550
REMARK INTER + INTRA:         -10.750
REMARK INTER:                  -9.644
REMARK INTRA:                  -1.106
REMARK UNBOUND:                -0.168
REMARK  Name = 
REMARK  6 active torsions:
REMARK  status: ('A' for Active; 'I' for Inactive)
REMARK    1  A    between atoms: C_2  and  C_4
REMARK    2  A    between atoms: C_7  and  O_8
REMARK    3  A    between atoms: O_8  and  C_9
REMARK    4  A    between atoms: C_9  and  C_10
REMARK    5  A    between atoms: C_14  and  C_15
REMARK    6  A    between atoms: C_19  and  O_20
REMARK                            x       y       z     vdW  Elec       q    Type
REMARK                         _______ _______ _______ _____ _____    ______ ____
ROOT
ATOM      1  C   UNL     1      48.011   8.164  12.611  0.00  0.00    +0.000 C 
ATOM      2  C   UNL     1      48.675   9.226  11.747  0.00  0.00    +0.000 C 
ATOM      3  C   UNL     1      49.051   7.792  11.571  0.00  0.00    +0.000 C 
ENDROOT
BRANCH   1   4
ATOM      4  C   UNL     1      48.348   8.092  14.090  0.00  0.00    +0.000 A 
ATOM      5  C   UNL     1      48.304   9.234  14.900  0.00  0.00    +0.000 A 
ATOM      6  C   UNL     1      48.482   9.147  16.279  0.00  0.00    +0.000 A 
ATOM      7  C   UNL     1      48.686   7.905  16.884  0.00  0.00    +0.000 A 
ATOM      8  C   UNL     1      48.723   6.725  16.125  0.00  0.00    +0.000 A 
ATOM      9  C   UNL     1      48.599   6.860  14.729  0.00  0.00    +0.000 A 
BRANCH   8  10
ATOM     10  C   UNL     1      48.755   5.380  16.751  0.00  0.00    +0.000 A 
ATOM     11  C   UNL     1      49.935   4.900  17.357  0.00  0.00    +0.000 A 
ATOM     12  C   UNL     1      49.953   3.694  18.066  0.00  0.00    +0.000 A 
ATOM     13  C   UNL     1      48.792   2.943  18.198  0.00  0.00    +0.000 A 
ATOM     14  C   UNL     1      47.624   3.395  17.598  0.00  0.00    +0.000 A 
ATOM     15  C   UNL     1      47.605   4.581  16.864  0.00  0.00    +0.000 A 
BRANCH  14  16
ATOM     16  O   UNL     1      46.451   2.711  17.731  0.00  0.00    +0.000 OA
ATOM     17  H   UNL     1      46.237   2.646  18.676  0.00  0.00    +0.000 HD
ENDBRANCH  14  16
ENDBRANCH   8  10
ENDBRANCH   1   4
BRANCH   1  18
ATOM     18  O   UNL     1      46.606   8.047  12.276  0.00  0.00    +0.000 OA
BRANCH  18  22
ATOM     19  C   UNL     1      44.802   4.357  11.565  0.00  0.00    +0.000 A 
ATOM     20  C   UNL     1      45.240   5.108  10.469  0.00  0.00    +0.000 A 
ATOM     21  C   UNL     1      45.876   6.338  10.667  0.00  0.00    +0.000 A 
ATOM     22  C   UNL     1      46.074   6.827  11.955  0.00  0.00    +0.000 A 
ATOM     23  C   UNL     1      45.668   6.060  13.050  0.00  0.00    +0.000 A 
ATOM     24  C   UNL     1      45.025   4.834  12.860  0.00  0.00    +0.000 A 
BRANCH  19  26
ATOM     25  N   UNL     1      43.706   2.402  12.516  0.00  0.00    +0.000 N 
ATOM     26  C   UNL     1      44.038   3.096  11.385  0.00  0.00    +0.000 C 
ATOM     27  O   UNL     1      43.712   2.694  10.275  0.00  0.00    +0.000 OA
ATOM     28  H   UNL     1      43.140   1.571  12.382  0.00  0.00    +0.000 HD
ATOM     29  H   UNL     1      43.759   2.797  13.438  0.00  0.00    +0.000 HD
ENDBRANCH  19  26
ENDBRANCH  18  22
ENDBRANCH   1  18
TORSDOF 6
ENDMDL
MODEL 9
REMARK VINA RESULT:    -7.865      1.723      2.705
REMARK INTER + INTRA:         -10.562
REMARK INTER:                  -9.704
REMARK INTRA:                  -0.858
REMARK UNBOUND:                -0.168
REMARK  Name = 
REMARK  6 active torsions:
REMARK  status: ('A' for Active; 'I' for Inactive)
REMARK    1  A    between atoms: C_2  and  C_4
REMARK    2  A    between atoms: C_7  and  O_8
REMARK    3  A    between atoms: O_8  and  C_9
REMARK    4  A    between atoms: C_9  and  C_10
REMARK    5  A    between atoms: C_14  and  C_15
REMARK    6  A    between atoms: C_19  and  O_20
REMARK                            x       y       z     vdW  Elec       q    Type
REMARK                         _______ _______ _______ _____ _____    ______ ____
ROOT
ATOM      1  C   UNL     1      44.567   5.638  11.214  0.00  0.00    +0.000 C 
ATOM      2  C   UNL     1      43.460   6.626  11.549  0.00  0.00    +0.000 C 
ATOM      3  C   UNL     1      44.660   7.093  10.794  0.00  0.00    +0.000 C 
ENDROOT
BRANCH   1   4
ATOM      4  C   UNL     1      45.450   5.104  12.328  0.00  0.00    +0.000 A 
ATOM      5  C   UNL     1      45.526   3.732  12.597  0.00  0.00    +0.000 A 
ATOM      6  C   UNL     1      46.434   3.229  13.528  0.00  0.00    +0.000 A 
ATOM      7  C   UNL     1      47.305   4.093  14.196  0.00  0.00    +0.000 A 
ATOM      8  C   UNL     1      47.285   5.475  13.954  0.00  0.00    +0.000 A 
ATOM      9  C   UNL     1      46.315   5.951  13.052  0.00  0.00    +0.000 A 
BRANCH   8  10
ATOM     10  C   UNL     1      48.313   6.392  14.507  0.00  0.00    +0.000 A 
ATOM     11  C   UNL     1      48.911   7.373  13.689  0.00  0.00    +0.000 A 
ATOM     12  C   UNL     1      49.784   8.330  14.217  0.00  0.00    +0.000 A 
ATOM     13  C   UNL     1      50.072   8.340  15.577  0.00  0.00    +0.000 A 
ATOM     14  C   UNL     1      49.500   7.374  16.394  0.00  0.00    +0.000 A 
ATOM     15  C   UNL     1      48.653   6.398  15.870  0.00  0.00    +0.000 A 
BRANCH  14  16
ATOM     16  O   UNL     1      49.724   7.365  17.739  0.00  0.00    +0.000 OA
ATOM     17  H   UNL     1      49.430   6.510  18.095  0.00  0.00    +0.000 HD
ENDBRANCH  14  16
ENDBRANCH   8  10
ENDBRANCH   1   4
BRANCH   1  18
ATOM     18  O   UNL     1      44.095   4.658  10.257  0.00  0.00    +0.000 OA
BRANCH  18  22
ATOM     19  C   UNL     1      46.553   2.619   7.578  0.00  0.00    +0.000 A 
ATOM     20  C   UNL     1      46.597   4.017   7.592  0.00  0.00    +0.000 A 
ATOM     21  C   UNL     1      45.808   4.736   8.495  0.00  0.00    +0.000 A 
ATOM     22  C   UNL     1      44.971   4.069   9.385  0.00  0.00    +0.000 A 
ATOM     23  C   UNL     1      44.956   2.672   9.395  0.00  0.00    +0.000 A 
ATOM     24  C   UNL     1      45.735   1.946   8.490  0.00  0.00    +0.000 A 
BRANCH  19  26
ATOM     25  N   UNL     1      48.081   2.526   5.683  0.00  0.00    +0.000 N 
ATOM     26  C   UNL     1      47.304   1.830   6.568  0.00  0.00    +0.000 C 
ATOM     27  O   UNL     1      47.239   0.607   6.529  0.00  0.00    +0.000 OA
ATOM     28  H   UNL     1      48.627   1.972   5.034  0.00  0.00    +0.000 HD
ATOM     29  H   UNL     1      48.332   3.490   5.814  0.00  0.00    +0.000 HD
ENDBRANCH  19  26
ENDBRANCH  18  22
ENDBRANCH   1  18
TORSDOF 6
ENDMDL
