MODEL 1
REMARK VINA RESULT:   -10.182      0.000      0.000
REMARK INTER + INTRA:         -14.627
REMARK INTER:                 -13.754
REMARK INTRA:                  -0.873
REMARK UNBOUND:                -0.873
REMARK  Name = 
REMARK  6 active torsions:
REMARK  status: ('A' for Active; 'I' for Inactive)
REMARK    1  A    between atoms: C_2  and  C_4
REMARK    2  A    between atoms: N_8  and  C_9
REMARK    3  A    between atoms: C_9  and  C_10
REMARK    4  A    between atoms: C_10  and  C_13
REMARK    5  A    between atoms: C_17  and  O_18
REMARK    6  A    between atoms: O_18  and  C_19
REMARK                            x       y       z     vdW  Elec       q    Type
REMARK                         _______ _______ _______ _____ _____    ______ ____
ROOT
ATOM      1  C   UNL     1      43.533   5.599  12.181  0.00  0.00    +0.000 C 
ATOM      2  F   UNL     1      43.112   6.771  11.617  0.00  0.00    +0.000 F 
ATOM      3  F   UNL     1      42.738   5.429  13.280  0.00  0.00    +0.000 F 
ENDROOT
BRANCH   1   4
ATOM      4  C   UNL     1      44.989   5.653  12.570  0.00  0.00    +0.000 A 
ATOM      5  C   UNL     1      45.834   6.625  12.051  0.00  0.00    +0.000 A 
ATOM      6  N   UNL     1      47.148   6.718  12.353  0.00  0.00    +0.000 NA
ATOM      7  C   UNL     1      47.639   5.814  13.236  0.00  0.00    +0.000 A 
ATOM      8  C   UNL     1      46.877   4.819  13.832  0.00  0.00    +0.000 A 
ATOM      9  C   UNL     1      45.537   4.727  13.472  0.00  0.00    +0.000 A 
BRANCH   8  10
ATOM     10  O   UNL     1      47.511   3.964  14.692  0.00  0.00    +0.000 OA
BRANCH  10  11
ATOM     11  C   UNL     1      47.339   4.179  16.116  0.00  0.00    +0.000 C 
ATOM     12  C   UNL     1      48.429   5.073  16.755  0.00  0.00    +0.000 C 
ATOM     13  C   UNL     1      48.488   4.118  17.950  0.00  0.00    +0.000 C 
ATOM     14  C   UNL     1      47.789   3.048  17.093  0.00  0.00    +0.000 C 
ATOM     15  F   UNL     1      46.785   2.387  17.714  0.00  0.00    +0.000 F 
ATOM     16  F   UNL     1      48.602   2.103  16.567  0.00  0.00    +0.000 F 
ENDBRANCH  10  11
ENDBRANCH   8  10
ENDBRANCH   1   4
BRANCH   1  17
ATOM     17  C   UNL     1      43.249   4.451  11.175  0.00  0.00    +0.000 C 
BRANCH  17  22
ATOM     18  C   UNL     1      46.480   2.524   7.703  0.00  0.00    +0.000 A 
ATOM     19  C   UNL     1      45.648   1.860   8.600  0.00  0.00    +0.000 A 
ATOM     20  C   UNL     1      44.725   2.597   9.343  0.00  0.00    +0.000 A 
ATOM     21  C   UNL     1      44.659   3.978   9.193  0.00  0.00    +0.000 A 
ATOM     22  N   UNL     1      43.713   4.763   9.817  0.00  0.00    +0.000 N 
ATOM     23  N   UNL     1      45.484   4.633   8.353  0.00  0.00    +0.000 NA
ATOM     24  C   UNL     1      46.378   3.903   7.632  0.00  0.00    +0.000 A 
ATOM     25  H   UNL     1      43.937   5.743   9.639  0.00  0.00    +0.000 HD
BRANCH  18  27
ATOM     26  N   UNL     1      48.529   2.538   6.401  0.00  0.00    +0.000 N 
ATOM     27  C   UNL     1      47.446   1.820   6.836  0.00  0.00    +0.000 C 
ATOM     28  O   UNL     1      47.311   0.638   6.548  0.00  0.00    +0.000 OA
ATOM     29  H   UNL     1      49.242   2.017   5.907  0.00  0.00    +0.000 HD
ATOM     30  H   UNL     1      48.804   3.416   6.820  0.00  0.00    +0.000 HD
ENDBRANCH  18  27
ENDBRANCH  17  22
ENDBRANCH   1  17
TORSDOF 6
ENDMDL
MODEL 2
REMARK VINA RESULT:    -9.337      2.323      2.993
REMARK INTER + INTRA:         -13.485
REMARK INTER:                 -12.488
REMARK INTRA:                  -0.996
REMARK UNBOUND:                -0.873
REMARK  Name = 
REMARK  6 active torsions:
REMARK  status: ('A' for Active; 'I' for Inactive)
REMARK    1  A    between atoms: C_2  and  C_4
REMARK    2  A    between atoms: N_8  and  C_9
REMARK    3  A    between atoms: C_9  and  C_10
REMARK    4  A    between atoms: C_10  and  C_13
REMARK    5  A    between atoms: C_17  and  O_18
REMARK    6  A    between atoms: O_18  and  C_19
REMARK                            x       y       z     vdW  Elec       q    Type
REMARK                         _______ _______ _______ _____ _____    ______ ____
ROOT
ATOM      1  C   UNL     1      43.848   5.646  12.010  0.00  0.00    +0.000 C 
ATOM      2  F   UNL     1      44.163   6.825  11.394  0.00  0.00    +0.000 F 
ATOM      3  F   UNL     1      42.889   5.971  12.928  0.00  0.00    +0.000 F 
ENDROOT
BRANCH   1   4
ATOM      4  C   UNL     1      45.048   5.023  12.679  0.00  0.00    +0.000 A 
ATOM      5  C   UNL     1      45.208   3.645  12.723  0.00  0.00    +0.000 A 
ATOM      6  N   UNL     1      46.254   3.028  13.316  0.00  0.00    +0.000 NA
ATOM      7  C   UNL     1      47.201   3.824  13.868  0.00  0.00    +0.000 A 
ATOM      8  C   UNL     1      47.152   5.211  13.858  0.00  0.00    +0.000 A 
ATOM      9  C   UNL     1      46.044   5.814  13.273  0.00  0.00    +0.000 A 
BRANCH   8  10
ATOM     10  O   UNL     1      48.172   5.887  14.471  0.00  0.00    +0.000 OA
BRANCH  10  11
ATOM     11  C   UNL     1      48.559   7.175  13.928  0.00  0.00    +0.000 C 
ATOM     12  C   UNL     1      49.236   7.094  12.539  0.00  0.00    +0.000 C 
ATOM     13  C   UNL     1      50.262   8.134  12.997  0.00  0.00    +0.000 C 
ATOM     14  C   UNL     1      49.872   7.834  14.455  0.00  0.00    +0.000 C 
ATOM     15  F   UNL     1      49.697   8.927  15.235  0.00  0.00    +0.000 F 
ATOM     16  F   UNL     1      50.715   7.016  15.126  0.00  0.00    +0.000 F 
ENDBRANCH  10  11
ENDBRANCH   8  10
ENDBRANCH   1   4
BRANCH   1  17
ATOM     17  C   UNL     1      43.226   4.698  10.949  0.00  0.00    +0.000 C 
BRANCH  17  22
ATOM     18  C   UNL     1      46.491   2.488   7.685  0.00  0.00    +0.000 A 
ATOM     19  C   UNL     1      45.594   1.900   8.571  0.00  0.00    +0.000 A 
ATOM     20  C   UNL     1      44.679   2.708   9.249  0.00  0.00    +0.000 A 
ATOM     21  C   UNL     1      44.687   4.084   9.045  0.00  0.00    +0.000 A 
ATOM     22  N   UNL     1      43.756   4.936   9.601  0.00  0.00    +0.000 N 
ATOM     23  N   UNL     1      45.574   4.666   8.215  0.00  0.00    +0.000 NA
ATOM     24  C   UNL     1      46.459   3.867   7.559  0.00  0.00    +0.000 A 
ATOM     25  H   UNL     1      44.035   5.896   9.396  0.00  0.00    +0.000 HD
BRANCH  18  27
ATOM     26  N   UNL     1      48.563   2.369   6.425  0.00  0.00    +0.000 N 
ATOM     27  C   UNL     1      47.455   1.707   6.883  0.00  0.00    +0.000 C 
ATOM     28  O   UNL     1      47.294   0.512   6.670  0.00  0.00    +0.000 OA
ATOM     29  H   UNL     1      49.271   1.799   5.980  0.00  0.00    +0.000 HD
ATOM     30  H   UNL     1      48.853   3.265   6.793  0.00  0.00    +0.000 HD
ENDBRANCH  18  27
ENDBRANCH  17  22
ENDBRANCH   1  17
TORSDOF 6
ENDMDL
MODEL 3
REMARK VINA RESULT:    -9.255      2.595      3.811
REMARK INTER + INTRA:         -13.374
REMARK INTER:                 -12.178
REMARK INTRA:                  -1.196
REMARK UNBOUND:                -0.873
REMARK  Name = 
REMARK  6 active torsions:
REMARK  status: ('A' for Active; 'I' for Inactive)
REMARK    1  A    between atoms: C_2  and  C_4
REMARK    2  A    between atoms: N_8  and  C_9
REMARK    3  A    between atoms: C_9  and  C_10
REMARK    4  A    between atoms: C_10  and  C_13
REMARK    5  A    between atoms: C_17  and  O_18
REMARK    6  A    between atoms: O_18  and  C_19
REMARK                            x       y       z     vdW  Elec       q    Type
REMARK                         _______ _______ _______ _____ _____    ______ ____
ROOT
ATOM      1  C   UNL     1      43.600   5.507  12.135  0.00  0.00    +0.000 C 
ATOM      2  F   UNL     1      43.518   6.753  11.579  0.00  0.00    +0.000 F 
ATOM      3  F   UNL     1      42.670   5.503  13.137  0.00  0.00    +0.000 F 
ENDROOT
BRANCH   1   4
ATOM      4  C   UNL     1      44.978   5.221  12.676  0.00  0.00    +0.000 A 
ATOM      5  C   UNL     1      45.271   4.008  13.285  0.00  0.00    +0.000 A 
ATOM      6  N   UNL     1      46.483   3.697  13.798  0.00  0.00    +0.000 NA
ATOM      7  C   UNL     1      47.458   4.630  13.672  0.00  0.00    +0.000 A 
ATOM      8  C   UNL     1      47.279   5.863  13.059  0.00  0.00    +0.000 A 
ATOM      9  C   UNL     1      46.011   6.166  12.575  0.00  0.00    +0.000 A 
BRANCH   8  10
ATOM     10  O   UNL     1      48.350   6.714  13.021  0.00  0.00    +0.000 OA
BRANCH  10  11
ATOM     11  C   UNL     1      48.412   7.683  11.943  0.00  0.00    +0.000 C 
ATOM     12  C   UNL     1      49.840   8.191  11.634  0.00  0.00    +0.000 C 
ATOM     13  C   UNL     1      49.288   9.612  11.502  0.00  0.00    +0.000 C 
ATOM     14  C   UNL     1      48.026   9.162  12.258  0.00  0.00    +0.000 C 
ATOM     15  F   UNL     1      46.857   9.582  11.719  0.00  0.00    +0.000 F 
ATOM     16  F   UNL     1      47.984   9.495  13.569  0.00  0.00    +0.000 F 
ENDBRANCH  10  11
ENDBRANCH   8  10
ENDBRANCH   1   4
BRANCH   1  17
ATOM     17  C   UNL     1      43.179   4.470  11.058  0.00  0.00    +0.000 C 
BRANCH  17  22
ATOM     18  C   UNL     1      46.508   2.549   7.676  0.00  0.00    +0.000 A 
ATOM     19  C   UNL     1      45.631   1.884   8.528  0.00  0.00    +0.000 A 
ATOM     20  C   UNL     1      44.692   2.624   9.250  0.00  0.00    +0.000 A 
ATOM     21  C   UNL     1      44.656   4.008   9.122  0.00  0.00    +0.000 A 
ATOM     22  N   UNL     1      43.700   4.798   9.725  0.00  0.00    +0.000 N 
ATOM     23  N   UNL     1      45.524   4.664   8.327  0.00  0.00    +0.000 NA
ATOM     24  C   UNL     1      46.432   3.931   7.627  0.00  0.00    +0.000 A 
ATOM     25  H   UNL     1      43.948   5.777   9.574  0.00  0.00    +0.000 HD
BRANCH  18  27
ATOM     26  N   UNL     1      48.592   2.559   6.431  0.00  0.00    +0.000 N 
ATOM     27  C   UNL     1      47.495   1.845   6.833  0.00  0.00    +0.000 C 
ATOM     28  O   UNL     1      47.362   0.663   6.538  0.00  0.00    +0.000 OA
ATOM     29  H   UNL     1      49.316   2.036   5.955  0.00  0.00    +0.000 HD
ATOM     30  H   UNL     1      48.859   3.434   6.862  0.00  0.00    +0.000 HD
ENDBRANCH  18  27
ENDBRANCH  17  22
ENDBRANCH   1  17
TORSDOF 6
ENDMDL
MODEL 4
REMARK VINA RESULT:    -8.932      1.618      1.907
REMARK INTER + INTRA:         -12.938
REMARK INTER:                 -12.035
REMARK INTRA:                  -0.902
REMARK UNBOUND:                -0.873
REMARK  Name = 
REMARK  6 active torsions:
REMARK  status: ('A' for Active; 'I' for Inactive)
REMARK    1  A    between atoms: C_2  and  C_4
REMARK    2  A    between atoms: N_8  and  C_9
REMARK    3  A    between atoms: C_9  and  C_10
REMARK    4  A    between atoms: C_10  and  C_13
REMARK    5  A    between atoms: C_17  and  O_18
REMARK    6  A    between atoms: O_18  and  C_19
REMARK                            x       y       z     vdW  Elec       q    Type
REMARK                         _______ _______ _______ _____ _____    ______ ____
ROOT
ATOM      1  C   UNL     1      43.823   5.299  12.184  0.00  0.00    +0.000 C 
ATOM      2  F   UNL     1      44.100   6.538  11.676  0.00  0.00    +0.000 F 
ATOM      3  F   UNL     1      42.815   5.503  13.085  0.00  0.00    +0.000 F 
ENDROOT
BRANCH   1   4
ATOM      4  C   UNL     1      45.027   4.681  12.850  0.00  0.00    +0.000 A 
ATOM      5  C   UNL     1      45.368   3.355  12.622  0.00  0.00    +0.000 A 
ATOM      6  N   UNL     1      46.428   2.742  13.197  0.00  0.00    +0.000 NA
ATOM      7  C   UNL     1      47.200   3.496  14.016  0.00  0.00    +0.000 A 
ATOM      8  C   UNL     1      46.963   4.836  14.291  0.00  0.00    +0.000 A 
ATOM      9  C   UNL     1      45.844   5.426  13.714  0.00  0.00    +0.000 A 
BRANCH   8  10
ATOM     10  O   UNL     1      47.818   5.468  15.154  0.00  0.00    +0.000 OA
BRANCH  10  11
ATOM     11  C   UNL     1      48.303   4.724  16.300  0.00  0.00    +0.000 C 
ATOM     12  C   UNL     1      47.344   4.743  17.515  0.00  0.00    +0.000 C 
ATOM     13  C   UNL     1      48.547   4.952  18.439  0.00  0.00    +0.000 C 
ATOM     14  C   UNL     1      49.372   5.395  17.218  0.00  0.00    +0.000 C 
ATOM     15  F   UNL     1      50.614   4.861  17.145  0.00  0.00    +0.000 F 
ATOM     16  F   UNL     1      49.520   6.731  17.070  0.00  0.00    +0.000 F 
ENDBRANCH  10  11
ENDBRANCH   8  10
ENDBRANCH   1   4
BRANCH   1  17
ATOM     17  C   UNL     1      43.288   4.412  11.027  0.00  0.00    +0.000 C 
BRANCH  17  22
ATOM     18  C   UNL     1      46.603   2.756   7.496  0.00  0.00    +0.000 A 
ATOM     19  C   UNL     1      45.742   2.026   8.310  0.00  0.00    +0.000 A 
ATOM     20  C   UNL     1      44.802   2.706   9.087  0.00  0.00    +0.000 A 
ATOM     21  C   UNL     1      44.750   4.096   9.052  0.00  0.00    +0.000 A 
ATOM     22  N   UNL     1      43.792   4.834   9.714  0.00  0.00    +0.000 N 
ATOM     23  N   UNL     1      45.603   4.812   8.294  0.00  0.00    +0.000 NA
ATOM     24  C   UNL     1      46.512   4.137   7.539  0.00  0.00    +0.000 A 
ATOM     25  H   UNL     1      44.028   5.823   9.626  0.00  0.00    +0.000 HD
BRANCH  18  27
ATOM     26  N   UNL     1      48.073   2.879   5.568  0.00  0.00    +0.000 N 
ATOM     27  C   UNL     1      47.589   2.119   6.599  0.00  0.00    +0.000 C 
ATOM     28  O   UNL     1      47.988   0.977   6.789  0.00  0.00    +0.000 OA
ATOM     29  H   UNL     1      48.831   2.476   5.033  0.00  0.00    +0.000 HD
ATOM     30  H   UNL     1      47.967   3.885   5.536  0.00  0.00    +0.000 HD
ENDBRANCH  18  27
ENDBRANCH  17  22
ENDBRANCH   1  17
TORSDOF 6
ENDMDL
MODEL 5
REMARK VINA RESULT:    -8.738      3.064      5.613
REMARK INTER + INTRA:         -12.675
REMARK INTER:                 -11.912
REMARK INTRA:                  -0.763
REMARK UNBOUND:                -0.873
REMARK  Name = 
REMARK  6 active torsions:
REMARK  status: ('A' for Active; 'I' for Inactive)
REMARK    1  A    between atoms: C_2  and  C_4
REMARK    2  A    between atoms: N_8  and  C_9
REMARK    3  A    between atoms: C_9  and  C_10
REMARK    4  A    between atoms: C_10  and  C_13
REMARK    5  A    between atoms: C_17  and  O_18
REMARK    6  A    between atoms: O_18  and  C_19
REMARK                            x       y       z     vdW  Elec       q    Type
REMARK                         _______ _______ _______ _____ _____    ______ ____
ROOT
ATOM      1  C   UNL     1      44.336   4.659  12.287  0.00  0.00    +0.000 C 
ATOM      2  F   UNL     1      43.688   4.537  13.485  0.00  0.00    +0.000 F 
ATOM      3  F   UNL     1      45.209   3.608  12.247  0.00  0.00    +0.000 F 
ENDROOT
BRANCH   1   4
ATOM      4  C   UNL     1      45.067   5.973  12.174  0.00  0.00    +0.000 A 
ATOM      5  C   UNL     1      46.444   6.043  12.335  0.00  0.00    +0.000 A 
ATOM      6  N   UNL     1      47.153   7.191  12.256  0.00  0.00    +0.000 NA
ATOM      7  C   UNL     1      46.459   8.321  11.976  0.00  0.00    +0.000 A 
ATOM      8  C   UNL     1      45.087   8.359  11.772  0.00  0.00    +0.000 A 
ATOM      9  C   UNL     1      44.382   7.167  11.898  0.00  0.00    +0.000 A 
BRANCH   8  10
ATOM     10  O   UNL     1      44.517   9.576  11.515  0.00  0.00    +0.000 OA
BRANCH  10  11
ATOM     11  C   UNL     1      43.459   9.637  10.525  0.00  0.00    +0.000 C 
ATOM     12  C   UNL     1      43.664  10.731   9.450  0.00  0.00    +0.000 C 
ATOM     13  C   UNL     1      42.180  11.090   9.557  0.00  0.00    +0.000 C 
ATOM     14  C   UNL     1      42.129  10.359  10.909  0.00  0.00    +0.000 C 
ATOM     15  F   UNL     1      41.059   9.547  11.078  0.00  0.00    +0.000 F 
ATOM     16  F   UNL     1      42.184  11.153  12.002  0.00  0.00    +0.000 F 
ENDBRANCH  10  11
ENDBRANCH   8  10
ENDBRANCH   1   4
BRANCH   1  17
ATOM     17  C   UNL     1      43.290   4.484  11.153  0.00  0.00    +0.000 C 
BRANCH  17  22
ATOM     18  C   UNL     1      46.524   2.533   7.698  0.00  0.00    +0.000 A 
ATOM     19  C   UNL     1      45.616   1.880   8.526  0.00  0.00    +0.000 A 
ATOM     20  C   UNL     1      44.714   2.636   9.276  0.00  0.00    +0.000 A 
ATOM     21  C   UNL     1      44.744   4.025   9.200  0.00  0.00    +0.000 A 
ATOM     22  N   UNL     1      43.826   4.837   9.832  0.00  0.00    +0.000 N 
ATOM     23  N   UNL     1      45.642   4.667   8.428  0.00  0.00    +0.000 NA
ATOM     24  C   UNL     1      46.514   3.918   7.700  0.00  0.00    +0.000 A 
ATOM     25  H   UNL     1      44.120   5.807   9.717  0.00  0.00    +0.000 HD
BRANCH  18  27
ATOM     26  N   UNL     1      48.544   2.527   6.352  0.00  0.00    +0.000 N 
ATOM     27  C   UNL     1      47.476   1.814   6.828  0.00  0.00    +0.000 C 
ATOM     28  O   UNL     1      47.343   0.624   6.573  0.00  0.00    +0.000 OA
ATOM     29  H   UNL     1      49.251   1.998   5.856  0.00  0.00    +0.000 HD
ATOM     30  H   UNL     1      48.823   3.417   6.744  0.00  0.00    +0.000 HD
ENDBRANCH  18  27
ENDBRANCH  17  22
ENDBRANCH   1  17
TORSDOF 6
ENDMDL
MODEL 6
REMARK VINA RESULT:    -8.652      1.665      2.000
REMARK INTER + INTRA:         -12.559
REMARK INTER:                 -11.632
REMARK INTRA:                  -0.927
REMARK UNBOUND:                -0.873
REMARK  Name = 
REMARK  6 active torsions:
REMARK  status: ('A' for Active; 'I' for Inactive)
REMARK    1  A    between atoms: C_2  and  C_4
REMARK    2  A    between atoms: N_8  and  C_9
REMARK    3  A    between atoms: C_9  and  C_10
REMARK    4  A    between atoms: C_10  and  C_13
REMARK    5  A    between atoms: C_17  and  O_18
REMARK    6  A    between atoms: O_18  and  C_19
REMARK                            x       y       z     vdW  Elec       q    Type
REMARK                         _______ _______ _______ _____ _____    ______ ____
ROOT
ATOM      1  C   UNL     1      43.404   4.594  12.507  0.00  0.00    +0.000 C 
ATOM      2  F   UNL     1      42.323   5.403  12.716  0.00  0.00    +0.000 F 
ATOM      3  F   UNL     1      43.336   3.648  13.492  0.00  0.00    +0.000 F 
ENDROOT
BRANCH   1   4
ATOM      4  C   UNL     1      44.702   5.358  12.581  0.00  0.00    +0.000 A 
ATOM      5  C   UNL     1      44.918   6.481  11.793  0.00  0.00    +0.000 A 
ATOM      6  N   UNL     1      46.062   7.201  11.807  0.00  0.00    +0.000 NA
ATOM      7  C   UNL     1      47.028   6.798  12.668  0.00  0.00    +0.000 A 
ATOM      8  C   UNL     1      46.905   5.707  13.517  0.00  0.00    +0.000 A 
ATOM      9  C   UNL     1      45.730   4.966  13.452  0.00  0.00    +0.000 A 
BRANCH   8  10
ATOM     10  O   UNL     1      47.971   5.406  14.322  0.00  0.00    +0.000 OA
BRANCH  10  11
ATOM     11  C   UNL     1      48.330   6.354  15.360  0.00  0.00    +0.000 C 
ATOM     12  C   UNL     1      49.748   6.951  15.204  0.00  0.00    +0.000 C 
ATOM     13  C   UNL     1      49.964   6.788  16.710  0.00  0.00    +0.000 C 
ATOM     14  C   UNL     1      48.790   5.795  16.742  0.00  0.00    +0.000 C 
ATOM     15  F   UNL     1      47.916   5.978  17.760  0.00  0.00    +0.000 F 
ATOM     16  F   UNL     1      49.135   4.487  16.765  0.00  0.00    +0.000 F 
ENDBRANCH  10  11
ENDBRANCH   8  10
ENDBRANCH   1   4
BRANCH   1  17
ATOM     17  C   UNL     1      43.226   3.897  11.130  0.00  0.00    +0.000 C 
BRANCH  17  22
ATOM     18  C   UNL     1      46.524   2.870   7.353  0.00  0.00    +0.000 A 
ATOM     19  C   UNL     1      46.061   4.100   7.811  0.00  0.00    +0.000 A 
ATOM     20  C   UNL     1      45.286   4.144   8.972  0.00  0.00    +0.000 A 
ATOM     21  C   UNL     1      44.973   2.966   9.641  0.00  0.00    +0.000 A 
ATOM     22  N   UNL     1      44.297   2.935  10.842  0.00  0.00    +0.000 N 
ATOM     23  N   UNL     1      45.387   1.768   9.185  0.00  0.00    +0.000 NA
ATOM     24  C   UNL     1      46.144   1.738   8.054  0.00  0.00    +0.000 A 
ATOM     25  H   UNL     1      44.093   1.962  11.074  0.00  0.00    +0.000 HD
BRANCH  18  27
ATOM     26  N   UNL     1      48.689   2.345   6.389  0.00  0.00    +0.000 N 
ATOM     27  C   UNL     1      47.394   2.732   6.168  0.00  0.00    +0.000 C 
ATOM     28  O   UNL     1      46.971   2.917   5.033  0.00  0.00    +0.000 OA
ATOM     29  H   UNL     1      49.241   2.140   5.565  0.00  0.00    +0.000 HD
ATOM     30  H   UNL     1      48.994   1.939   7.263  0.00  0.00    +0.000 HD
ENDBRANCH  18  27
ENDBRANCH  17  22
ENDBRANCH   1  17
TORSDOF 6
ENDMDL
MODEL 7
REMARK VINA RESULT:    -8.449      2.872      4.228
REMARK INTER + INTRA:         -12.285
REMARK INTER:                 -11.639
REMARK INTRA:                  -0.646
REMARK UNBOUND:                -0.873
REMARK  Name = 
REMARK  6 active torsions:
REMARK  status: ('A' for Active; 'I' for Inactive)
REMARK    1  A    between atoms: C_2  and  C_4
REMARK    2  A    between atoms: N_8  and  C_9
REMARK    3  A    between atoms: C_9  and  C_10
REMARK    4  A    between atoms: C_10  and  C_13
REMARK    5  A    between atoms: C_17  and  O_18
REMARK    6  A    between atoms: O_18  and  C_19
REMARK                            x       y       z     vdW  Elec       q    Type
REMARK                         _______ _______ _______ _____ _____    ______ ____
ROOT
ATOM      1  C   UNL     1      44.271   4.500  12.313  0.00  0.00    +0.000 C 
ATOM      2  F   UNL     1      43.612   4.368  13.504  0.00  0.00    +0.000 F 
ATOM      3  F   UNL     1      45.108   3.421  12.249  0.00  0.00    +0.000 F 
ENDROOT
BRANCH   1   4
ATOM      4  C   UNL     1      45.046   5.792  12.239  0.00  0.00    +0.000 A 
ATOM      5  C   UNL     1      44.397   7.008  12.073  0.00  0.00    +0.000 A 
ATOM      6  N   UNL     1      45.036   8.196  11.989  0.00  0.00    +0.000 NA
ATOM      7  C   UNL     1      46.387   8.173  12.104  0.00  0.00    +0.000 A 
ATOM      8  C   UNL     1      47.130   7.018  12.297  0.00  0.00    +0.000 A 
ATOM      9  C   UNL     1      46.445   5.808  12.342  0.00  0.00    +0.000 A 
BRANCH   8  10
ATOM     10  O   UNL     1      48.491   7.144  12.377  0.00  0.00    +0.000 OA
BRANCH  10  11
ATOM     11  C   UNL     1      49.160   7.953  11.377  0.00  0.00    +0.000 C 
ATOM     12  C   UNL     1      50.686   7.712  11.290  0.00  0.00    +0.000 C 
ATOM     13  C   UNL     1      50.901   9.223  11.169  0.00  0.00    +0.000 C 
ATOM     14  C   UNL     1      49.483   9.440  11.724  0.00  0.00    +0.000 C 
ATOM     15  F   UNL     1      48.746  10.362  11.061  0.00  0.00    +0.000 F 
ATOM     16  F   UNL     1      49.416   9.768  13.035  0.00  0.00    +0.000 F 
ENDBRANCH  10  11
ENDBRANCH   8  10
ENDBRANCH   1   4
BRANCH   1  17
ATOM     17  C   UNL     1      43.225   4.391  11.170  0.00  0.00    +0.000 C 
BRANCH  17  22
ATOM     18  C   UNL     1      46.479   2.518   7.690  0.00  0.00    +0.000 A 
ATOM     19  C   UNL     1      45.560   1.847   8.492  0.00  0.00    +0.000 A 
ATOM     20  C   UNL     1      44.655   2.588   9.254  0.00  0.00    +0.000 A 
ATOM     21  C   UNL     1      44.694   3.978   9.217  0.00  0.00    +0.000 A 
ATOM     22  N   UNL     1      43.775   4.777   9.864  0.00  0.00    +0.000 N 
ATOM     23  N   UNL     1      45.603   4.635   8.472  0.00  0.00    +0.000 NA
ATOM     24  C   UNL     1      46.477   3.902   7.731  0.00  0.00    +0.000 A 
ATOM     25  H   UNL     1      44.076   5.749   9.779  0.00  0.00    +0.000 HD
BRANCH  18  27
ATOM     26  N   UNL     1      48.539   2.520   6.406  0.00  0.00    +0.000 N 
ATOM     27  C   UNL     1      47.435   1.817   6.809  0.00  0.00    +0.000 C 
ATOM     28  O   UNL     1      47.272   0.648   6.483  0.00  0.00    +0.000 OA
ATOM     29  H   UNL     1      49.243   1.997   5.901  0.00  0.00    +0.000 HD
ATOM     30  H   UNL     1      48.833   3.377   6.856  0.00  0.00    +0.000 HD
ENDBRANCH  18  27
ENDBRANCH  17  22
ENDBRANCH   1  17
TORSDOF 6
ENDMDL
MODEL 8
REMARK VINA RESULT:    -8.173      3.413      8.228
REMARK INTER + INTRA:         -11.913
REMARK INTER:                 -11.594
REMARK INTRA:                  -0.318
REMARK UNBOUND:                -0.873
REMARK  Name = 
REMARK  6 active torsions:
REMARK  status: ('A' for Active; 'I' for Inactive)
REMARK    1  A    between atoms: C_2  and  C_4
REMARK    2  A    between atoms: N_8  and  C_9
REMARK    3  A    between atoms: C_9  and  C_10
REMARK    4  A    between atoms: C_10  and  C_13
REMARK    5  A    between atoms: C_17  and  O_18
REMARK    6  A    between atoms: O_18  and  C_19
REMARK                            x       y       z     vdW  Elec       q    Type
REMARK                         _______ _______ _______ _____ _____    ______ ____
ROOT
ATOM      1  C   UNL     1      45.624   6.606  12.185  0.00  0.00    +0.000 C 
ATOM      2  F   UNL     1      44.628   6.839  13.092  0.00  0.00    +0.000 F 
ATOM      3  F   UNL     1      46.003   7.846  11.750  0.00  0.00    +0.000 F 
ENDROOT
BRANCH   1   4
ATOM      4  C   UNL     1      45.152   5.750  11.037  0.00  0.00    +0.000 A 
ATOM      5  C   UNL     1      43.872   5.212  11.024  0.00  0.00    +0.000 A 
ATOM      6  N   UNL     1      43.396   4.430  10.030  0.00  0.00    +0.000 NA
ATOM      7  C   UNL     1      44.226   4.195   8.985  0.00  0.00    +0.000 A 
ATOM      8  C   UNL     1      45.513   4.705   8.886  0.00  0.00    +0.000 A 
ATOM      9  C   UNL     1      45.986   5.475   9.943  0.00  0.00    +0.000 A 
BRANCH   8  10
ATOM     10  O   UNL     1      46.245   4.370   7.779  0.00  0.00    +0.000 OA
BRANCH  10  11
ATOM     11  C   UNL     1      46.083   3.036   7.232  0.00  0.00    +0.000 C 
ATOM     12  C   UNL     1      46.180   1.907   8.286  0.00  0.00    +0.000 C 
ATOM     13  C   UNL     1      47.028   1.091   7.307  0.00  0.00    +0.000 C 
ATOM     14  C   UNL     1      47.302   2.379   6.513  0.00  0.00    +0.000 C 
ATOM     15  F   UNL     1      47.185   2.258   5.170  0.00  0.00    +0.000 F 
ATOM     16  F   UNL     1      48.503   2.958   6.741  0.00  0.00    +0.000 F 
ENDBRANCH  10  11
ENDBRANCH   8  10
ENDBRANCH   1   4
BRANCH   1  17
ATOM     17  C   UNL     1      46.817   5.954  12.936  0.00  0.00    +0.000 C 
BRANCH  17  22
ATOM     18  C   UNL     1      48.659   4.318  17.424  0.00  0.00    +0.000 A 
ATOM     19  C   UNL     1      48.819   5.552  16.800  0.00  0.00    +0.000 A 
ATOM     20  C   UNL     1      48.082   5.831  15.647  0.00  0.00    +0.000 A 
ATOM     21  C   UNL     1      47.215   4.874  15.131  0.00  0.00    +0.000 A 
ATOM     22  N   UNL     1      46.383   5.109  14.057  0.00  0.00    +0.000 N 
ATOM     23  N   UNL     1      47.079   3.665  15.708  0.00  0.00    +0.000 NA
ATOM     24  C   UNL     1      47.801   3.405  16.832  0.00  0.00    +0.000 A 
ATOM     25  H   UNL     1      45.931   4.231  13.801  0.00  0.00    +0.000 HD
BRANCH  18  27
ATOM     26  N   UNL     1      48.594   3.404  19.671  0.00  0.00    +0.000 N 
ATOM     27  C   UNL     1      49.354   3.957  18.676  0.00  0.00    +0.000 C 
ATOM     28  O   UNL     1      50.562   4.107  18.807  0.00  0.00    +0.000 OA
ATOM     29  H   UNL     1      49.098   3.053  20.476  0.00  0.00    +0.000 HD
ATOM     30  H   UNL     1      47.668   3.032  19.507  0.00  0.00    +0.000 HD
ENDBRANCH  18  27
ENDBRANCH  17  22
ENDBRANCH   1  17
TORSDOF 6
ENDMDL
MODEL 9
REMARK VINA RESULT:    -7.270      3.484      7.486
REMARK INTER + INTRA:         -10.693
REMARK INTER:                 -10.691
REMARK INTRA:                  -0.002
REMARK UNBOUND:                -0.873
REMARK  Name = 
REMARK  6 active torsions:
REMARK  status: ('A' for Active; 'I' for Inactive)
REMARK    1  A    between atoms: C_2  and  C_4
REMARK    2  A    between atoms: N_8  and  C_9
REMARK    3  A    between atoms: C_9  and  C_10
REMARK    4  A    between atoms: C_10  and  C_13
REMARK    5  A    between atoms: C_17  and  O_18
REMARK    6  A    between atoms: O_18  and  C_19
REMARK                            x       y       z     vdW  Elec       q    Type
REMARK                         _______ _______ _______ _____ _____    ______ ____
ROOT
ATOM      1  C   UNL     1      44.533   5.518  12.843  0.00  0.00    +0.000 C 
ATOM      2  F   UNL     1      45.223   4.980  13.893  0.00  0.00    +0.000 F 
ATOM      3  F   UNL     1      43.293   5.805  13.343  0.00  0.00    +0.000 F 
ENDROOT
BRANCH   1   4
ATOM      4  C   UNL     1      44.440   4.561  11.681  0.00  0.00    +0.000 A 
ATOM      5  C   UNL     1      43.642   3.427  11.749  0.00  0.00    +0.000 A 
ATOM      6  N   UNL     1      43.525   2.529  10.747  0.00  0.00    +0.000 NA
ATOM      7  C   UNL     1      44.216   2.787   9.610  0.00  0.00    +0.000 A 
ATOM      8  C   UNL     1      45.022   3.902   9.427  0.00  0.00    +0.000 A 
ATOM      9  C   UNL     1      45.149   4.788  10.492  0.00  0.00    +0.000 A 
BRANCH   8  10
ATOM     10  O   UNL     1      45.675   4.025   8.231  0.00  0.00    +0.000 OA
BRANCH  10  11
ATOM     11  C   UNL     1      45.807   2.841   7.403  0.00  0.00    +0.000 C 
ATOM     12  C   UNL     1      46.244   1.575   8.178  0.00  0.00    +0.000 C 
ATOM     13  C   UNL     1      47.200   1.226   7.034  0.00  0.00    +0.000 C 
ATOM     14  C   UNL     1      47.101   2.681   6.545  0.00  0.00    +0.000 C 
ATOM     15  F   UNL     1      46.931   2.824   5.209  0.00  0.00    +0.000 F 
ATOM     16  F   UNL     1      48.138   3.481   6.886  0.00  0.00    +0.000 F 
ENDBRANCH  10  11
ENDBRANCH   8  10
ENDBRANCH   1   4
BRANCH   1  17
ATOM     17  C   UNL     1      45.229   6.847  12.439  0.00  0.00    +0.000 C 
BRANCH  17  22
ATOM     18  C   UNL     1      50.186   8.102  12.666  0.00  0.00    +0.000 A 
ATOM     19  C   UNL     1      49.263   8.330  11.650  0.00  0.00    +0.000 A 
ATOM     20  C   UNL     1      47.916   8.044  11.879  0.00  0.00    +0.000 A 
ATOM     21  C   UNL     1      47.518   7.521  13.105  0.00  0.00    +0.000 A 
ATOM     22  N   UNL     1      46.199   7.303  13.442  0.00  0.00    +0.000 N 
ATOM     23  N   UNL     1      48.410   7.264  14.082  0.00  0.00    +0.000 NA
ATOM     24  C   UNL     1      49.719   7.549  13.847  0.00  0.00    +0.000 A 
ATOM     25  H   UNL     1      46.171   6.817  14.339  0.00  0.00    +0.000 HD
BRANCH  18  27
ATOM     26  N   UNL     1      52.444   8.041  13.557  0.00  0.00    +0.000 N 
ATOM     27  C   UNL     1      51.621   8.427  12.532  0.00  0.00    +0.000 C 
ATOM     28  O   UNL     1      52.065   8.981  11.535  0.00  0.00    +0.000 OA
ATOM     29  H   UNL     1      53.437   8.162  13.403  0.00  0.00    +0.000 HD
ATOM     30  H   UNL     1      52.163   7.366  14.256  0.00  0.00    +0.000 HD
ENDBRANCH  18  27
ENDBRANCH  17  22
ENDBRANCH   1  17
TORSDOF 6
ENDMDL
