MODEL 1
REMARK VINA RESULT:    -9.925      0.000      0.000
REMARK INTER + INTRA:         -14.286
REMARK INTER:                 -13.407
REMARK INTRA:                  -0.879
REMARK UNBOUND:                -0.879
REMARK  Name = 
REMARK  6 active torsions:
REMARK  status: ('A' for Active; 'I' for Inactive)
REMARK    1  A    between atoms: C_2  and  C_4
REMARK    2  A    between atoms: N_8  and  C_9
REMARK    3  A    between atoms: C_9  and  C_10
REMARK    4  A    between atoms: C_10  and  C_13
REMARK    5  A    between atoms: C_17  and  O_18
REMARK    6  A    between atoms: O_18  and  C_19
REMARK                            x       y       z     vdW  Elec       q    Type
REMARK                         _______ _______ _______ _____ _____    ______ ____
ROOT
ATOM      1  C   UNL     1      43.246   4.397  11.143  0.00  0.00    +0.000 C 
ENDROOT
BRANCH   1   6
ATOM      2  C   UNL     1      46.530   2.500   7.699  0.00  0.00    +0.000 A 
ATOM      3  C   UNL     1      45.688   1.834   8.585  0.00  0.00    +0.000 A 
ATOM      4  C   UNL     1      44.757   2.571   9.321  0.00  0.00    +0.000 A 
ATOM      5  C   UNL     1      44.681   3.951   9.167  0.00  0.00    +0.000 A 
ATOM      6  N   UNL     1      43.716   4.724   9.787  0.00  0.00    +0.000 N 
ATOM      7  N   UNL     1      45.509   4.607   8.330  0.00  0.00    +0.000 NA
ATOM      8  C   UNL     1      46.419   3.876   7.623  0.00  0.00    +0.000 A 
ATOM      9  H   UNL     1      43.914   5.708   9.613  0.00  0.00    +0.000 HD
BRANCH   2  11
ATOM     10  N   UNL     1      48.587   2.519   6.409  0.00  0.00    +0.000 N 
ATOM     11  C   UNL     1      47.521   1.792   6.860  0.00  0.00    +0.000 C 
ATOM     12  O   UNL     1      47.413   0.600   6.610  0.00  0.00    +0.000 OA
ATOM     13  H   UNL     1      49.314   2.000   5.928  0.00  0.00    +0.000 HD
ATOM     14  H   UNL     1      48.846   3.409   6.810  0.00  0.00    +0.000 HD
ENDBRANCH   2  11
ENDBRANCH   1   6
BRANCH   1  15
ATOM     15  C   UNL     1      43.457   5.553  12.163  0.00  0.00    +0.000 C 
ATOM     16  F   UNL     1      43.067   6.719  11.560  0.00  0.00    +0.000 F 
ATOM     17  F   UNL     1      42.591   5.383  13.205  0.00  0.00    +0.000 F 
BRANCH  15  18
ATOM     18  C   UNL     1      44.900   5.617  12.639  0.00  0.00    +0.000 A 
ATOM     19  C   UNL     1      45.696   6.733  12.347  0.00  0.00    +0.000 A 
ATOM     20  C   UNL     1      47.022   6.789  12.781  0.00  0.00    +0.000 A 
ATOM     21  C   UNL     1      47.569   5.737  13.521  0.00  0.00    +0.000 A 
ATOM     22  C   UNL     1      46.790   4.626  13.835  0.00  0.00    +0.000 A 
ATOM     23  C   UNL     1      45.463   4.567  13.393  0.00  0.00    +0.000 A 
BRANCH  22  24
ATOM     24  O   UNL     1      47.219   3.583  14.624  0.00  0.00    +0.000 OA
BRANCH  24  25
ATOM     25  C   UNL     1      47.532   3.852  16.009  0.00  0.00    +0.000 C 
ATOM     26  C   UNL     1      48.542   2.897  16.668  0.00  0.00    +0.000 C 
ATOM     27  C   UNL     1      47.530   2.845  17.808  0.00  0.00    +0.000 C 
ATOM     28  O   UNL     1      46.514   3.446  16.971  0.00  0.00    +0.000 OA
ENDBRANCH  24  25
ENDBRANCH  22  24
ENDBRANCH  15  18
ENDBRANCH   1  15
TORSDOF 6
ENDMDL
MODEL 2
REMARK VINA RESULT:    -8.821      2.189      3.499
REMARK INTER + INTRA:         -12.794
REMARK INTER:                 -11.846
REMARK INTRA:                  -0.948
REMARK UNBOUND:                -0.879
REMARK  Name = 
REMARK  6 active torsions:
REMARK  status: ('A' for Active; 'I' for Inactive)
REMARK    1  A    between atoms: C_2  and  C_4
REMARK    2  A    between atoms: N_8  and  C_9
REMARK    3  A    between atoms: C_9  and  C_10
REMARK    4  A    between atoms: C_10  and  C_13
REMARK    5  A    between atoms: C_17  and  O_18
REMARK    6  A    between atoms: O_18  and  C_19
REMARK                            x       y       z     vdW  Elec       q    Type
REMARK                         _______ _______ _______ _____ _____    ______ ____
ROOT
ATOM      1  C   UNL     1      43.244   4.419  11.125  0.00  0.00    +0.000 C 
ENDROOT
BRANCH   1   6
ATOM      2  C   UNL     1      46.503   2.484   7.678  0.00  0.00    +0.000 A 
ATOM      3  C   UNL     1      45.677   1.829   8.586  0.00  0.00    +0.000 A 
ATOM      4  C   UNL     1      44.749   2.571   9.319  0.00  0.00    +0.000 A 
ATOM      5  C   UNL     1      44.660   3.948   9.140  0.00  0.00    +0.000 A 
ATOM      6  N   UNL     1      43.695   4.725   9.757  0.00  0.00    +0.000 N 
ATOM      7  N   UNL     1      45.473   4.595   8.282  0.00  0.00    +0.000 NA
ATOM      8  C   UNL     1      46.381   3.859   7.578  0.00  0.00    +0.000 A 
ATOM      9  H   UNL     1      43.883   5.707   9.563  0.00  0.00    +0.000 HD
BRANCH   2  11
ATOM     10  N   UNL     1      48.586   2.476   6.430  0.00  0.00    +0.000 N 
ATOM     11  C   UNL     1      47.491   1.769   6.841  0.00  0.00    +0.000 C 
ATOM     12  O   UNL     1      47.353   0.588   6.558  0.00  0.00    +0.000 OA
ATOM     13  H   UNL     1      49.308   1.948   5.950  0.00  0.00    +0.000 HD
ATOM     14  H   UNL     1      48.863   3.347   6.859  0.00  0.00    +0.000 HD
ENDBRANCH   2  11
ENDBRANCH   1   6
BRANCH   1  15
ATOM     15  C   UNL     1      43.472   5.590  12.123  0.00  0.00    +0.000 C 
ATOM     16  F   UNL     1      43.000   6.736  11.540  0.00  0.00    +0.000 F 
ATOM     17  F   UNL     1      42.678   5.395  13.218  0.00  0.00    +0.000 F 
BRANCH  15  18
ATOM     18  C   UNL     1      44.937   5.714  12.510  0.00  0.00    +0.000 A 
ATOM     19  C   UNL     1      45.523   4.785  13.382  0.00  0.00    +0.000 A 
ATOM     20  C   UNL     1      46.867   4.902  13.740  0.00  0.00    +0.000 A 
ATOM     21  C   UNL     1      47.649   5.939  13.224  0.00  0.00    +0.000 A 
ATOM     22  C   UNL     1      47.091   6.862  12.344  0.00  0.00    +0.000 A 
ATOM     23  C   UNL     1      45.740   6.749  11.992  0.00  0.00    +0.000 A 
BRANCH  22  24
ATOM     24  O   UNL     1      47.802   7.866  11.726  0.00  0.00    +0.000 OA
BRANCH  24  25
ATOM     25  C   UNL     1      49.180   8.070  12.111  0.00  0.00    +0.000 C 
ATOM     26  C   UNL     1      49.763   9.462  11.812  0.00  0.00    +0.000 C 
ATOM     27  C   UNL     1      50.943   8.686  11.238  0.00  0.00    +0.000 C 
ATOM     28  O   UNL     1      50.172   7.462  11.232  0.00  0.00    +0.000 OA
ENDBRANCH  24  25
ENDBRANCH  22  24
ENDBRANCH  15  18
ENDBRANCH   1  15
TORSDOF 6
ENDMDL
MODEL 3
REMARK VINA RESULT:    -8.633      2.063      2.414
REMARK INTER + INTRA:         -12.540
REMARK INTER:                 -11.473
REMARK INTRA:                  -1.067
REMARK UNBOUND:                -0.879
REMARK  Name = 
REMARK  6 active torsions:
REMARK  status: ('A' for Active; 'I' for Inactive)
REMARK    1  A    between atoms: C_2  and  C_4
REMARK    2  A    between atoms: N_8  and  C_9
REMARK    3  A    between atoms: C_9  and  C_10
REMARK    4  A    between atoms: C_10  and  C_13
REMARK    5  A    between atoms: C_17  and  O_18
REMARK    6  A    between atoms: O_18  and  C_19
REMARK                            x       y       z     vdW  Elec       q    Type
REMARK                         _______ _______ _______ _____ _____    ______ ____
ROOT
ATOM      1  C   UNL     1      43.196   3.806  11.176  0.00  0.00    +0.000 C 
ENDROOT
BRANCH   1   6
ATOM      2  C   UNL     1      46.492   2.832   7.376  0.00  0.00    +0.000 A 
ATOM      3  C   UNL     1      46.046   4.052   7.875  0.00  0.00    +0.000 A 
ATOM      4  C   UNL     1      45.264   4.068   9.032  0.00  0.00    +0.000 A 
ATOM      5  C   UNL     1      44.937   2.875   9.670  0.00  0.00    +0.000 A 
ATOM      6  N   UNL     1      44.255   2.829  10.872  0.00  0.00    +0.000 N 
ATOM      7  N   UNL     1      45.343   1.687   9.179  0.00  0.00    +0.000 NA
ATOM      8  C   UNL     1      46.099   1.686   8.044  0.00  0.00    +0.000 A 
ATOM      9  H   UNL     1      44.040   1.858  11.096  0.00  0.00    +0.000 HD
BRANCH   2  11
ATOM     10  N   UNL     1      48.673   2.459   6.375  0.00  0.00    +0.000 N 
ATOM     11  C   UNL     1      47.348   2.729   6.175  0.00  0.00    +0.000 C 
ATOM     12  O   UNL     1      46.886   2.845   5.048  0.00  0.00    +0.000 OA
ATOM     13  H   UNL     1      49.227   2.282   5.544  0.00  0.00    +0.000 HD
ATOM     14  H   UNL     1      49.027   2.095   7.249  0.00  0.00    +0.000 HD
ENDBRANCH   2  11
ENDBRANCH   1   6
BRANCH   1  15
ATOM     15  C   UNL     1      43.430   4.571  12.509  0.00  0.00    +0.000 C 
ATOM     16  F   UNL     1      42.291   5.277  12.793  0.00  0.00    +0.000 F 
ATOM     17  F   UNL     1      43.548   3.663  13.523  0.00  0.00    +0.000 F 
BRANCH  15  18
ATOM     18  C   UNL     1      44.650   5.476  12.424  0.00  0.00    +0.000 A 
ATOM     19  C   UNL     1      44.609   6.654  11.665  0.00  0.00    +0.000 A 
ATOM     20  C   UNL     1      45.730   7.481  11.582  0.00  0.00    +0.000 A 
ATOM     21  C   UNL     1      46.904   7.151  12.266  0.00  0.00    +0.000 A 
ATOM     22  C   UNL     1      46.960   5.994  13.038  0.00  0.00    +0.000 A 
ATOM     23  C   UNL     1      45.837   5.161  13.113  0.00  0.00    +0.000 A 
BRANCH  22  24
ATOM     24  O   UNL     1      48.043   5.632  13.807  0.00  0.00    +0.000 OA
BRANCH  24  25
ATOM     25  C   UNL     1      48.517   6.561  14.809  0.00  0.00    +0.000 C 
ATOM     26  C   UNL     1      49.767   7.375  14.434  0.00  0.00    +0.000 C 
ATOM     27  C   UNL     1      50.268   6.971  15.816  0.00  0.00    +0.000 C 
ATOM     28  O   UNL     1      49.238   5.961  15.926  0.00  0.00    +0.000 OA
ENDBRANCH  24  25
ENDBRANCH  22  24
ENDBRANCH  15  18
ENDBRANCH   1  15
TORSDOF 6
ENDMDL
MODEL 4
REMARK VINA RESULT:    -7.735      3.400      7.894
REMARK INTER + INTRA:         -11.327
REMARK INTER:                 -10.620
REMARK INTRA:                  -0.707
REMARK UNBOUND:                -0.879
REMARK  Name = 
REMARK  6 active torsions:
REMARK  status: ('A' for Active; 'I' for Inactive)
REMARK    1  A    between atoms: C_2  and  C_4
REMARK    2  A    between atoms: N_8  and  C_9
REMARK    3  A    between atoms: C_9  and  C_10
REMARK    4  A    between atoms: C_10  and  C_13
REMARK    5  A    between atoms: C_17  and  O_18
REMARK    6  A    between atoms: O_18  and  C_19
REMARK                            x       y       z     vdW  Elec       q    Type
REMARK                         _______ _______ _______ _____ _____    ______ ____
ROOT
ATOM      1  C   UNL     1      45.960   6.075  13.038  0.00  0.00    +0.000 C 
ENDROOT
BRANCH   1   6
ATOM      2  C   UNL     1      48.594   4.308  17.061  0.00  0.00    +0.000 A 
ATOM      3  C   UNL     1      47.594   3.694  16.314  0.00  0.00    +0.000 A 
ATOM      4  C   UNL     1      47.133   4.317  15.152  0.00  0.00    +0.000 A 
ATOM      5  C   UNL     1      47.671   5.537  14.756  0.00  0.00    +0.000 A 
ATOM      6  N   UNL     1      47.333   6.155  13.565  0.00  0.00    +0.000 N 
ATOM      7  N   UNL     1      48.621   6.152  15.487  0.00  0.00    +0.000 NA
ATOM      8  C   UNL     1      49.056   5.536  16.624  0.00  0.00    +0.000 A 
ATOM      9  H   UNL     1      47.767   7.076  13.532  0.00  0.00    +0.000 HD
BRANCH   2  11
ATOM     10  N   UNL     1      48.273   3.186  19.191  0.00  0.00    +0.000 N 
ATOM     11  C   UNL     1      49.159   3.702  18.287  0.00  0.00    +0.000 C 
ATOM     12  O   UNL     1      50.366   3.631  18.467  0.00  0.00    +0.000 OA
ATOM     13  H   UNL     1      48.673   2.677  19.972  0.00  0.00    +0.000 HD
ATOM     14  H   UNL     1      47.312   2.985  18.956  0.00  0.00    +0.000 HD
ENDBRANCH   2  11
ENDBRANCH   1   6
BRANCH   1  15
ATOM     15  C   UNL     1      45.871   6.356  11.511  0.00  0.00    +0.000 C 
ATOM     16  F   UNL     1      45.063   7.446  11.331  0.00  0.00    +0.000 F 
ATOM     17  F   UNL     1      47.101   6.747  11.063  0.00  0.00    +0.000 F 
BRANCH  15  18
ATOM     18  C   UNL     1      45.359   5.141  10.752  0.00  0.00    +0.000 A 
ATOM     19  C   UNL     1      44.613   4.154  11.411  0.00  0.00    +0.000 A 
ATOM     20  C   UNL     1      44.148   3.037  10.715  0.00  0.00    +0.000 A 
ATOM     21  C   UNL     1      44.411   2.894   9.350  0.00  0.00    +0.000 A 
ATOM     22  C   UNL     1      45.137   3.871   8.673  0.00  0.00    +0.000 A 
ATOM     23  C   UNL     1      45.610   4.987   9.374  0.00  0.00    +0.000 A 
BRANCH  22  24
ATOM     24  O   UNL     1      45.374   3.854   7.317  0.00  0.00    +0.000 OA
BRANCH  24  25
ATOM     25  C   UNL     1      46.713   3.561   6.857  0.00  0.00    +0.000 C 
ATOM     26  C   UNL     1      46.815   2.828   5.509  0.00  0.00    +0.000 C 
ATOM     27  C   UNL     1      47.799   1.922   6.239  0.00  0.00    +0.000 C 
ATOM     28  O   UNL     1      47.371   2.441   7.520  0.00  0.00    +0.000 OA
ENDBRANCH  24  25
ENDBRANCH  22  24
ENDBRANCH  15  18
ENDBRANCH   1  15
TORSDOF 6
ENDMDL
MODEL 5
REMARK VINA RESULT:    -7.689      3.514      8.198
REMARK INTER + INTRA:         -11.265
REMARK INTER:                 -10.702
REMARK INTRA:                  -0.563
REMARK UNBOUND:                -0.879
REMARK  Name = 
REMARK  6 active torsions:
REMARK  status: ('A' for Active; 'I' for Inactive)
REMARK    1  A    between atoms: C_2  and  C_4
REMARK    2  A    between atoms: N_8  and  C_9
REMARK    3  A    between atoms: C_9  and  C_10
REMARK    4  A    between atoms: C_10  and  C_13
REMARK    5  A    between atoms: C_17  and  O_18
REMARK    6  A    between atoms: O_18  and  C_19
REMARK                            x       y       z     vdW  Elec       q    Type
REMARK                         _______ _______ _______ _____ _____    ______ ____
ROOT
ATOM      1  C   UNL     1      46.971   5.448  13.096  0.00  0.00    +0.000 C 
ENDROOT
BRANCH   1   6
ATOM      2  C   UNL     1      48.561   4.415  17.856  0.00  0.00    +0.000 A 
ATOM      3  C   UNL     1      48.884   5.482  17.023  0.00  0.00    +0.000 A 
ATOM      4  C   UNL     1      48.194   5.636  15.818  0.00  0.00    +0.000 A 
ATOM      5  C   UNL     1      47.201   4.729  15.462  0.00  0.00    +0.000 A 
ATOM      6  N   UNL     1      46.412   4.883  14.336  0.00  0.00    +0.000 N 
ATOM      7  N   UNL     1      46.900   3.678  16.250  0.00  0.00    +0.000 NA
ATOM      8  C   UNL     1      47.587   3.535  17.420  0.00  0.00    +0.000 A 
ATOM      9  H   UNL     1      45.829   4.055  14.222  0.00  0.00    +0.000 HD
BRANCH   2  11
ATOM     10  N   UNL     1      48.544   3.451  20.085  0.00  0.00    +0.000 N 
ATOM     11  C   UNL     1      49.222   4.196  19.161  0.00  0.00    +0.000 C 
ATOM     12  O   UNL     1      50.341   4.633  19.392  0.00  0.00    +0.000 OA
ATOM     13  H   UNL     1      49.050   3.216  20.932  0.00  0.00    +0.000 HD
ATOM     14  H   UNL     1      47.762   2.861  19.839  0.00  0.00    +0.000 HD
ENDBRANCH   2  11
ENDBRANCH   1   6
BRANCH   1  15
ATOM     15  C   UNL     1      45.892   6.060  12.159  0.00  0.00    +0.000 C 
ATOM     16  F   UNL     1      44.917   6.612  12.946  0.00  0.00    +0.000 F 
ATOM     17  F   UNL     1      46.442   7.113  11.483  0.00  0.00    +0.000 F 
BRANCH  15  18
ATOM     18  C   UNL     1      45.328   5.018  11.206  0.00  0.00    +0.000 A 
ATOM     19  C   UNL     1      44.430   4.045  11.668  0.00  0.00    +0.000 A 
ATOM     20  C   UNL     1      43.916   3.085  10.794  0.00  0.00    +0.000 A 
ATOM     21  C   UNL     1      44.281   3.090   9.445  0.00  0.00    +0.000 A 
ATOM     22  C   UNL     1      45.159   4.057   8.962  0.00  0.00    +0.000 A 
ATOM     23  C   UNL     1      45.680   5.015   9.842  0.00  0.00    +0.000 A 
BRANCH  22  24
ATOM     24  O   UNL     1      45.511   4.188   7.638  0.00  0.00    +0.000 OA
BRANCH  24  25
ATOM     25  C   UNL     1      46.758   3.606   7.197  0.00  0.00    +0.000 C 
ATOM     26  C   UNL     1      46.787   3.095   5.747  0.00  0.00    +0.000 C 
ATOM     27  C   UNL     1      47.418   1.846   6.351  0.00  0.00    +0.000 C 
ATOM     28  O   UNL     1      47.025   2.257   7.682  0.00  0.00    +0.000 OA
ENDBRANCH  24  25
ENDBRANCH  22  24
ENDBRANCH  15  18
ENDBRANCH   1  15
TORSDOF 6
ENDMDL
MODEL 6
REMARK VINA RESULT:    -7.254      2.825      4.427
REMARK INTER + INTRA:         -10.678
REMARK INTER:                 -10.515
REMARK INTRA:                  -0.163
REMARK UNBOUND:                -0.879
REMARK  Name = 
REMARK  6 active torsions:
REMARK  status: ('A' for Active; 'I' for Inactive)
REMARK    1  A    between atoms: C_2  and  C_4
REMARK    2  A    between atoms: N_8  and  C_9
REMARK    3  A    between atoms: C_9  and  C_10
REMARK    4  A    between atoms: C_10  and  C_13
REMARK    5  A    between atoms: C_17  and  O_18
REMARK    6  A    between atoms: O_18  and  C_19
REMARK                            x       y       z     vdW  Elec       q    Type
REMARK                         _______ _______ _______ _____ _____    ______ ____
ROOT
ATOM      1  C   UNL     1      43.571   4.580  11.116  0.00  0.00    +0.000 C 
ENDROOT
BRANCH   1   6
ATOM      2  C   UNL     1      46.670   2.864   7.415  0.00  0.00    +0.000 A 
ATOM      3  C   UNL     1      45.698   2.187   8.145  0.00  0.00    +0.000 A 
ATOM      4  C   UNL     1      44.860   2.911   8.997  0.00  0.00    +0.000 A 
ATOM      5  C   UNL     1      45.005   4.290   9.110  0.00  0.00    +0.000 A 
ATOM      6  N   UNL     1      44.144   5.077   9.854  0.00  0.00    +0.000 N 
ATOM      7  N   UNL     1      45.960   4.950   8.426  0.00  0.00    +0.000 NA
ATOM      8  C   UNL     1      46.776   4.230   7.604  0.00  0.00    +0.000 A 
ATOM      9  H   UNL     1      44.499   6.032   9.875  0.00  0.00    +0.000 HD
BRANCH   2  11
ATOM     10  N   UNL     1      47.981   2.883   5.371  0.00  0.00    +0.000 N 
ATOM     11  C   UNL     1      47.576   2.177   6.469  0.00  0.00    +0.000 C 
ATOM     12  O   UNL     1      47.976   1.040   6.678  0.00  0.00    +0.000 OA
ATOM     13  H   UNL     1      48.686   2.443   4.789  0.00  0.00    +0.000 HD
ATOM     14  H   UNL     1      47.894   3.887   5.309  0.00  0.00    +0.000 HD
ENDBRANCH   2  11
ENDBRANCH   1   6
BRANCH   1  15
ATOM     15  C   UNL     1      44.634   4.358  12.229  0.00  0.00    +0.000 C 
ATOM     16  F   UNL     1      43.979   3.947  13.359  0.00  0.00    +0.000 F 
ATOM     17  F   UNL     1      45.429   3.304  11.875  0.00  0.00    +0.000 F 
BRANCH  15  18
ATOM     18  C   UNL     1      45.452   5.617  12.475  0.00  0.00    +0.000 A 
ATOM     19  C   UNL     1      46.831   5.534  12.711  0.00  0.00    +0.000 A 
ATOM     20  C   UNL     1      47.580   6.690  12.942  0.00  0.00    +0.000 A 
ATOM     21  C   UNL     1      46.965   7.945  12.927  0.00  0.00    +0.000 A 
ATOM     22  C   UNL     1      45.599   8.050  12.678  0.00  0.00    +0.000 A 
ATOM     23  C   UNL     1      44.848   6.890  12.455  0.00  0.00    +0.000 A 
BRANCH  22  24
ATOM     24  O   UNL     1      44.926   9.246  12.566  0.00  0.00    +0.000 OA
BRANCH  24  25
ATOM     25  C   UNL     1      45.684  10.434  12.245  0.00  0.00    +0.000 C 
ATOM     26  C   UNL     1      44.947  11.499  11.414  0.00  0.00    +0.000 C 
ATOM     27  C   UNL     1      46.215  11.511  10.569  0.00  0.00    +0.000 C 
ATOM     28  O   UNL     1      46.669  10.280  11.180  0.00  0.00    +0.000 OA
ENDBRANCH  24  25
ENDBRANCH  22  24
ENDBRANCH  15  18
ENDBRANCH   1  15
TORSDOF 6
ENDMDL
MODEL 7
REMARK VINA RESULT:    -7.142      3.048      6.820
REMARK INTER + INTRA:         -10.526
REMARK INTER:                  -9.669
REMARK INTRA:                  -0.857
REMARK UNBOUND:                -0.879
REMARK  Name = 
REMARK  6 active torsions:
REMARK  status: ('A' for Active; 'I' for Inactive)
REMARK    1  A    between atoms: C_2  and  C_4
REMARK    2  A    between atoms: N_8  and  C_9
REMARK    3  A    between atoms: C_9  and  C_10
REMARK    4  A    between atoms: C_10  and  C_13
REMARK    5  A    between atoms: C_17  and  O_18
REMARK    6  A    between atoms: O_18  and  C_19
REMARK                            x       y       z     vdW  Elec       q    Type
REMARK                         _______ _______ _______ _____ _____    ______ ____
ROOT
ATOM      1  C   UNL     1      46.994   7.131  11.597  0.00  0.00    +0.000 C 
ENDROOT
BRANCH   1   6
ATOM      2  C   UNL     1      47.575   4.141  15.716  0.00  0.00    +0.000 A 
ATOM      3  C   UNL     1      47.204   3.804  14.418  0.00  0.00    +0.000 A 
ATOM      4  C   UNL     1      47.271   4.776  13.418  0.00  0.00    +0.000 A 
ATOM      5  C   UNL     1      47.701   6.063  13.724  0.00  0.00    +0.000 A 
ATOM      6  N   UNL     1      47.888   7.040  12.763  0.00  0.00    +0.000 N 
ATOM      7  N   UNL     1      48.038   6.405  14.983  0.00  0.00    +0.000 NA
ATOM      8  C   UNL     1      47.960   5.448  15.952  0.00  0.00    +0.000 A 
ATOM      9  H   UNL     1      48.105   7.923  13.224  0.00  0.00    +0.000 HD
BRANCH   2  11
ATOM     10  N   UNL     1      48.742   2.537  17.118  0.00  0.00    +0.000 N 
ATOM     11  C   UNL     1      47.563   3.164  16.827  0.00  0.00    +0.000 C 
ATOM     12  O   UNL     1      46.551   2.952  17.480  0.00  0.00    +0.000 OA
ATOM     13  H   UNL     1      48.748   1.954  17.948  0.00  0.00    +0.000 HD
ATOM     14  H   UNL     1      49.634   2.879  16.790  0.00  0.00    +0.000 HD
ENDBRANCH   2  11
ENDBRANCH   1   6
BRANCH   1  15
ATOM     15  C   UNL     1      45.504   7.365  11.981  0.00  0.00    +0.000 C 
ATOM     16  F   UNL     1      45.474   7.863  13.256  0.00  0.00    +0.000 F 
ATOM     17  F   UNL     1      45.000   8.363  11.197  0.00  0.00    +0.000 F 
BRANCH  15  18
ATOM     18  C   UNL     1      44.690   6.087  11.853  0.00  0.00    +0.000 A 
ATOM     19  C   UNL     1      43.765   5.731  12.844  0.00  0.00    +0.000 A 
ATOM     20  C   UNL     1      43.021   4.555  12.728  0.00  0.00    +0.000 A 
ATOM     21  C   UNL     1      43.182   3.724  11.616  0.00  0.00    +0.000 A 
ATOM     22  C   UNL     1      44.084   4.067  10.613  0.00  0.00    +0.000 A 
ATOM     23  C   UNL     1      44.836   5.242  10.734  0.00  0.00    +0.000 A 
BRANCH  22  24
ATOM     24  O   UNL     1      44.250   3.353   9.448  0.00  0.00    +0.000 OA
BRANCH  24  25
ATOM     25  C   UNL     1      45.586   2.947   9.074  0.00  0.00    +0.000 C 
ATOM     26  C   UNL     1      46.025   3.310   7.645  0.00  0.00    +0.000 C 
ATOM     27  C   UNL     1      46.499   1.863   7.577  0.00  0.00    +0.000 C 
ATOM     28  O   UNL     1      45.746   1.530   8.767  0.00  0.00    +0.000 OA
ENDBRANCH  24  25
ENDBRANCH  22  24
ENDBRANCH  15  18
ENDBRANCH   1  15
TORSDOF 6
ENDMDL
MODEL 8
REMARK VINA RESULT:    -6.941      4.287      6.351
REMARK INTER + INTRA:         -10.255
REMARK INTER:                  -9.642
REMARK INTRA:                  -0.614
REMARK UNBOUND:                -0.879
REMARK  Name = 
REMARK  6 active torsions:
REMARK  status: ('A' for Active; 'I' for Inactive)
REMARK    1  A    between atoms: C_2  and  C_4
REMARK    2  A    between atoms: N_8  and  C_9
REMARK    3  A    between atoms: C_9  and  C_10
REMARK    4  A    between atoms: C_10  and  C_13
REMARK    5  A    between atoms: C_17  and  O_18
REMARK    6  A    between atoms: O_18  and  C_19
REMARK                            x       y       z     vdW  Elec       q    Type
REMARK                         _______ _______ _______ _____ _____    ______ ____
ROOT
ATOM      1  C   UNL     1      47.354   4.536  16.123  0.00  0.00    +0.000 C 
ENDROOT
BRANCH   1   6
ATOM      2  C   UNL     1      45.620   4.828  11.311  0.00  0.00    +0.000 A 
ATOM      3  C   UNL     1      46.380   5.738  12.039  0.00  0.00    +0.000 A 
ATOM      4  C   UNL     1      46.873   5.365  13.291  0.00  0.00    +0.000 A 
ATOM      5  C   UNL     1      46.601   4.098  13.798  0.00  0.00    +0.000 A 
ATOM      6  N   UNL     1      47.143   3.631  14.981  0.00  0.00    +0.000 N 
ATOM      7  N   UNL     1      45.844   3.219  13.112  0.00  0.00    +0.000 NA
ATOM      8  C   UNL     1      45.362   3.600  11.893  0.00  0.00    +0.000 A 
ATOM      9  H   UNL     1      46.729   2.727  15.204  0.00  0.00    +0.000 HD
BRANCH   2  11
ATOM     10  N   UNL     1      43.730   5.079   9.807  0.00  0.00    +0.000 N 
ATOM     11  C   UNL     1      45.087   5.133   9.966  0.00  0.00    +0.000 C 
ATOM     12  O   UNL     1      45.823   5.455   9.044  0.00  0.00    +0.000 OA
ATOM     13  H   UNL     1      43.369   5.395   8.913  0.00  0.00    +0.000 HD
ATOM     14  H   UNL     1      43.091   5.086  10.589  0.00  0.00    +0.000 HD
ENDBRANCH   2  11
ENDBRANCH   1   6
BRANCH   1  15
ATOM     15  C   UNL     1      47.768   3.796  17.427  0.00  0.00    +0.000 C 
ATOM     16  F   UNL     1      47.264   4.501  18.487  0.00  0.00    +0.000 F 
ATOM     17  F   UNL     1      47.130   2.588  17.468  0.00  0.00    +0.000 F 
BRANCH  15  18
ATOM     18  C   UNL     1      49.277   3.635  17.519  0.00  0.00    +0.000 A 
ATOM     19  C   UNL     1      50.095   4.743  17.784  0.00  0.00    +0.000 A 
ATOM     20  C   UNL     1      51.481   4.595  17.863  0.00  0.00    +0.000 A 
ATOM     21  C   UNL     1      52.069   3.339  17.692  0.00  0.00    +0.000 A 
ATOM     22  C   UNL     1      51.274   2.224  17.444  0.00  0.00    +0.000 A 
ATOM     23  C   UNL     1      49.884   2.374  17.356  0.00  0.00    +0.000 A 
BRANCH  22  24
ATOM     24  O   UNL     1      51.758   0.939  17.342  0.00  0.00    +0.000 OA
BRANCH  24  25
ATOM     25  C   UNL     1      53.066   0.651  17.885  0.00  0.00    +0.000 C 
ATOM     26  C   UNL     1      54.106   0.117  16.886  0.00  0.00    +0.000 C 
ATOM     27  C   UNL     1      54.385  -0.932  17.957  0.00  0.00    +0.000 C 
ATOM     28  O   UNL     1      53.166  -0.583  18.655  0.00  0.00    +0.000 OA
ENDBRANCH  24  25
ENDBRANCH  22  24
ENDBRANCH  15  18
ENDBRANCH   1  15
TORSDOF 6
ENDMDL
