MODEL 1
REMARK VINA RESULT:    -9.923      0.000      0.000
REMARK INTER + INTRA:         -13.803
REMARK INTER:                 -12.823
REMARK INTRA:                  -0.979
REMARK UNBOUND:                -0.979
REMARK  Name = 
REMARK  5 active torsions:
REMARK  status: ('A' for Active; 'I' for Inactive)
REMARK    1  A    between atoms: C_2  and  C_4
REMARK    2  A    between atoms: N_8  and  C_9
REMARK    3  A    between atoms: C_9  and  C_10
REMARK    4  A    between atoms: C_10  and  C_13
REMARK    5  A    between atoms: C_15  and  C_16
REMARK                            x       y       z     vdW  Elec       q    Type
REMARK                         _______ _______ _______ _____ _____    ______ ____
ROOT
ATOM      1  C   UNL     1      43.467   5.545  12.150  0.00  0.00    +0.000 C 
ATOM      2  F   UNL     1      43.135   6.729  11.548  0.00  0.00    +0.000 F 
ATOM      3  F   UNL     1      42.570   5.409  13.180  0.00  0.00    +0.000 F 
ENDROOT
BRANCH   1   4
ATOM      4  C   UNL     1      44.903   5.551  12.664  0.00  0.00    +0.000 A 
ATOM      5  C   UNL     1      45.762   6.566  12.235  0.00  0.00    +0.000 A 
ATOM      6  C   UNL     1      47.093   6.614  12.679  0.00  0.00    +0.000 A 
ATOM      7  C   UNL     1      47.506   5.591  13.540  0.00  0.00    +0.000 A 
ATOM      8  C   UNL     1      46.605   4.604  13.909  0.00  0.00    +0.000 A 
ATOM      9  N   UNL     1      45.321   4.564  13.499  0.00  0.00    +0.000 NA
BRANCH   6  10
ATOM     10  C   UNL     1      48.006   7.693  12.234  0.00  0.00    +0.000 A 
ATOM     11  C   UNL     1      47.558   9.026  12.113  0.00  0.00    +0.000 A 
ATOM     12  C   UNL     1      48.399  10.042  11.650  0.00  0.00    +0.000 A 
ATOM     13  C   UNL     1      49.713   9.746  11.317  0.00  0.00    +0.000 A 
ATOM     14  F   UNL     1      50.504  10.734  10.872  0.00  0.00    +0.000 F 
ATOM     15  C   UNL     1      50.194   8.449  11.445  0.00  0.00    +0.000 A 
ATOM     16 CL   UNL     1      51.827   8.075  11.044  0.00  0.00    +0.000 Cl
ATOM     17  C   UNL     1      49.347   7.430  11.895  0.00  0.00    +0.000 A 
ENDBRANCH   6  10
ENDBRANCH   1   4
BRANCH   1  18
ATOM     18  C   UNL     1      43.225   4.396  11.145  0.00  0.00    +0.000 C 
BRANCH  18  23
ATOM     19  C   UNL     1      46.496   2.496   7.727  0.00  0.00    +0.000 A 
ATOM     20  C   UNL     1      45.645   1.828   8.598  0.00  0.00    +0.000 A 
ATOM     21  C   UNL     1      44.707   2.560   9.326  0.00  0.00    +0.000 A 
ATOM     22  C   UNL     1      44.650   3.943   9.182  0.00  0.00    +0.000 A 
ATOM     23  N   UNL     1      43.687   4.725   9.787  0.00  0.00    +0.000 N 
ATOM     24  N   UNL     1      45.495   4.603   8.367  0.00  0.00    +0.000 NA
ATOM     25  C   UNL     1      46.402   3.875   7.663  0.00  0.00    +0.000 A 
ATOM     26  H   UNL     1      43.936   5.702   9.638  0.00  0.00    +0.000 HD
BRANCH  19  28
ATOM     27  N   UNL     1      48.556   2.524   6.442  0.00  0.00    +0.000 N 
ATOM     28  C   UNL     1      47.479   1.798   6.875  0.00  0.00    +0.000 C 
ATOM     29  O   UNL     1      47.362   0.611   6.602  0.00  0.00    +0.000 OA
ATOM     30  H   UNL     1      49.278   2.004   5.961  0.00  0.00    +0.000 HD
ATOM     31  H   UNL     1      48.819   3.404   6.861  0.00  0.00    +0.000 HD
ENDBRANCH  19  28
ENDBRANCH  18  23
ENDBRANCH   1  18
TORSDOF 5
ENDMDL
MODEL 2
REMARK VINA RESULT:    -9.910      2.684      4.059
REMARK INTER + INTRA:         -13.786
REMARK INTER:                 -12.692
REMARK INTRA:                  -1.093
REMARK UNBOUND:                -0.979
REMARK  Name = 
REMARK  5 active torsions:
REMARK  status: ('A' for Active; 'I' for Inactive)
REMARK    1  A    between atoms: C_2  and  C_4
REMARK    2  A    between atoms: N_8  and  C_9
REMARK    3  A    between atoms: C_9  and  C_10
REMARK    4  A    between atoms: C_10  and  C_13
REMARK    5  A    between atoms: C_15  and  C_16
REMARK                            x       y       z     vdW  Elec       q    Type
REMARK                         _______ _______ _______ _____ _____    ______ ____
ROOT
ATOM      1  C   UNL     1      43.470   5.525  12.127  0.00  0.00    +0.000 C 
ATOM      2  F   UNL     1      42.843   6.651  11.664  0.00  0.00    +0.000 F 
ATOM      3  F   UNL     1      42.822   5.216  13.297  0.00  0.00    +0.000 F 
ENDROOT
BRANCH   1   4
ATOM      4  C   UNL     1      44.958   5.762  12.365  0.00  0.00    +0.000 A 
ATOM      5  C   UNL     1      45.534   5.266  13.538  0.00  0.00    +0.000 A 
ATOM      6  C   UNL     1      46.898   5.459  13.804  0.00  0.00    +0.000 A 
ATOM      7  C   UNL     1      47.628   6.183  12.854  0.00  0.00    +0.000 A 
ATOM      8  C   UNL     1      46.988   6.663  11.722  0.00  0.00    +0.000 A 
ATOM      9  N   UNL     1      45.681   6.465  11.455  0.00  0.00    +0.000 NA
BRANCH   6  10
ATOM     10  C   UNL     1      47.517   4.928  15.042  0.00  0.00    +0.000 A 
ATOM     11  C   UNL     1      47.323   3.587  15.438  0.00  0.00    +0.000 A 
ATOM     12  C   UNL     1      47.863   3.090  16.627  0.00  0.00    +0.000 A 
ATOM     13  C   UNL     1      48.625   3.922  17.436  0.00  0.00    +0.000 A 
ATOM     14  F   UNL     1      49.132   3.428  18.575  0.00  0.00    +0.000 F 
ATOM     15  C   UNL     1      48.853   5.242  17.066  0.00  0.00    +0.000 A 
ATOM     16 CL   UNL     1      49.806   6.279  18.057  0.00  0.00    +0.000 Cl
ATOM     17  C   UNL     1      48.301   5.742  15.882  0.00  0.00    +0.000 A 
ENDBRANCH   6  10
ENDBRANCH   1   4
BRANCH   1  18
ATOM     18  C   UNL     1      43.228   4.376  11.122  0.00  0.00    +0.000 C 
BRANCH  18  23
ATOM     19  C   UNL     1      46.514   2.497   7.707  0.00  0.00    +0.000 A 
ATOM     20  C   UNL     1      45.669   1.823   8.581  0.00  0.00    +0.000 A 
ATOM     21  C   UNL     1      44.726   2.549   9.307  0.00  0.00    +0.000 A 
ATOM     22  C   UNL     1      44.656   3.931   9.160  0.00  0.00    +0.000 A 
ATOM     23  N   UNL     1      43.687   4.706   9.764  0.00  0.00    +0.000 N 
ATOM     24  N   UNL     1      45.495   4.596   8.343  0.00  0.00    +0.000 NA
ATOM     25  C   UNL     1      46.408   3.875   7.640  0.00  0.00    +0.000 A 
ATOM     26  H   UNL     1      43.927   5.685   9.612  0.00  0.00    +0.000 HD
BRANCH  19  28
ATOM     27  N   UNL     1      48.557   2.548   6.396  0.00  0.00    +0.000 N 
ATOM     28  C   UNL     1      47.503   1.805   6.856  0.00  0.00    +0.000 C 
ATOM     29  O   UNL     1      47.410   0.610   6.608  0.00  0.00    +0.000 OA
ATOM     30  H   UNL     1      49.285   2.035   5.915  0.00  0.00    +0.000 HD
ATOM     31  H   UNL     1      48.804   3.441   6.793  0.00  0.00    +0.000 HD
ENDBRANCH  19  28
ENDBRANCH  18  23
ENDBRANCH   1  18
TORSDOF 5
ENDMDL
MODEL 3
REMARK VINA RESULT:    -9.469      1.365      1.641
REMARK INTER + INTRA:         -13.216
REMARK INTER:                 -11.922
REMARK INTRA:                  -1.294
REMARK UNBOUND:                -0.979
REMARK  Name = 
REMARK  5 active torsions:
REMARK  status: ('A' for Active; 'I' for Inactive)
REMARK    1  A    between atoms: C_2  and  C_4
REMARK    2  A    between atoms: N_8  and  C_9
REMARK    3  A    between atoms: C_9  and  C_10
REMARK    4  A    between atoms: C_10  and  C_13
REMARK    5  A    between atoms: C_15  and  C_16
REMARK                            x       y       z     vdW  Elec       q    Type
REMARK                         _______ _______ _______ _____ _____    ______ ____
ROOT
ATOM      1  C   UNL     1      43.469   4.294  12.658  0.00  0.00    +0.000 C 
ATOM      2  F   UNL     1      42.625   5.369  12.722  0.00  0.00    +0.000 F 
ATOM      3  F   UNL     1      42.996   3.417  13.604  0.00  0.00    +0.000 F 
ENDROOT
BRANCH   1   4
ATOM      4  C   UNL     1      44.915   4.688  12.945  0.00  0.00    +0.000 A 
ATOM      5  C   UNL     1      45.348   5.961  12.566  0.00  0.00    +0.000 A 
ATOM      6  C   UNL     1      46.669   6.370  12.807  0.00  0.00    +0.000 A 
ATOM      7  C   UNL     1      47.515   5.437  13.415  0.00  0.00    +0.000 A 
ATOM      8  C   UNL     1      47.024   4.183  13.746  0.00  0.00    +0.000 A 
ATOM      9  N   UNL     1      45.751   3.792  13.532  0.00  0.00    +0.000 NA
BRANCH   6  10
ATOM     10  C   UNL     1      47.131   7.723  12.416  0.00  0.00    +0.000 A 
ATOM     11  C   UNL     1      46.248   8.824  12.412  0.00  0.00    +0.000 A 
ATOM     12  C   UNL     1      46.663  10.093  12.000  0.00  0.00    +0.000 A 
ATOM     13  C   UNL     1      47.978  10.290  11.601  0.00  0.00    +0.000 A 
ATOM     14  F   UNL     1      48.357  11.515  11.206  0.00  0.00    +0.000 F 
ATOM     15  C   UNL     1      48.879   9.233  11.614  0.00  0.00    +0.000 A 
ATOM     16 CL   UNL     1      50.516   9.469  11.130  0.00  0.00    +0.000 Cl
ATOM     17  C   UNL     1      48.459   7.959  12.013  0.00  0.00    +0.000 A 
ENDBRANCH   6  10
ENDBRANCH   1   4
BRANCH   1  18
ATOM     18  C   UNL     1      43.323   3.631  11.270  0.00  0.00    +0.000 C 
BRANCH  18  23
ATOM     19  C   UNL     1      46.496   2.862   7.354  0.00  0.00    +0.000 A 
ATOM     20  C   UNL     1      45.986   4.053   7.854  0.00  0.00    +0.000 A 
ATOM     21  C   UNL     1      45.267   4.036   9.050  0.00  0.00    +0.000 A 
ATOM     22  C   UNL     1      45.059   2.829   9.710  0.00  0.00    +0.000 A 
ATOM     23  N   UNL     1      44.449   2.741  10.946  0.00  0.00    +0.000 N 
ATOM     24  N   UNL     1      45.518   1.664   9.214  0.00  0.00    +0.000 NA
ATOM     25  C   UNL     1      46.218   1.698   8.050  0.00  0.00    +0.000 A 
ATOM     26  H   UNL     1      44.297   1.755  11.152  0.00  0.00    +0.000 HD
BRANCH  19  28
ATOM     27  N   UNL     1      48.613   2.378   6.267  0.00  0.00    +0.000 N 
ATOM     28  C   UNL     1      47.315   2.794   6.128  0.00  0.00    +0.000 C 
ATOM     29  O   UNL     1      46.847   3.055   5.028  0.00  0.00    +0.000 OA
ATOM     30  H   UNL     1      49.124   2.224   5.408  0.00  0.00    +0.000 HD
ATOM     31  H   UNL     1      48.943   1.907   7.096  0.00  0.00    +0.000 HD
ENDBRANCH  19  28
ENDBRANCH  18  23
ENDBRANCH   1  18
TORSDOF 5
ENDMDL
MODEL 4
REMARK VINA RESULT:    -9.246      1.768      2.253
REMARK INTER + INTRA:         -12.928
REMARK INTER:                 -11.717
REMARK INTRA:                  -1.211
REMARK UNBOUND:                -0.979
REMARK  Name = 
REMARK  5 active torsions:
REMARK  status: ('A' for Active; 'I' for Inactive)
REMARK    1  A    between atoms: C_2  and  C_4
REMARK    2  A    between atoms: N_8  and  C_9
REMARK    3  A    between atoms: C_9  and  C_10
REMARK    4  A    between atoms: C_10  and  C_13
REMARK    5  A    between atoms: C_15  and  C_16
REMARK                            x       y       z     vdW  Elec       q    Type
REMARK                         _______ _______ _______ _____ _____    ______ ____
ROOT
ATOM      1  C   UNL     1      44.238   4.753  12.255  0.00  0.00    +0.000 C 
ATOM      2  F   UNL     1      43.584   4.645  13.452  0.00  0.00    +0.000 F 
ATOM      3  F   UNL     1      45.217   3.792  12.299  0.00  0.00    +0.000 F 
ENDROOT
BRANCH   1   4
ATOM      4  C   UNL     1      44.837   6.143  12.058  0.00  0.00    +0.000 A 
ATOM      5  C   UNL     1      46.171   6.352  12.418  0.00  0.00    +0.000 A 
ATOM      6  C   UNL     1      46.767   7.613  12.257  0.00  0.00    +0.000 A 
ATOM      7  C   UNL     1      45.955   8.632  11.747  0.00  0.00    +0.000 A 
ATOM      8  C   UNL     1      44.633   8.358  11.430  0.00  0.00    +0.000 A 
ATOM      9  N   UNL     1      44.062   7.144  11.567  0.00  0.00    +0.000 NA
BRANCH   6  10
ATOM     10  C   UNL     1      48.184   7.839  12.628  0.00  0.00    +0.000 A 
ATOM     11  C   UNL     1      49.068   8.513  11.758  0.00  0.00    +0.000 A 
ATOM     12  C   UNL     1      50.417   8.689  12.079  0.00  0.00    +0.000 A 
ATOM     13  C   UNL     1      50.904   8.211  13.287  0.00  0.00    +0.000 A 
ATOM     14  F   UNL     1      52.202   8.388  13.576  0.00  0.00    +0.000 F 
ATOM     15  C   UNL     1      50.056   7.563  14.177  0.00  0.00    +0.000 A 
ATOM     16 CL   UNL     1      50.648   6.976  15.684  0.00  0.00    +0.000 Cl
ATOM     17  C   UNL     1      48.709   7.374  13.849  0.00  0.00    +0.000 A 
ENDBRANCH   6  10
ENDBRANCH   1   4
BRANCH   1  18
ATOM     18  C   UNL     1      43.255   4.389  11.119  0.00  0.00    +0.000 C 
BRANCH  18  23
ATOM     19  C   UNL     1      46.531   2.544   7.675  0.00  0.00    +0.000 A 
ATOM     20  C   UNL     1      45.636   1.865   8.493  0.00  0.00    +0.000 A 
ATOM     21  C   UNL     1      44.710   2.594   9.239  0.00  0.00    +0.000 A 
ATOM     22  C   UNL     1      44.707   3.983   9.166  0.00  0.00    +0.000 A 
ATOM     23  N   UNL     1      43.759   4.770   9.791  0.00  0.00    +0.000 N 
ATOM     24  N   UNL     1      45.594   4.652   8.404  0.00  0.00    +0.000 NA
ATOM     25  C   UNL     1      46.489   3.927   7.682  0.00  0.00    +0.000 A 
ATOM     26  H   UNL     1      44.047   5.743   9.698  0.00  0.00    +0.000 HD
BRANCH  19  28
ATOM     27  N   UNL     1      48.579   2.584   6.373  0.00  0.00    +0.000 N 
ATOM     28  C   UNL     1      47.506   1.854   6.809  0.00  0.00    +0.000 C 
ATOM     29  O   UNL     1      47.387   0.669   6.527  0.00  0.00    +0.000 OA
ATOM     30  H   UNL     1      49.297   2.068   5.881  0.00  0.00    +0.000 HD
ATOM     31  H   UNL     1      48.845   3.460   6.797  0.00  0.00    +0.000 HD
ENDBRANCH  19  28
ENDBRANCH  18  23
ENDBRANCH   1  18
TORSDOF 5
ENDMDL
MODEL 5
REMARK VINA RESULT:    -8.585      4.187      7.538
REMARK INTER + INTRA:         -12.074
REMARK INTER:                 -11.191
REMARK INTRA:                  -0.883
REMARK UNBOUND:                -0.979
REMARK  Name = 
REMARK  5 active torsions:
REMARK  status: ('A' for Active; 'I' for Inactive)
REMARK    1  A    between atoms: C_2  and  C_4
REMARK    2  A    between atoms: N_8  and  C_9
REMARK    3  A    between atoms: C_9  and  C_10
REMARK    4  A    between atoms: C_10  and  C_13
REMARK    5  A    between atoms: C_15  and  C_16
REMARK                            x       y       z     vdW  Elec       q    Type
REMARK                         _______ _______ _______ _____ _____    ______ ____
ROOT
ATOM      1  C   UNL     1      45.679   7.148  12.223  0.00  0.00    +0.000 C 
ATOM      2  F   UNL     1      44.800   7.938  12.914  0.00  0.00    +0.000 F 
ATOM      3  F   UNL     1      46.268   7.988  11.311  0.00  0.00    +0.000 F 
ENDROOT
BRANCH   1   4
ATOM      4  C   UNL     1      44.974   5.986  11.529  0.00  0.00    +0.000 A 
ATOM      5  C   UNL     1      45.634   5.332  10.485  0.00  0.00    +0.000 A 
ATOM      6  C   UNL     1      45.027   4.260   9.814  0.00  0.00    +0.000 A 
ATOM      7  C   UNL     1      43.738   3.907  10.228  0.00  0.00    +0.000 A 
ATOM      8  C   UNL     1      43.134   4.612  11.258  0.00  0.00    +0.000 A 
ATOM      9  N   UNL     1      43.721   5.633  11.917  0.00  0.00    +0.000 NA
BRANCH   6  10
ATOM     10  C   UNL     1      45.725   3.556   8.712  0.00  0.00    +0.000 A 
ATOM     11  C   UNL     1      46.256   4.265   7.612  0.00  0.00    +0.000 A 
ATOM     12  C   UNL     1      46.874   3.606   6.546  0.00  0.00    +0.000 A 
ATOM     13  C   UNL     1      46.991   2.223   6.569  0.00  0.00    +0.000 A 
ATOM     14  F   UNL     1      47.585   1.608   5.535  0.00  0.00    +0.000 F 
ATOM     15  C   UNL     1      46.499   1.496   7.646  0.00  0.00    +0.000 A 
ATOM     16 CL   UNL     1      46.649  -0.220   7.688  0.00  0.00    +0.000 Cl
ATOM     17  C   UNL     1      45.868   2.155   8.706  0.00  0.00    +0.000 A 
ENDBRANCH   6  10
ENDBRANCH   1   4
BRANCH   1  18
ATOM     18  C   UNL     1      46.770   6.652  13.198  0.00  0.00    +0.000 C 
BRANCH  18  23
ATOM     19  C   UNL     1      48.602   3.766  16.981  0.00  0.00    +0.000 A 
ATOM     20  C   UNL     1      48.639   5.147  16.829  0.00  0.00    +0.000 A 
ATOM     21  C   UNL     1      47.916   5.734  15.791  0.00  0.00    +0.000 A 
ATOM     22  C   UNL     1      47.187   4.932  14.919  0.00  0.00    +0.000 A 
ATOM     23  N   UNL     1      46.366   5.442  13.932  0.00  0.00    +0.000 N 
ATOM     24  N   UNL     1      47.175   3.591  15.036  0.00  0.00    +0.000 NA
ATOM     25  C   UNL     1      47.882   3.033  16.054  0.00  0.00    +0.000 A 
ATOM     26  H   UNL     1      46.052   4.666  13.351  0.00  0.00    +0.000 HD
BRANCH  19  28
ATOM     27  N   UNL     1      48.650   3.030  19.295  0.00  0.00    +0.000 N 
ATOM     28  C   UNL     1      49.289   3.064  18.084  0.00  0.00    +0.000 C 
ATOM     29  O   UNL     1      50.361   2.499  17.914  0.00  0.00    +0.000 OA
ATOM     30  H   UNL     1      49.075   2.448  20.004  0.00  0.00    +0.000 HD
ATOM     31  H   UNL     1      47.669   3.244  19.395  0.00  0.00    +0.000 HD
ENDBRANCH  19  28
ENDBRANCH  18  23
ENDBRANCH   1  18
TORSDOF 5
ENDMDL
MODEL 6
REMARK VINA RESULT:    -7.954      4.200      7.723
REMARK INTER + INTRA:         -11.259
REMARK INTER:                 -10.248
REMARK INTRA:                  -1.011
REMARK UNBOUND:                -0.979
REMARK  Name = 
REMARK  5 active torsions:
REMARK  status: ('A' for Active; 'I' for Inactive)
REMARK    1  A    between atoms: C_2  and  C_4
REMARK    2  A    between atoms: N_8  and  C_9
REMARK    3  A    between atoms: C_9  and  C_10
REMARK    4  A    between atoms: C_10  and  C_13
REMARK    5  A    between atoms: C_15  and  C_16
REMARK                            x       y       z     vdW  Elec       q    Type
REMARK                         _______ _______ _______ _____ _____    ______ ____
ROOT
ATOM      1  C   UNL     1      48.863   8.145  12.277  0.00  0.00    +0.000 C 
ATOM      2  F   UNL     1      49.336   9.158  11.487  0.00  0.00    +0.000 F 
ATOM      3  F   UNL     1      49.636   7.056  11.956  0.00  0.00    +0.000 F 
ENDROOT
BRANCH   1   4
ATOM      4  C   UNL     1      47.385   7.868  12.021  0.00  0.00    +0.000 A 
ATOM      5  C   UNL     1      47.028   6.668  11.400  0.00  0.00    +0.000 A 
ATOM      6  C   UNL     1      45.681   6.368  11.141  0.00  0.00    +0.000 A 
ATOM      7  C   UNL     1      44.739   7.332  11.514  0.00  0.00    +0.000 A 
ATOM      8  C   UNL     1      45.165   8.510  12.108  0.00  0.00    +0.000 A 
ATOM      9  N   UNL     1      46.457   8.795  12.374  0.00  0.00    +0.000 NA
BRANCH   6  10
ATOM     10  C   UNL     1      45.296   5.093  10.491  0.00  0.00    +0.000 A 
ATOM     11  C   UNL     1      44.542   4.119  11.182  0.00  0.00    +0.000 A 
ATOM     12  C   UNL     1      44.215   2.895  10.593  0.00  0.00    +0.000 A 
ATOM     13  C   UNL     1      44.619   2.628   9.292  0.00  0.00    +0.000 A 
ATOM     14  F   UNL     1      44.297   1.446   8.746  0.00  0.00    +0.000 F 
ATOM     15  C   UNL     1      45.343   3.573   8.576  0.00  0.00    +0.000 A 
ATOM     16 CL   UNL     1      45.840   3.255   6.958  0.00  0.00    +0.000 Cl
ATOM     17  C   UNL     1      45.683   4.793   9.171  0.00  0.00    +0.000 A 
ENDBRANCH   6  10
ENDBRANCH   1   4
BRANCH   1  18
ATOM     18  C   UNL     1      49.129   8.507  13.756  0.00  0.00    +0.000 C 
BRANCH  18  23
ATOM     19  C   UNL     1      48.126   4.524  16.776  0.00  0.00    +0.000 A 
ATOM     20  C   UNL     1      47.430   4.985  15.665  0.00  0.00    +0.000 A 
ATOM     21  C   UNL     1      47.990   5.996  14.885  0.00  0.00    +0.000 A 
ATOM     22  C   UNL     1      49.222   6.537  15.239  0.00  0.00    +0.000 A 
ATOM     23  N   UNL     1      49.889   7.466  14.465  0.00  0.00    +0.000 N 
ATOM     24  N   UNL     1      49.887   6.123  16.335  0.00  0.00    +0.000 NA
ATOM     25  C   UNL     1      49.329   5.134  17.083  0.00  0.00    +0.000 A 
ATOM     26  H   UNL     1      50.692   7.800  14.996  0.00  0.00    +0.000 HD
BRANCH  19  28
ATOM     27  N   UNL     1      48.405   3.077  18.706  0.00  0.00    +0.000 N 
ATOM     28  C   UNL     1      47.637   3.419  17.625  0.00  0.00    +0.000 C 
ATOM     29  O   UNL     1      46.572   2.861  17.400  0.00  0.00    +0.000 OA
ATOM     30  H   UNL     1      48.000   2.402  19.342  0.00  0.00    +0.000 HD
ATOM     31  H   UNL     1      49.129   3.679  19.067  0.00  0.00    +0.000 HD
ENDBRANCH  19  28
ENDBRANCH  18  23
ENDBRANCH   1  18
TORSDOF 5
ENDMDL
MODEL 7
REMARK VINA RESULT:    -7.603      4.243      7.823
REMARK INTER + INTRA:         -10.805
REMARK INTER:                  -9.711
REMARK INTRA:                  -1.095
REMARK UNBOUND:                -0.979
REMARK  Name = 
REMARK  5 active torsions:
REMARK  status: ('A' for Active; 'I' for Inactive)
REMARK    1  A    between atoms: C_2  and  C_4
REMARK    2  A    between atoms: N_8  and  C_9
REMARK    3  A    between atoms: C_9  and  C_10
REMARK    4  A    between atoms: C_10  and  C_13
REMARK    5  A    between atoms: C_15  and  C_16
REMARK                            x       y       z     vdW  Elec       q    Type
REMARK                         _______ _______ _______ _____ _____    ______ ____
ROOT
ATOM      1  C   UNL     1      48.750   8.108  12.507  0.00  0.00    +0.000 C 
ATOM      2  F   UNL     1      49.271   9.208  11.879  0.00  0.00    +0.000 F 
ATOM      3  F   UNL     1      49.551   7.065  12.115  0.00  0.00    +0.000 F 
ENDROOT
BRANCH   1   4
ATOM      4  C   UNL     1      47.296   7.866  12.115  0.00  0.00    +0.000 A 
ATOM      5  C   UNL     1      46.964   6.660  11.491  0.00  0.00    +0.000 A 
ATOM      6  C   UNL     1      45.640   6.391  11.110  0.00  0.00    +0.000 A 
ATOM      7  C   UNL     1      44.696   7.392  11.364  0.00  0.00    +0.000 A 
ATOM      8  C   UNL     1      45.099   8.573  11.968  0.00  0.00    +0.000 A 
ATOM      9  N   UNL     1      46.367   8.829  12.352  0.00  0.00    +0.000 NA
BRANCH   6  10
ATOM     10  C   UNL     1      45.280   5.110  10.456  0.00  0.00    +0.000 A 
ATOM     11  C   UNL     1      44.541   4.123  11.143  0.00  0.00    +0.000 A 
ATOM     12  C   UNL     1      44.237   2.893  10.552  0.00  0.00    +0.000 A 
ATOM     13  C   UNL     1      44.653   2.634   9.253  0.00  0.00    +0.000 A 
ATOM     14  F   UNL     1      44.355   1.448   8.704  0.00  0.00    +0.000 F 
ATOM     15  C   UNL     1      45.364   3.593   8.541  0.00  0.00    +0.000 A 
ATOM     16 CL   UNL     1      45.875   3.285   6.925  0.00  0.00    +0.000 Cl
ATOM     17  C   UNL     1      45.680   4.818   9.138  0.00  0.00    +0.000 A 
ENDBRANCH   6  10
ENDBRANCH   1   4
BRANCH   1  18
ATOM     18  C   UNL     1      48.907   8.290  14.034  0.00  0.00    +0.000 C 
BRANCH  18  23
ATOM     19  C   UNL     1      49.024   4.271  17.168  0.00  0.00    +0.000 A 
ATOM     20  C   UNL     1      49.917   5.330  17.059  0.00  0.00    +0.000 A 
ATOM     21  C   UNL     1      49.588   6.413  16.245  0.00  0.00    +0.000 A 
ATOM     22  C   UNL     1      48.386   6.410  15.545  0.00  0.00    +0.000 A 
ATOM     23  N   UNL     1      47.943   7.485  14.801  0.00  0.00    +0.000 N 
ATOM     24  N   UNL     1      47.531   5.372  15.615  0.00  0.00    +0.000 NA
ATOM     25  C   UNL     1      47.864   4.324  16.415  0.00  0.00    +0.000 A 
ATOM     26  H   UNL     1      47.114   7.191  14.285  0.00  0.00    +0.000 HD
BRANCH  19  28
ATOM     27  N   UNL     1      48.624   3.107  19.262  0.00  0.00    +0.000 N 
ATOM     28  C   UNL     1      49.262   3.111  18.050  0.00  0.00    +0.000 C 
ATOM     29  O   UNL     1      49.964   2.172  17.698  0.00  0.00    +0.000 OA
ATOM     30  H   UNL     1      48.702   2.256  19.802  0.00  0.00    +0.000 HD
ATOM     31  H   UNL     1      47.846   3.717  19.465  0.00  0.00    +0.000 HD
ENDBRANCH  19  28
ENDBRANCH  18  23
ENDBRANCH   1  18
TORSDOF 5
ENDMDL
MODEL 8
REMARK VINA RESULT:    -7.189      6.324      8.741
REMARK INTER + INTRA:         -10.270
REMARK INTER:                  -9.470
REMARK INTRA:                  -0.800
REMARK UNBOUND:                -0.979
REMARK  Name = 
REMARK  5 active torsions:
REMARK  status: ('A' for Active; 'I' for Inactive)
REMARK    1  A    between atoms: C_2  and  C_4
REMARK    2  A    between atoms: N_8  and  C_9
REMARK    3  A    between atoms: C_9  and  C_10
REMARK    4  A    between atoms: C_10  and  C_13
REMARK    5  A    between atoms: C_15  and  C_16
REMARK                            x       y       z     vdW  Elec       q    Type
REMARK                         _______ _______ _______ _____ _____    ______ ____
ROOT
ATOM      1  C   UNL     1      48.041   3.467  17.028  0.00  0.00    +0.000 C 
ATOM      2  F   UNL     1      48.364   2.252  16.485  0.00  0.00    +0.000 F 
ATOM      3  F   UNL     1      46.830   3.269  17.642  0.00  0.00    +0.000 F 
ENDROOT
BRANCH   1   4
ATOM      4  C   UNL     1      47.950   4.558  15.965  0.00  0.00    +0.000 A 
ATOM      5  C   UNL     1      47.136   4.338  14.850  0.00  0.00    +0.000 A 
ATOM      6  C   UNL     1      47.021   5.311  13.845  0.00  0.00    +0.000 A 
ATOM      7  C   UNL     1      47.772   6.479  14.011  0.00  0.00    +0.000 A 
ATOM      8  C   UNL     1      48.575   6.622  15.132  0.00  0.00    +0.000 A 
ATOM      9  N   UNL     1      48.676   5.697  16.109  0.00  0.00    +0.000 NA
BRANCH   6  10
ATOM     10  C   UNL     1      46.152   5.088  12.665  0.00  0.00    +0.000 A 
ATOM     11  C   UNL     1      46.222   5.933  11.536  0.00  0.00    +0.000 A 
ATOM     12  C   UNL     1      45.374   5.759  10.439  0.00  0.00    +0.000 A 
ATOM     13  C   UNL     1      44.451   4.723  10.441  0.00  0.00    +0.000 A 
ATOM     14  F   UNL     1      43.644   4.575   9.380  0.00  0.00    +0.000 F 
ATOM     15  C   UNL     1      44.370   3.860  11.527  0.00  0.00    +0.000 A 
ATOM     16 CL   UNL     1      43.234   2.565  11.535  0.00  0.00    +0.000 Cl
ATOM     17  C   UNL     1      45.209   4.043  12.631  0.00  0.00    +0.000 A 
ENDBRANCH   6  10
ENDBRANCH   1   4
BRANCH   1  18
ATOM     18  C   UNL     1      49.083   3.814  18.115  0.00  0.00    +0.000 C 
BRANCH  18  23
ATOM     19  C   UNL     1      53.525   1.340  17.732  0.00  0.00    +0.000 A 
ATOM     20  C   UNL     1      52.229   0.848  17.625  0.00  0.00    +0.000 A 
ATOM     21  C   UNL     1      51.163   1.747  17.592  0.00  0.00    +0.000 A 
ATOM     22  C   UNL     1      51.409   3.112  17.683  0.00  0.00    +0.000 A 
ATOM     23  N   UNL     1      50.421   4.068  17.556  0.00  0.00    +0.000 N 
ATOM     24  N   UNL     1      52.658   3.597  17.825  0.00  0.00    +0.000 NA
ATOM     25  C   UNL     1      53.687   2.709  17.853  0.00  0.00    +0.000 A 
ATOM     26  H   UNL     1      50.826   4.973  17.792  0.00  0.00    +0.000 HD
BRANCH  19  28
ATOM     27  N   UNL     1      55.394   0.360  16.531  0.00  0.00    +0.000 N 
ATOM     28  C   UNL     1      54.716   0.468  17.716  0.00  0.00    +0.000 C 
ATOM     29  O   UNL     1      55.107  -0.100  18.727  0.00  0.00    +0.000 OA
ATOM     30  H   UNL     1      56.270  -0.144  16.566  0.00  0.00    +0.000 HD
ATOM     31  H   UNL     1      55.261   1.010  15.772  0.00  0.00    +0.000 HD
ENDBRANCH  19  28
ENDBRANCH  18  23
ENDBRANCH   1  18
TORSDOF 5
ENDMDL
