REMARK  Name = 
REMARK  5 active torsions:
REMARK  status: ('A' for Active; 'I' for Inactive)
REMARK    1  A    between atoms: C_1  and  N_2
REMARK    2  A    between atoms: C_6  and  C_8
REMARK    3  A    between atoms: C_8  and  N_9
REMARK    4  A    between atoms: C_10  and  C_11
REMARK    5  A    between atoms: C_17  and  C_18
REMARK                            x       y       z     vdW  Elec       q    Type
REMARK                         _______ _______ _______ _____ _____    ______ ____
ROOT
ATOM      9  N   UNL     1      -5.145  -1.013   1.848  0.00  0.00    +0.000 N 
ATOM     10  C   UNL     1      -6.021  -2.044   2.126  0.00  0.00    +0.000 A 
ATOM     14  C   UNL     1      -7.112  -1.512   2.784  0.00  0.00    +0.000 A 
ATOM     15  C   UNL     1      -6.959  -0.108   2.815  0.00  0.00    +0.000 A 
ATOM     16  C   UNL     1      -7.768   0.962   3.240  0.00  0.00    +0.000 A 
ATOM     17  C   UNL     1      -7.284   2.258   3.056  0.00  0.00    +0.000 A 
ATOM     21  C   UNL     1      -6.017   2.410   2.490  0.00  0.00    +0.000 A 
ATOM     22  N   UNL     1      -5.194   1.410   2.065  0.00  0.00    +0.000 NA
ATOM     23  C   UNL     1      -5.721   0.180   2.247  0.00  0.00    +0.000 A 
ENDROOT
BRANCH  17  18
ATOM     18  C   UNL     1      -8.053   3.475   3.401  0.00  0.00    +0.000 C 
ATOM     19  N   UNL     1      -9.315   3.341   3.917  0.00  0.00    +0.000 N 
ATOM     20  O   UNL     1      -7.591   4.596   3.216  0.00  0.00    +0.000 OA
ATOM     26  H   UNL     1      -9.782   2.465   4.093  0.00  0.00    +0.000 HD
ATOM     27  H   UNL     1      -9.817   4.195   4.126  0.00  0.00    +0.000 HD
ENDBRANCH  17  18
BRANCH  10  11
ATOM     11  C   UNL     1      -5.851  -3.516   1.765  0.00  0.00    +0.000 C 
ATOM     12  C   UNL     1      -7.094  -4.360   1.541  0.00  0.00    +0.000 C 
ATOM     13  C   UNL     1      -6.286  -4.556   2.777  0.00  0.00    +0.000 C 
ENDBRANCH  10  11
BRANCH   9   8
ATOM      8  C   UNL     1      -3.928  -1.087   1.039  0.00  0.00    +0.000 C 
BRANCH   8   6
ATOM      1  C   UNL     1       1.958  -2.718  -1.452  0.00  0.00    +0.000 C 
ATOM      2  N   UNL     1       0.938  -2.089  -0.612  0.00  0.00    +0.000 NA
ATOM      3  C   UNL     1      -0.348  -1.991  -1.325  0.00  0.00    +0.000 C 
ATOM      4  C   UNL     1      -1.443  -1.323  -0.464  0.00  0.00    +0.000 C 
ATOM      5  N   UNL     1      -1.599  -1.954   0.854  0.00  0.00    +0.000 N 
ATOM      6  C   UNL     1      -2.761  -1.859   1.644  0.00  0.00    +0.000 C 
ATOM      7  O   UNL     1      -2.810  -2.365   2.765  0.00  0.00    +0.000 OA
ATOM     24  C   UNL     1      -0.333  -2.234   1.545  0.00  0.00    +0.000 C 
ATOM     25  C   UNL     1       0.744  -2.857   0.635  0.00  0.00    +0.000 C 
ENDBRANCH   8   6
ENDBRANCH   9   8
TORSDOF 4
