REMARK  Name = 
REMARK  13 active torsions:
REMARK  status: ('A' for Active; 'I' for Inactive)
REMARK    1  A    between atoms: C_1  and  C_2
REMARK    2  A    between atoms: C_2  and  O_3
REMARK    3  A    between atoms: O_3  and  C_4
REMARK    4  A    between atoms: C_4  and  C_5
REMARK    5  A    between atoms: C_5  and  O_6
REMARK    6  A    between atoms: O_6  and  C_7
REMARK    7  A    between atoms: C_7  and  C_8
REMARK    8  A    between atoms: C_8  and  N_9
REMARK    9  A    between atoms: N_9  and  C_10
REMARK   10  A    between atoms: C_10  and  C_11
REMARK   11  A    between atoms: C_14  and  C_15
REMARK   12  A    between atoms: C_15  and  N_16
REMARK   13  A    between atoms: C_17  and  C_19
REMARK                            x       y       z     vdW  Elec       q    Type
REMARK                         _______ _______ _______ _____ _____    ______ ____
ROOT
ATOM     11  C   UNL     1      10.719  -6.769  -1.748  0.00  0.00    +0.000 A 
ATOM     12  C   UNL     1      12.025  -6.956  -2.227  0.00  0.00    +0.000 A 
ATOM     13  C   UNL     1      12.493  -8.233  -2.549  0.00  0.00    +0.000 A 
ATOM     14  C   UNL     1      11.667  -9.351  -2.392  0.00  0.00    +0.000 A 
ATOM     29  C   UNL     1      10.383  -9.174  -1.861  0.00  0.00    +0.000 A 
ATOM     30  C   UNL     1       9.909  -7.895  -1.553  0.00  0.00    +0.000 A 
ENDROOT
BRANCH  11  10
ATOM     10  C   UNL     1      10.198  -5.384  -1.431  0.00  0.00    +0.000 C 
BRANCH  10   9
ATOM      9  N   UNL     1      10.232  -4.528  -2.615  0.00  0.00    +0.000 NA
ATOM     31  H   UNL     1      11.185  -4.490  -2.971  0.00  0.00    +0.000 HD
BRANCH   9   8
ATOM      8  C   UNL     1       9.776  -3.172  -2.314  0.00  0.00    +0.000 C 
BRANCH   8   7
ATOM      7  C   UNL     1       9.873  -2.300  -3.569  0.00  0.00    +0.000 C 
BRANCH   7   6
ATOM      6  O   UNL     1       9.434  -0.979  -3.259  0.00  0.00    +0.000 OA
BRANCH   6   5
ATOM      5  C   UNL     1       9.501  -0.140  -4.412  0.00  0.00    +0.000 C 
BRANCH   5   4
ATOM      4  C   UNL     1       9.004   1.250  -4.045  0.00  0.00    +0.000 C 
BRANCH   4   3
ATOM      3  O   UNL     1       9.077   2.095  -5.191  0.00  0.00    +0.000 OA
BRANCH   3   2
ATOM      1  C   UNL     1       8.722   4.249  -6.149  0.00  0.00    +0.000 C 
ATOM      2  C   UNL     1       8.620   3.411  -4.892  0.00  0.00    +0.000 C 
ENDBRANCH   3   2
ENDBRANCH   4   3
ENDBRANCH   5   4
ENDBRANCH   6   5
ENDBRANCH   7   6
ENDBRANCH   8   7
ENDBRANCH   9   8
ENDBRANCH  10   9
ENDBRANCH  11  10
BRANCH  14  15
ATOM     15  C   UNL     1      12.154 -10.726  -2.763  0.00  0.00    +0.000 C 
BRANCH  15  16
ATOM     16  N   UNL     1      12.836 -11.354  -1.663  0.00  0.00    +0.000 N 
ATOM     17  C   UNL     1      13.392 -12.600  -1.795  0.00  0.00    +0.000 C 
ATOM     18  O   UNL     1      13.397 -13.202  -2.865  0.00  0.00    +0.000 OA
ATOM     32  H   UNL     1      12.652 -10.982  -0.736  0.00  0.00    +0.000 HD
BRANCH  17  19
ATOM     19  C   UNL     1      14.039 -13.156  -0.600  0.00  0.00    +0.000 A 
ATOM     20  C   UNL     1      15.028 -14.120  -0.740  0.00  0.00    +0.000 A 
ATOM     21  S   UNL     1      15.699 -14.628   0.743  0.00  0.00    +0.000 S 
ATOM     22  C   UNL     1      14.662 -13.609   1.625  0.00  0.00    +0.000 A 
ATOM     23  N   UNL     1      14.702 -13.579   2.986  0.00  0.00    +0.000 NA
ATOM     24  C   UNL     1      13.844 -12.782   3.527  0.00  0.00    +0.000 A 
ATOM     25  N   UNL     1      12.948 -12.009   2.831  0.00  0.00    +0.000 N 
ATOM     26  C   UNL     1      12.887 -11.989   1.458  0.00  0.00    +0.000 A 
ATOM     27  O   UNL     1      12.104 -11.254   0.868  0.00  0.00    +0.000 OA
ATOM     28  C   UNL     1      13.826 -12.877   0.803  0.00  0.00    +0.000 A 
ATOM     33  H   UNL     1      12.309 -11.397   3.315  0.00  0.00    +0.000 HD
ENDBRANCH  17  19
ENDBRANCH  15  16
ENDBRANCH  14  15
TORSDOF 12
