REMARK  Name = 
REMARK  2 active torsions:
REMARK  status: ('A' for Active; 'I' for Inactive)
REMARK    1  A    between atoms: C_2  and  C_4
REMARK    2  A    between atoms: N_8  and  C_9
REMARK                            x       y       z     vdW  Elec       q    Type
REMARK                         _______ _______ _______ _____ _____    ______ ____
ROOT
ATOM      4  C   UNL     1       3.295  -0.264  -1.170  0.00  0.00    +0.000 A 
ATOM      5  C   UNL     1       3.720  -1.577  -1.013  0.00  0.00    +0.000 A 
ATOM      6  C   UNL     1       4.295  -2.230  -2.102  0.00  0.00    +0.000 A 
ATOM      7  C   UNL     1       4.404  -1.582  -3.333  0.00  0.00    +0.000 A 
ATOM      8  N   UNL     1       4.979  -2.305  -4.373  0.00  0.00    +0.000 N 
ATOM     14  N   UNL     1       3.957  -0.325  -3.510  0.00  0.00    +0.000 NA
ATOM     15  C   UNL     1       3.419   0.309  -2.428  0.00  0.00    +0.000 A 
ATOM     18  H   UNL     1       5.925  -2.579  -4.129  0.00  0.00    +0.000 HD
ENDROOT
BRANCH   4   2
ATOM      1  N   UNL     1       3.014   0.145   1.212  0.00  0.00    +0.000 N 
ATOM      2  C   UNL     1       2.706   0.525  -0.066  0.00  0.00    +0.000 C 
ATOM      3  O   UNL     1       1.998   1.498  -0.279  0.00  0.00    +0.000 OA
ATOM     16  H   UNL     1       2.680   0.746   1.953  0.00  0.00    +0.000 HD
ATOM     17  H   UNL     1       3.765  -0.492   1.433  0.00  0.00    +0.000 HD
ENDBRANCH   4   2
BRANCH   8   9
ATOM      9  C   UNL     1       4.838  -1.851  -5.749  0.00  0.00    +0.000 C 
ATOM     10  C   UNL     1       5.208  -3.032  -6.656  0.00  0.00    +0.000 C 
ATOM     11  C   UNL     1       5.847  -2.449  -7.906  0.00  0.00    +0.000 C 
ATOM     12  C   UNL     1       6.060  -0.966  -7.637  0.00  0.00    +0.000 C 
ATOM     13  C   UNL     1       5.829  -0.762  -6.143  0.00  0.00    +0.000 C 
ENDBRANCH   8   9
TORSDOF 2
