REMARK  Name = 
REMARK  8 active torsions:
REMARK  status: ('A' for Active; 'I' for Inactive)
REMARK    1  A    between atoms: C_1  and  C_2
REMARK    2  A    between atoms: C_2  and  C_3
REMARK    3  A    between atoms: C_2  and  C_4
REMARK    4  A    between atoms: C_2  and  C_15
REMARK    5  A    between atoms: C_4  and  N_5
REMARK    6  A    between atoms: C_9  and  C_10
REMARK    7  A    between atoms: C_19  and  N_20
REMARK    8  A    between atoms: N_20  and  C_21
REMARK                            x       y       z     vdW  Elec       q    Type
REMARK                         _______ _______ _______ _____ _____    ______ ____
ROOT
ATOM      1  C   UNL     1       0.944  -0.084  -0.029  0.00  0.00    +0.000 C 
ATOM      2  C   UNL     1       2.494   0.024  -0.056  0.00  0.00    +0.000 C 
ATOM      3  C   UNL     1       3.033  -0.304   1.351  0.00  0.00    +0.000 C 
ENDROOT
BRANCH   2  15
ATOM     15  C   UNL     1       2.953   1.473  -0.396  0.00  0.00    +0.000 A 
ATOM     16  C   UNL     1       2.144   2.579  -0.077  0.00  0.00    +0.000 A 
ATOM     17  C   UNL     1       2.549   3.887  -0.350  0.00  0.00    +0.000 A 
ATOM     18  C   UNL     1       3.782   4.133  -0.946  0.00  0.00    +0.000 A 
ATOM     19  C   UNL     1       4.630   3.075  -1.262  0.00  0.00    +0.000 A 
ATOM     25  C   UNL     1       4.217   1.759  -0.963  0.00  0.00    +0.000 A 
BRANCH  19  20
ATOM     20  N   UNL     1       5.930   3.282  -1.790  0.00  0.00    +0.000 N 
ATOM     29  H   UNL     1       6.613   3.103  -1.052  0.00  0.00    +0.000 HD
BRANCH  20  21
ATOM     21  C   UNL     1       6.309   4.404  -2.619  0.00  0.00    +0.000 C 
ATOM     22  C   UNL     1       7.808   4.391  -3.005  0.00  0.00    +0.000 C 
ATOM     23  N   UNL     1       7.852   5.855  -2.774  0.00  0.00    +0.000 NA
ATOM     24  C   UNL     1       6.665   5.719  -1.892  0.00  0.00    +0.000 C 
ATOM     30  H   UNL     1       7.664   6.396  -3.619  0.00  0.00    +0.000 HD
ENDBRANCH  20  21
ENDBRANCH  19  20
ENDBRANCH   2  15
BRANCH   2   4
ATOM      4  C   UNL     1       3.028  -1.029  -1.086  0.00  0.00    +0.000 C 
BRANCH   4   5
ATOM      5  N   UNL     1       2.654  -2.416  -0.739  0.00  0.00    +0.000 N 
ATOM      6  C   UNL     1       3.133  -3.378  -1.643  0.00  0.00    +0.000 A 
ATOM      7  C   UNL     1       2.846  -4.722  -1.399  0.00  0.00    +0.000 A 
ATOM      8  C   UNL     1       3.307  -5.693  -2.289  0.00  0.00    +0.000 A 
ATOM      9  C   UNL     1       4.044  -5.311  -3.410  0.00  0.00    +0.000 A 
ATOM     13  C   UNL     1       4.288  -3.957  -3.567  0.00  0.00    +0.000 A 
ATOM     14  N   UNL     1       3.857  -2.999  -2.714  0.00  0.00    +0.000 NA
ATOM     26  H   UNL     1       1.650  -2.547  -0.669  0.00  0.00    +0.000 HD
BRANCH   9  10
ATOM     10  C   UNL     1       4.522  -6.340  -4.361  0.00  0.00    +0.000 C 
ATOM     11  N   UNL     1       5.244  -5.951  -5.454  0.00  0.00    +0.000 N 
ATOM     12  O   UNL     1       4.275  -7.528  -4.184  0.00  0.00    +0.000 OA
ATOM     27  H   UNL     1       5.505  -5.008  -5.693  0.00  0.00    +0.000 HD
ATOM     28  H   UNL     1       5.552  -6.688  -6.077  0.00  0.00    +0.000 HD
ENDBRANCH   9  10
ENDBRANCH   4   5
ENDBRANCH   2   4
TORSDOF 6
