REMARK  Name = 
REMARK  5 active torsions:
REMARK  status: ('A' for Active; 'I' for Inactive)
REMARK    1  A    between atoms: C_1  and  C_2
REMARK    2  A    between atoms: C_2  and  C_3
REMARK    3  A    between atoms: C_2  and  N_4
REMARK    4  A    between atoms: C_2  and  C_14
REMARK    5  A    between atoms: C_8  and  C_9
REMARK                            x       y       z     vdW  Elec       q    Type
REMARK                         _______ _______ _______ _____ _____    ______ ____
ROOT
ATOM      4  N   UNL     1       2.765  -1.512  -0.163  0.00  0.00    +0.000 N 
ATOM      5  C   UNL     1       2.033  -2.493   0.501  0.00  0.00    +0.000 A 
ATOM      6  C   UNL     1       2.062  -3.787  -0.012  0.00  0.00    +0.000 A 
ATOM      7  C   UNL     1       1.259  -4.778   0.557  0.00  0.00    +0.000 A 
ATOM      8  C   UNL     1       0.466  -4.474   1.661  0.00  0.00    +0.000 A 
ATOM     12  C   UNL     1       0.537  -3.178   2.141  0.00  0.00    +0.000 A 
ATOM     13  N   UNL     1       1.301  -2.198   1.590  0.00  0.00    +0.000 NA
ATOM     20  H   UNL     1       3.756  -1.685  -0.035  0.00  0.00    +0.000 HD
ENDROOT
BRANCH   8   9
ATOM      9  C   UNL     1      -0.405  -5.523   2.243  0.00  0.00    +0.000 C 
ATOM     10  N   UNL     1      -1.164  -5.231   3.342  0.00  0.00    +0.000 N 
ATOM     11  O   UNL     1      -0.456  -6.645   1.750  0.00  0.00    +0.000 OA
ATOM     21  H   UNL     1      -1.196  -4.349   3.829  0.00  0.00    +0.000 HD
ATOM     22  H   UNL     1      -1.745  -5.980   3.697  0.00  0.00    +0.000 HD
ENDBRANCH   8   9
BRANCH   4   2
ATOM      1  C   UNL     1       0.900   0.141  -0.111  0.00  0.00    +0.000 C 
ATOM      2  C   UNL     1       2.429  -0.074  -0.067  0.00  0.00    +0.000 C 
ATOM      3  C   UNL     1       3.046   0.507   1.221  0.00  0.00    +0.000 C 
BRANCH   2  14
ATOM     14  C   UNL     1       3.028   0.670  -1.293  0.00  0.00    +0.000 A 
ATOM     15  C   UNL     1       2.859   2.066  -1.425  0.00  0.00    +0.000 A 
ATOM     16  C   UNL     1       3.322   2.759  -2.546  0.00  0.00    +0.000 A 
ATOM     17  C   UNL     1       3.990   2.078  -3.556  0.00  0.00    +0.000 A 
ATOM     18  C   UNL     1       4.194   0.706  -3.443  0.00  0.00    +0.000 A 
ATOM     19  C   UNL     1       3.714   0.008  -2.328  0.00  0.00    +0.000 A 
ENDBRANCH   2  14
ENDBRANCH   4   2
TORSDOF 3
