REMARK  Name = 
REMARK  6 active torsions:
REMARK  status: ('A' for Active; 'I' for Inactive)
REMARK    1  A    between atoms: N_1  and  C_2
REMARK    2  A    between atoms: C_2  and  C_3
REMARK    3  A    between atoms: C_6  and  C_7
REMARK    4  A    between atoms: C_7  and  N_8
REMARK    5  A    between atoms: C_9  and  C_10
REMARK    6  A    between atoms: C_16  and  C_17
REMARK                            x       y       z     vdW  Elec       q    Type
REMARK                         _______ _______ _______ _____ _____    ______ ____
ROOT
ATOM      8  N   UNL     1       3.392   4.952  -3.953  0.00  0.00    +0.000 N 
ATOM      9  C   UNL     1       2.438   5.441  -4.826  0.00  0.00    +0.000 A 
ATOM     13  C   UNL     1       1.987   6.644  -4.322  0.00  0.00    +0.000 A 
ATOM     14  C   UNL     1       2.696   6.913  -3.129  0.00  0.00    +0.000 A 
ATOM     15  C   UNL     1       2.684   7.958  -2.191  0.00  0.00    +0.000 A 
ATOM     16  C   UNL     1       3.548   7.861  -1.099  0.00  0.00    +0.000 A 
ATOM     20  C   UNL     1       4.378   6.745  -1.011  0.00  0.00    +0.000 A 
ATOM     21  N   UNL     1       4.424   5.707  -1.889  0.00  0.00    +0.000 NA
ATOM     22  C   UNL     1       3.565   5.849  -2.919  0.00  0.00    +0.000 A 
ENDROOT
BRANCH  16  17
ATOM     17  C   UNL     1       3.614   8.878  -0.022  0.00  0.00    +0.000 C 
ATOM     18  N   UNL     1       2.777   9.958  -0.086  0.00  0.00    +0.000 N 
ATOM     19  O   UNL     1       4.388   8.760   0.920  0.00  0.00    +0.000 OA
ATOM     27  H   UNL     1       2.095  10.133  -0.805  0.00  0.00    +0.000 HD
ATOM     28  H   UNL     1       2.833  10.622   0.677  0.00  0.00    +0.000 HD
ENDBRANCH  16  17
BRANCH   9  10
ATOM     10  C   UNL     1       1.959   4.801  -6.126  0.00  0.00    +0.000 C 
ATOM     11  C   UNL     1       1.502   5.719  -7.247  0.00  0.00    +0.000 C 
ATOM     12  C   UNL     1       0.493   4.920  -6.498  0.00  0.00    +0.000 C 
ENDBRANCH   9  10
BRANCH   8   7
ATOM      7  C   UNL     1       4.056   3.652  -4.010  0.00  0.00    +0.000 C 
BRANCH   7   6
ATOM      3  C   UNL     1       7.832   3.412  -6.158  0.00  0.00    +0.000 A 
ATOM      4  C   UNL     1       7.125   4.621  -6.118  0.00  0.00    +0.000 A 
ATOM      5  C   UNL     1       5.910   4.723  -5.434  0.00  0.00    +0.000 A 
ATOM      6  C   UNL     1       5.363   3.616  -4.774  0.00  0.00    +0.000 A 
ATOM     23  C   UNL     1       6.075   2.404  -4.817  0.00  0.00    +0.000 A 
ATOM     24  C   UNL     1       7.293   2.301  -5.500  0.00  0.00    +0.000 A 
BRANCH   3   2
ATOM      2  C   UNL     1       9.136   3.319  -6.908  0.00  0.00    +0.000 C 
BRANCH   2   1
ATOM      1  N   UNL     1      10.123   4.260  -6.390  0.00  0.00    +0.000 NA
ATOM     25  H   UNL     1      11.014   4.106  -6.857  0.00  0.00    +0.000 HD
ATOM     26  H   UNL     1      10.273   4.064  -5.401  0.00  0.00    +0.000 HD
ENDBRANCH   2   1
ENDBRANCH   3   2
ENDBRANCH   7   6
ENDBRANCH   8   7
TORSDOF 6
