REMARK  Name = 
REMARK  3 active torsions:
REMARK  status: ('A' for Active; 'I' for Inactive)
REMARK    1  A    between atoms: C_2  and  C_4
REMARK    2  A    between atoms: N_8  and  C_9
REMARK    3  A    between atoms: C_9  and  C_10
REMARK                            x       y       z     vdW  Elec       q    Type
REMARK                         _______ _______ _______ _____ _____    ______ ____
ROOT
ATOM      4  C   UNL     1       3.165  -1.339   0.414  0.00  0.00    +0.000 A 
ATOM      5  C   UNL     1       3.601  -0.760   1.601  0.00  0.00    +0.000 A 
ATOM      6  C   UNL     1       4.395  -1.510   2.468  0.00  0.00    +0.000 A 
ATOM      7  C   UNL     1       4.707  -2.833   2.154  0.00  0.00    +0.000 A 
ATOM      8  N   UNL     1       5.450  -3.557   3.088  0.00  0.00    +0.000 N 
ATOM     16  N   UNL     1       4.287  -3.407   1.011  0.00  0.00    +0.000 NA
ATOM     17  C   UNL     1       3.529  -2.656   0.168  0.00  0.00    +0.000 A 
ATOM     20  H   UNL     1       6.391  -3.180   3.154  0.00  0.00    +0.000 HD
ENDROOT
BRANCH   4   2
ATOM      1  N   UNL     1       2.333   0.729  -0.560  0.00  0.00    +0.000 N 
ATOM      2  C   UNL     1       2.313  -0.639  -0.568  0.00  0.00    +0.000 C 
ATOM      3  O   UNL     1       1.634  -1.252  -1.380  0.00  0.00    +0.000 OA
ATOM     18  H   UNL     1       1.812   1.190  -1.292  0.00  0.00    +0.000 HD
ATOM     19  H   UNL     1       3.029   1.271  -0.072  0.00  0.00    +0.000 HD
ENDBRANCH   4   2
BRANCH   8   9
ATOM      9  C   UNL     1       5.450  -5.003   2.910  0.00  0.00    +0.000 C 
BRANCH   9  10
ATOM     10  C   UNL     1       5.928  -5.691   4.176  0.00  0.00    +0.000 A 
ATOM     11  C   UNL     1       5.762  -5.109   5.445  0.00  0.00    +0.000 A 
ATOM     12  C   UNL     1       6.145  -5.788   6.603  0.00  0.00    +0.000 A 
ATOM     13  C   UNL     1       6.682  -7.069   6.512  0.00  0.00    +0.000 A 
ATOM     14  C   UNL     1       6.836  -7.670   5.264  0.00  0.00    +0.000 A 
ATOM     15  C   UNL     1       6.462  -6.986   4.104  0.00  0.00    +0.000 A 
ENDBRANCH   9  10
ENDBRANCH   8   9
TORSDOF 3
