REMARK  Name = 
REMARK  4 active torsions:
REMARK  status: ('A' for Active; 'I' for Inactive)
REMARK    1  A    between atoms: C_2  and  C_4
REMARK    2  A    between atoms: N_11  and  C_12
REMARK    3  A    between atoms: C_12  and  C_13
REMARK    4  A    between atoms: N_15  and  C_16
REMARK                            x       y       z     vdW  Elec       q    Type
REMARK                         _______ _______ _______ _____ _____    ______ ____
ROOT
ATOM      4  C   UNL     1       3.316   1.097  -0.396  0.00  0.00    +0.000 A 
ATOM      5  C   UNL     1       2.924   2.347   0.077  0.00  0.00    +0.000 A 
ATOM      6  N   UNL     1       3.485   3.538  -0.258  0.00  0.00    +0.000 NA
ATOM      7  C   UNL     1       4.517   3.410  -1.113  0.00  0.00    +0.000 A 
ATOM      8  C   UNL     1       5.004   2.226  -1.667  0.00  0.00    +0.000 A 
ATOM      9  C   UNL     1       6.074   2.580  -2.530  0.00  0.00    +0.000 A 
ATOM     10  C   UNL     1       6.213   3.951  -2.483  0.00  0.00    +0.000 A 
ATOM     11  N   UNL     1       5.265   4.445  -1.622  0.00  0.00    +0.000 N 
ATOM     20  C   UNL     1       4.381   1.022  -1.299  0.00  0.00    +0.000 A 
ENDROOT
BRANCH   4   2
ATOM      1  N   UNL     1       3.191  -1.306  -0.014  0.00  0.00    +0.000 N 
ATOM      2  C   UNL     1       2.553  -0.098   0.025  0.00  0.00    +0.000 C 
ATOM      3  O   UNL     1       1.393  -0.006   0.412  0.00  0.00    +0.000 OA
ATOM     21  H   UNL     1       2.675  -2.104   0.336  0.00  0.00    +0.000 HD
ATOM     22  H   UNL     1       4.192  -1.399  -0.106  0.00  0.00    +0.000 HD
ENDBRANCH   4   2
BRANCH  11  12
ATOM     12  C   UNL     1       5.121   5.844  -1.250  0.00  0.00    +0.000 C 
BRANCH  12  13
ATOM     13  C   UNL     1       4.216   6.639  -2.171  0.00  0.00    +0.000 C 
ATOM     14  O   UNL     1       4.519   7.780  -2.524  0.00  0.00    +0.000 OA
ATOM     15  N   UNL     1       3.013   6.065  -2.525  0.00  0.00    +0.000 N 
ATOM     23  H   UNL     1       2.771   5.166  -2.114  0.00  0.00    +0.000 HD
BRANCH  15  16
ATOM     16  C   UNL     1       2.032   6.790  -3.365  0.00  0.00    +0.000 C 
ATOM     17  C   UNL     1       1.413   8.055  -2.730  0.00  0.00    +0.000 C 
ATOM     18  N   UNL     1       0.086   7.632  -3.241  0.00  0.00    +0.000 NA
ATOM     19  C   UNL     1       0.590   6.243  -3.325  0.00  0.00    +0.000 C 
ATOM     24  H   UNL     1      -0.136   8.040  -4.150  0.00  0.00    +0.000 HD
ENDBRANCH  15  16
ENDBRANCH  12  13
ENDBRANCH  11  12
TORSDOF 4
