REMARK  Name = 
REMARK  5 active torsions:
REMARK  status: ('A' for Active; 'I' for Inactive)
REMARK    1  A    between atoms: N_1  and  C_2
REMARK    2  A    between atoms: C_2  and  C_3
REMARK    3  A    between atoms: C_6  and  C_7
REMARK    4  A    between atoms: C_7  and  N_8
REMARK    5  A    between atoms: C_12  and  C_13
REMARK                            x       y       z     vdW  Elec       q    Type
REMARK                         _______ _______ _______ _____ _____    ______ ____
ROOT
ATOM      8  N   UNL     1       4.252  -3.805   5.079  0.00  0.00    +0.000 N 
ATOM      9  C   UNL     1       4.606  -4.654   6.101  0.00  0.00    +0.000 A 
ATOM     10  C   UNL     1       5.028  -5.964   5.913  0.00  0.00    +0.000 A 
ATOM     11  C   UNL     1       5.440  -6.722   7.013  0.00  0.00    +0.000 A 
ATOM     12  C   UNL     1       5.455  -6.147   8.282  0.00  0.00    +0.000 A 
ATOM     16  C   UNL     1       5.020  -4.837   8.379  0.00  0.00    +0.000 A 
ATOM     17  N   UNL     1       4.588  -4.094   7.326  0.00  0.00    +0.000 NA
ATOM     22  H   UNL     1       3.793  -2.990   5.476  0.00  0.00    +0.000 HD
ENDROOT
BRANCH  12  13
ATOM     13  C   UNL     1       5.944  -6.942   9.434  0.00  0.00    +0.000 C 
ATOM     14  N   UNL     1       5.981  -6.369  10.673  0.00  0.00    +0.000 N 
ATOM     15  O   UNL     1       6.318  -8.103   9.286  0.00  0.00    +0.000 OA
ATOM     23  H   UNL     1       5.715  -5.424  10.901  0.00  0.00    +0.000 HD
ATOM     24  H   UNL     1       6.342  -6.944  11.424  0.00  0.00    +0.000 HD
ENDBRANCH  12  13
BRANCH   8   7
ATOM      7  C   UNL     1       3.701  -4.298   3.835  0.00  0.00    +0.000 C 
BRANCH   7   6
ATOM      3  C   UNL     1       2.785  -1.098   1.044  0.00  0.00    +0.000 A 
ATOM      4  C   UNL     1       3.874  -0.979   1.919  0.00  0.00    +0.000 A 
ATOM      5  C   UNL     1       4.185  -2.005   2.815  0.00  0.00    +0.000 A 
ATOM      6  C   UNL     1       3.398  -3.165   2.878  0.00  0.00    +0.000 A 
ATOM     18  C   UNL     1       2.334  -3.297   1.974  0.00  0.00    +0.000 A 
ATOM     19  C   UNL     1       2.028  -2.275   1.072  0.00  0.00    +0.000 A 
BRANCH   3   2
ATOM      2  C   UNL     1       2.418   0.029   0.113  0.00  0.00    +0.000 C 
BRANCH   2   1
ATOM      1  N   UNL     1       3.519   0.380  -0.776  0.00  0.00    +0.000 NA
ATOM     20  H   UNL     1       3.181   1.031  -1.482  0.00  0.00    +0.000 HD
ATOM     21  H   UNL     1       3.816  -0.458  -1.274  0.00  0.00    +0.000 HD
ENDBRANCH   2   1
ENDBRANCH   3   2
ENDBRANCH   7   6
ENDBRANCH   8   7
TORSDOF 5
