REMARK  Name = 
REMARK  11 active torsions:
REMARK  status: ('A' for Active; 'I' for Inactive)
REMARK    1  A    between atoms: N_2  and  C_3
REMARK    2  A    between atoms: C_3  and  C_4
REMARK    3  A    between atoms: C_4  and  C_5
REMARK    4  A    between atoms: C_5  and  C_6
REMARK    5  A    between atoms: C_6  and  C_7
REMARK    6  A    between atoms: C_7  and  N_8
REMARK    7  A    between atoms: N_8  and  C_9
REMARK    8  A    between atoms: C_9  and  C_10
REMARK    9  A    between atoms: C_13  and  C_14
REMARK   10  A    between atoms: C_14  and  N_15
REMARK   11  A    between atoms: C_16  and  C_18
REMARK                            x       y       z     vdW  Elec       q    Type
REMARK                         _______ _______ _______ _____ _____    ______ ____
ROOT
ATOM      1 CL   UNL     1       0.035  -1.623  -1.714  0.00  0.00    +0.000 Cl
ATOM      2  H   UNL     1       0.333  -1.930  -0.407  0.00  0.00    +0.000 HD
ENDROOT
TORSDOF 0
REMARK  Name = 
REMARK  11 active torsions:
REMARK  status: ('A' for Active; 'I' for Inactive)
REMARK    1  A    between atoms: N_2  and  C_3
REMARK    2  A    between atoms: C_3  and  C_4
REMARK    3  A    between atoms: C_4  and  C_5
REMARK    4  A    between atoms: C_5  and  C_6
REMARK    5  A    between atoms: C_6  and  C_7
REMARK    6  A    between atoms: C_7  and  N_8
REMARK    7  A    between atoms: N_8  and  C_9
REMARK    8  A    between atoms: C_9  and  C_10
REMARK    9  A    between atoms: C_13  and  C_14
REMARK   10  A    between atoms: C_14  and  N_15
REMARK   11  A    between atoms: C_16  and  C_18
REMARK                            x       y       z     vdW  Elec       q    Type
REMARK                         _______ _______ _______ _____ _____    ______ ____
ROOT
ATOM      9  C   UNL     1       8.927  -5.607  -0.128  0.00  0.00    +0.000 A 
ATOM     10  C   UNL     1      10.288  -5.819   0.137  0.00  0.00    +0.000 A 
ATOM     11  C   UNL     1      10.817  -7.114   0.150  0.00  0.00    +0.000 A 
ATOM     12  C   UNL     1       9.987  -8.219  -0.102  0.00  0.00    +0.000 A 
ATOM     27  C   UNL     1       8.624  -8.009  -0.350  0.00  0.00    +0.000 A 
ATOM     28  C   UNL     1       8.096  -6.714  -0.369  0.00  0.00    +0.000 A 
ENDROOT
BRANCH   9   8
ATOM      8  C   UNL     1       8.371  -4.205  -0.138  0.00  0.00    +0.000 C 
BRANCH   8   7
ATOM      7  N   UNL     1       9.040  -3.390  -1.159  0.00  0.00    +0.000 NA
ATOM     31  H   UNL     1      10.067  -3.345  -0.960  0.00  0.00    +0.000 HD
BRANCH   7   6
ATOM      6  C   UNL     1       8.522  -2.018  -1.147  0.00  0.00    +0.000 C 
BRANCH   6   5
ATOM      5  C   UNL     1       9.211  -1.182  -2.226  0.00  0.00    +0.000 C 
BRANCH   5   4
ATOM      4  C   UNL     1       8.963  -1.778  -3.615  0.00  0.00    +0.000 C 
BRANCH   4   3
ATOM      3  C   UNL     1       9.642  -0.948  -4.703  0.00  0.00    +0.000 C 
BRANCH   3   2
ATOM      2  C   UNL     1       9.378  -1.557  -6.081  0.00  0.00    +0.000 C 
BRANCH   2   1
ATOM      1  N   UNL     1      10.022  -0.757  -7.116  0.00  0.00    +0.000 NA
ATOM     29  H   UNL     1       9.720  -1.116  -8.050  0.00  0.00    +0.000 HD
ATOM     30  H   UNL     1      11.058  -0.884  -7.043  0.00  0.00    +0.000 HD
ENDBRANCH   2   1
ENDBRANCH   3   2
ENDBRANCH   4   3
ENDBRANCH   5   4
ENDBRANCH   6   5
ENDBRANCH   7   6
ENDBRANCH   8   7
ENDBRANCH   9   8
BRANCH  12  13
ATOM     13  C   UNL     1      10.540  -9.625  -0.098  0.00  0.00    +0.000 C 
BRANCH  13  14
ATOM     14  N   UNL     1      10.480 -10.215   1.229  0.00  0.00    +0.000 N 
ATOM     15  C   UNL     1      10.951 -11.466   1.484  0.00  0.00    +0.000 C 
ATOM     16  O   UNL     1      11.431 -12.126   0.576  0.00  0.00    +0.000 OA
ATOM     32  H   UNL     1      10.104  -9.642   2.000  0.00  0.00    +0.000 HD
BRANCH  15  17
ATOM     17  C   UNL     1      10.904 -12.023   2.872  0.00  0.00    +0.000 A 
ATOM     18  C   UNL     1       9.973 -11.563   3.816  0.00  0.00    +0.000 A 
ATOM     19  S   UNL     1      10.169 -12.377   5.279  0.00  0.00    +0.000 S 
ATOM     20  C   UNL     1      11.444 -13.311   4.741  0.00  0.00    +0.000 A 
ATOM     21  N   UNL     1      12.130 -14.212   5.479  0.00  0.00    +0.000 NA
ATOM     22  C   UNL     1      13.171 -14.878   4.913  0.00  0.00    +0.000 A 
ATOM     23  N   UNL     1      13.520 -14.637   3.617  0.00  0.00    +0.000 N 
ATOM     24  C   UNL     1      12.833 -13.727   2.847  0.00  0.00    +0.000 A 
ATOM     25  O   UNL     1      13.190 -13.527   1.701  0.00  0.00    +0.000 OA
ATOM     26  C   UNL     1      11.749 -13.030   3.418  0.00  0.00    +0.000 A 
ATOM     33  H   UNL     1      14.332 -15.155   3.209  0.00  0.00    +0.000 HD
ENDBRANCH  15  17
ENDBRANCH  13  14
ENDBRANCH  12  13
TORSDOF 11
