REMARK  Name = 
REMARK  4 active torsions:
REMARK  status: ('A' for Active; 'I' for Inactive)
REMARK    1  A    between atoms: C_2  and  C_4
REMARK    2  A    between atoms: C_11  and  C_12
REMARK    3  A    between atoms: N_15  and  C_16
REMARK    4  A    between atoms: C_16  and  C_17
REMARK                            x       y       z     vdW  Elec       q    Type
REMARK                         _______ _______ _______ _____ _____    ______ ____
ROOT
ATOM      4  C   UNL     1       3.364  -0.596   1.128  0.00  0.00    +0.000 A 
ATOM      5  C   UNL     1       2.993  -1.771   1.776  0.00  0.00    +0.000 A 
ATOM      6  N   UNL     1       3.665  -2.373   2.795  0.00  0.00    +0.000 NA
ATOM      7  C   UNL     1       4.774  -1.694   3.171  0.00  0.00    +0.000 A 
ATOM      8  C   UNL     1       5.240  -0.509   2.608  0.00  0.00    +0.000 A 
ATOM      9  C   UNL     1       4.511   0.070   1.561  0.00  0.00    +0.000 A 
ATOM     10  C   UNL     1       6.434  -0.169   3.280  0.00  0.00    +0.000 A 
ATOM     11  C   UNL     1       6.679  -1.137   4.231  0.00  0.00    +0.000 A 
ATOM     15  N   UNL     1       5.655  -2.063   4.171  0.00  0.00    +0.000 N 
ENDROOT
BRANCH   4   2
ATOM      1  N   UNL     1       3.156   0.711  -0.913  0.00  0.00    +0.000 N 
ATOM      2  C   UNL     1       2.536  -0.082   0.019  0.00  0.00    +0.000 C 
ATOM      3  O   UNL     1       1.352  -0.372  -0.087  0.00  0.00    +0.000 OA
ATOM     26  H   UNL     1       2.605   0.994  -1.712  0.00  0.00    +0.000 HD
ATOM     27  H   UNL     1       4.160   0.799  -0.981  0.00  0.00    +0.000 HD
ENDBRANCH   4   2
BRANCH  11  12
ATOM     12  C   UNL     1       7.869  -1.137   5.184  0.00  0.00    +0.000 C 
ATOM     13  C   UNL     1       8.429   0.210   5.608  0.00  0.00    +0.000 C 
ATOM     14  C   UNL     1       9.215  -0.648   4.682  0.00  0.00    +0.000 C 
ENDBRANCH  11  12
BRANCH  15  16
ATOM     16  C   UNL     1       5.595  -3.343   4.874  0.00  0.00    +0.000 C 
BRANCH  16  17
ATOM     17  C   UNL     1       5.355  -3.261   6.376  0.00  0.00    +0.000 C 
ATOM     18  O   UNL     1       5.196  -2.196   6.971  0.00  0.00    +0.000 OA
ATOM     19  N   UNL     1       5.280  -4.484   7.056  0.00  0.00    +0.000 N 
ATOM     20  C   UNL     1       4.922  -4.490   8.474  0.00  0.00    +0.000 C 
ATOM     21  C   UNL     1       4.041  -5.704   8.778  0.00  0.00    +0.000 C 
ATOM     22  N   UNL     1       4.663  -6.942   8.354  0.00  0.00    +0.000 N 
ATOM     23  C   UNL     1       5.419  -7.031   7.213  0.00  0.00    +0.000 C 
ATOM     24  O   UNL     1       5.766  -8.133   6.790  0.00  0.00    +0.000 OA
ATOM     25  C   UNL     1       5.908  -5.721   6.572  0.00  0.00    +0.000 C 
ATOM     28  H   UNL     1       4.316  -7.828   8.703  0.00  0.00    +0.000 HD
ENDBRANCH  16  17
ENDBRANCH  15  16
TORSDOF 4
