REMARK  Name = 
REMARK  11 active torsions:
REMARK  status: ('A' for Active; 'I' for Inactive)
REMARK    1  A    between atoms: C_2  and  C_19
REMARK    2  A    between atoms: N_3  and  C_4
REMARK    3  A    between atoms: C_4  and  C_5
REMARK    4  A    between atoms: C_8  and  C_9
REMARK    5  A    between atoms: C_9  and  N_10
REMARK    6  A    between atoms: N_10  and  C_11
REMARK    7  A    between atoms: C_11  and  C_12
REMARK    8  A    between atoms: C_12  and  O_13
REMARK    9  A    between atoms: O_13  and  C_14
REMARK   10  A    between atoms: C_14  and  C_15
REMARK   11  A    between atoms: C_15  and  O_16
REMARK                            x       y       z     vdW  Elec       q    Type
REMARK                         _______ _______ _______ _____ _____    ______ ____
ROOT
ATOM      4  C   UNL     1       2.246   1.066  -2.195  0.00  0.00    +0.000 C 
ENDROOT
BRANCH   4   5
ATOM      5  C   UNL     1       3.214   1.546  -3.243  0.00  0.00    +0.000 A 
ATOM      6  C   UNL     1       3.252   2.900  -3.596  0.00  0.00    +0.000 A 
ATOM      7  C   UNL     1       4.143   3.353  -4.571  0.00  0.00    +0.000 A 
ATOM      8  C   UNL     1       5.012   2.463  -5.217  0.00  0.00    +0.000 A 
ATOM     17  C   UNL     1       4.957   1.104  -4.879  0.00  0.00    +0.000 A 
ATOM     18  C   UNL     1       4.062   0.649  -3.906  0.00  0.00    +0.000 A 
BRANCH   8   9
ATOM      9  C   UNL     1       5.969   2.962  -6.276  0.00  0.00    +0.000 C 
BRANCH   9  10
ATOM     10  N   UNL     1       6.884   3.961  -5.724  0.00  0.00    +0.000 NA
ATOM     30  H   UNL     1       7.391   3.538  -4.947  0.00  0.00    +0.000 HD
BRANCH  10  11
ATOM     11  C   UNL     1       7.826   4.446  -6.735  0.00  0.00    +0.000 C 
BRANCH  11  12
ATOM     12  C   UNL     1       8.749   5.516  -6.138  0.00  0.00    +0.000 C 
BRANCH  12  13
ATOM     13  O   UNL     1       9.679   5.968  -7.129  0.00  0.00    +0.000 OA
BRANCH  13  14
ATOM     14  C   UNL     1      10.536   6.985  -6.588  0.00  0.00    +0.000 C 
BRANCH  14  15
ATOM     15  C   UNL     1      11.514   7.433  -7.669  0.00  0.00    +0.000 C 
BRANCH  15  16
ATOM     16  O   UNL     1      10.802   7.981  -8.776  0.00  0.00    +0.000 OA
ATOM     31  H   UNL     1      10.117   7.320  -8.994  0.00  0.00    +0.000 HD
ENDBRANCH  15  16
ENDBRANCH  14  15
ENDBRANCH  13  14
ENDBRANCH  12  13
ENDBRANCH  11  12
ENDBRANCH  10  11
ENDBRANCH   9  10
ENDBRANCH   8   9
ENDBRANCH   4   5
BRANCH   4   3
ATOM      1  O   UNL     1      -0.031   2.714  -2.339  0.00  0.00    +0.000 OA
ATOM      2  C   UNL     1      -0.067   1.605  -2.858  0.00  0.00    +0.000 C 
ATOM      3  N   UNL     1       0.976   0.716  -2.780  0.00  0.00    +0.000 N 
ATOM     29  H   UNL     1       0.977  -0.095  -3.387  0.00  0.00    +0.000 HD
BRANCH   2  19
ATOM     19  C   UNL     1      -1.270   1.122  -3.550  0.00  0.00    +0.000 A 
ATOM     20  C   UNL     1      -2.504   1.683  -3.253  0.00  0.00    +0.000 A 
ATOM     21  S   UNL     1      -3.799   0.975  -4.110  0.00  0.00    +0.000 S 
ATOM     22  C   UNL     1      -2.747  -0.065  -4.950  0.00  0.00    +0.000 A 
ATOM     23  N   UNL     1      -3.221  -0.938  -5.879  0.00  0.00    +0.000 NA
ATOM     24  C   UNL     1      -2.308  -1.626  -6.479  0.00  0.00    +0.000 A 
ATOM     25  N   UNL     1      -0.964  -1.528  -6.227  0.00  0.00    +0.000 N 
ATOM     26  C   UNL     1      -0.449  -0.723  -5.239  0.00  0.00    +0.000 A 
ATOM     27  O   UNL     1       0.741  -0.766  -4.944  0.00  0.00    +0.000 OA
ATOM     28  C   UNL     1      -1.429   0.109  -4.567  0.00  0.00    +0.000 A 
ATOM     32  H   UNL     1      -0.302  -2.115  -6.713  0.00  0.00    +0.000 HD
ENDBRANCH   2  19
ENDBRANCH   4   3
TORSDOF 11
