REMARK  Name = 
REMARK  11 active torsions:
REMARK  status: ('A' for Active; 'I' for Inactive)
REMARK    1  A    between atoms: C_2  and  C_19
REMARK    2  A    between atoms: N_3  and  C_4
REMARK    3  A    between atoms: C_4  and  C_5
REMARK    4  A    between atoms: C_8  and  C_9
REMARK    5  A    between atoms: C_9  and  N_10
REMARK    6  A    between atoms: N_10  and  C_11
REMARK    7  A    between atoms: C_11  and  C_12
REMARK    8  A    between atoms: C_12  and  O_13
REMARK    9  A    between atoms: O_13  and  C_14
REMARK   10  A    between atoms: C_14  and  C_15
REMARK   11  A    between atoms: C_15  and  O_16
REMARK                            x       y       z     vdW  Elec       q    Type
REMARK                         _______ _______ _______ _____ _____    ______ ____
ROOT
ATOM      4  C   UNL     1       2.342   2.428  -0.373  0.00  0.00    +0.000 C 
ENDROOT
BRANCH   4   5
ATOM      5  C   UNL     1       3.273   3.592  -0.594  0.00  0.00    +0.000 A 
ATOM      6  C   UNL     1       2.776   4.901  -0.643  0.00  0.00    +0.000 A 
ATOM      7  C   UNL     1       3.638   5.985  -0.837  0.00  0.00    +0.000 A 
ATOM      8  C   UNL     1       5.017   5.785  -0.999  0.00  0.00    +0.000 A 
ATOM     17  C   UNL     1       5.507   4.472  -0.991  0.00  0.00    +0.000 A 
ATOM     18  C   UNL     1       4.644   3.387  -0.797  0.00  0.00    +0.000 A 
BRANCH   8   9
ATOM      9  C   UNL     1       5.951   6.960  -1.198  0.00  0.00    +0.000 C 
BRANCH   9  10
ATOM     10  N   UNL     1       5.912   7.869  -0.051  0.00  0.00    +0.000 NA
ATOM     30  H   UNL     1       6.152   7.338   0.787  0.00  0.00    +0.000 HD
BRANCH  10  11
ATOM     11  C   UNL     1       6.849   8.985  -0.216  0.00  0.00    +0.000 C 
BRANCH  11  12
ATOM     12  C   UNL     1       6.780   9.935   0.988  0.00  0.00    +0.000 C 
BRANCH  12  13
ATOM     13  O   UNL     1       7.712  11.011   0.823  0.00  0.00    +0.000 OA
BRANCH  13  14
ATOM     14  C   UNL     1       7.635  11.916   1.936  0.00  0.00    +0.000 C 
BRANCH  14  15
ATOM     15  C   UNL     1       8.638  13.048   1.734  0.00  0.00    +0.000 C 
BRANCH  15  16
ATOM     16  O   UNL     1       8.331  13.770   0.544  0.00  0.00    +0.000 OA
ATOM     31  H   UNL     1       8.260  13.093  -0.157  0.00  0.00    +0.000 HD
ENDBRANCH  15  16
ENDBRANCH  14  15
ENDBRANCH  13  14
ENDBRANCH  12  13
ENDBRANCH  11  12
ENDBRANCH  10  11
ENDBRANCH   9  10
ENDBRANCH   8   9
ENDBRANCH   4   5
BRANCH   4   3
ATOM      1  O   UNL     1       0.658   0.219  -0.684  0.00  0.00    +0.000 OA
ATOM      2  C   UNL     1       0.977   0.863  -1.681  0.00  0.00    +0.000 C 
ATOM      3  N   UNL     1       1.861   1.910  -1.627  0.00  0.00    +0.000 N 
ATOM     29  H   UNL     1       1.932   2.535  -2.422  0.00  0.00    +0.000 HD
BRANCH   2  19
ATOM     19  C   UNL     1       0.472   0.517  -3.015  0.00  0.00    +0.000 A 
ATOM     20  C   UNL     1       0.026  -0.771  -3.282  0.00  0.00    +0.000 A 
ATOM     21  S   UNL     1      -0.491  -0.994  -4.893  0.00  0.00    +0.000 S 
ATOM     22  C   UNL     1      -0.186   0.637  -5.274  0.00  0.00    +0.000 A 
ATOM     23  N   UNL     1      -0.439   1.126  -6.519  0.00  0.00    +0.000 NA
ATOM     24  C   UNL     1      -0.192   2.386  -6.657  0.00  0.00    +0.000 A 
ATOM     25  N   UNL     1       0.288   3.203  -5.666  0.00  0.00    +0.000 N 
ATOM     26  C   UNL     1       0.586   2.745  -4.406  0.00  0.00    +0.000 A 
ATOM     27  O   UNL     1       1.060   3.495  -3.558  0.00  0.00    +0.000 OA
ATOM     28  C   UNL     1       0.318   1.338  -4.195  0.00  0.00    +0.000 A 
ATOM     32  H   UNL     1       0.471   4.179  -5.841  0.00  0.00    +0.000 HD
ENDBRANCH   2  19
ENDBRANCH   4   3
TORSDOF 11
