REMARK  Name = 
REMARK  2 active torsions:
REMARK  status: ('A' for Active; 'I' for Inactive)
REMARK    1  A    between atoms: C_2  and  C_4
REMARK    2  A    between atoms: C_7  and  N_8
REMARK                            x       y       z     vdW  Elec       q    Type
REMARK                         _______ _______ _______ _____ _____    ______ ____
ROOT
ATOM      4  C   UNL     1       3.187   0.415  -1.177  0.00  0.00    +0.000 A 
ATOM      5  C   UNL     1       2.778   1.607  -1.760  0.00  0.00    +0.000 A 
ATOM      6  C   UNL     1       3.430   2.035  -2.916  0.00  0.00    +0.000 A 
ATOM      7  C   UNL     1       4.433   1.252  -3.485  0.00  0.00    +0.000 A 
ATOM      9  C   UNL     1       4.804   0.101  -2.785  0.00  0.00    +0.000 A 
ATOM     10  N   UNL     1       4.200  -0.355  -1.658  0.00  0.00    +0.000 NA
ENDROOT
BRANCH   4   2
ATOM      1  N   UNL     1       3.015  -1.213   0.616  0.00  0.00    +0.000 N 
ATOM      2  C   UNL     1       2.509  -0.065   0.069  0.00  0.00    +0.000 C 
ATOM      3  O   UNL     1       1.569   0.531   0.582  0.00  0.00    +0.000 OA
ATOM     11  H   UNL     1       2.638  -1.551   1.489  0.00  0.00    +0.000 HD
ATOM     12  H   UNL     1       3.842  -1.636   0.211  0.00  0.00    +0.000 HD
ENDBRANCH   4   2
BRANCH   7   8
ATOM      8  N   UNL     1       5.182   1.737  -4.562  0.00  0.00    +0.000 N 
ATOM     13  H   UNL     1       4.677   2.384  -5.161  0.00  0.00    +0.000 HD
ATOM     14  H   UNL     1       5.664   1.020  -5.097  0.00  0.00    +0.000 HD
ENDBRANCH   7   8
TORSDOF 2
