REMARK  Name = 
REMARK  1 active torsions:
REMARK  status: ('A' for Active; 'I' for Inactive)
REMARK    1  A    between atoms: C_2  and  C_4
REMARK                            x       y       z     vdW  Elec       q    Type
REMARK                         _______ _______ _______ _____ _____    ______ ____
ROOT
ATOM      4  C   UNL     1       3.153   0.053  -1.215  0.00  0.00    +0.000 A 
ATOM      5  C   UNL     1       2.739   0.901  -2.240  0.00  0.00    +0.000 A 
ATOM      6  C   UNL     1       3.472   0.934  -3.426  0.00  0.00    +0.000 A 
ATOM      7  C   UNL     1       4.598   0.130  -3.548  0.00  0.00    +0.000 A 
ATOM      8  N   UNL     1       5.315   0.099  -4.740  0.00  0.00    +0.000 N 
ATOM      9  N   UNL     1       5.021  -0.685  -2.568  0.00  0.00    +0.000 NA
ATOM     10  C   UNL     1       4.300  -0.700  -1.417  0.00  0.00    +0.000 A 
ATOM     13  H   UNL     1       5.589   1.024  -5.046  0.00  0.00    +0.000 HD
ATOM     14  H   UNL     1       6.119  -0.506  -4.587  0.00  0.00    +0.000 HD
ENDROOT
BRANCH   4   2
ATOM      1  N   UNL     1       1.081   0.144   0.044  0.00  0.00    +0.000 N 
ATOM      2  C   UNL     1       2.433  -0.067   0.068  0.00  0.00    +0.000 C 
ATOM      3  O   UNL     1       3.010  -0.380   1.098  0.00  0.00    +0.000 OA
ATOM     11  H   UNL     1       0.584  -0.057   0.903  0.00  0.00    +0.000 HD
ATOM     12  H   UNL     1       0.549   0.135  -0.814  0.00  0.00    +0.000 HD
ENDBRANCH   4   2
TORSDOF 1
