REMARK  Name = 
REMARK  25 active torsions:
REMARK  status: ('A' for Active; 'I' for Inactive)
REMARK    1  A    between atoms: C_1  and  C_2
REMARK    2  A    between atoms: C_2  and  C_3
REMARK    3  A    between atoms: C_7  and  C_8
REMARK    4  A    between atoms: C_9  and  O_10
REMARK    5  A    between atoms: O_10  and  C_11
REMARK    6  A    between atoms: C_13  and  C_14
REMARK    7  A    between atoms: C_13  and  O_15
REMARK    8  A    between atoms: O_15  and  C_16
REMARK    9  A    between atoms: C_17  and  O_18
REMARK   10  A    between atoms: C_19  and  C_20
REMARK   11  A    between atoms: C_22  and  C_23
REMARK   12  A    between atoms: C_24  and  O_25
REMARK   13  A    between atoms: O_25  and  C_26
REMARK   14  A    between atoms: C_28  and  C_29
REMARK   15  A    between atoms: C_31  and  N_32
REMARK   16  A    between atoms: N_32  and  C_33
REMARK   17  A    between atoms: N_32  and  C_34
REMARK   18  A    between atoms: C_35  and  O_36
REMARK   19  A    between atoms: C_37  and  C_38
REMARK   20  A    between atoms: C_37  and  O_39
REMARK   21  A    between atoms: C_41  and  C_42
REMARK   22  A    between atoms: C_45  and  C_46
REMARK   23  A    between atoms: C_47  and  O_48
REMARK   24  A    between atoms: C_49  and  C_50
REMARK   25  A    between atoms: C_49  and  O_51
REMARK                            x       y       z     vdW  Elec       q    Type
REMARK                         _______ _______ _______ _____ _____    ______ ____
ROOT
ATOM      3  C   UNL     1       1.708   1.848   7.757  0.00  0.00    +0.000 C 
ATOM      4  O   UNL     1       0.350   1.788   7.203  0.00  0.00    +0.000 OA
ATOM      5  C   UNL     1       0.097   1.085   6.057  0.00  0.00    +0.000 C 
ATOM      6  O   UNL     1       0.941   0.528   5.375  0.00  0.00    +0.000 OA
ATOM      7  C   UNL     1      -1.394   1.156   5.731  0.00  0.00    +0.000 C 
ATOM      8  C   UNL     1      -1.936  -0.220   5.335  0.00  0.00    +0.000 C 
ATOM      9  C   UNL     1      -1.597   2.327   4.702  0.00  0.00    +0.000 C 
ATOM     22  C   UNL     1      -2.640   3.388   5.255  0.00  0.00    +0.000 C 
ATOM     23  C   UNL     1      -4.126   2.966   5.262  0.00  0.00    +0.000 C 
ATOM     24  C   UNL     1      -2.437   4.865   4.720  0.00  0.00    +0.000 C 
ATOM     37  C   UNL     1      -2.396   5.974   5.912  0.00  0.00    +0.000 C 
ATOM     38  C   UNL     1      -3.086   5.528   7.206  0.00  0.00    +0.000 C 
ATOM     40  C   UNL     1      -0.917   6.380   6.120  0.00  0.00    +0.000 C 
ATOM     41  C   UNL     1      -0.450   7.348   7.235  0.00  0.00    +0.000 C 
ATOM     42  C   UNL     1      -1.428   7.889   8.272  0.00  0.00    +0.000 C 
ATOM     43  C   UNL     1       0.772   6.761   7.952  0.00  0.00    +0.000 C 
ATOM     44  O   UNL     1       1.832   7.389   7.960  0.00  0.00    +0.000 OA
ATOM     45  C   UNL     1       0.612   5.437   8.735  0.00  0.00    +0.000 C 
ATOM     46  C   UNL     1       0.543   5.812  10.214  0.00  0.00    +0.000 C 
ATOM     47  C   UNL     1       1.699   4.401   8.318  0.00  0.00    +0.000 C 
ATOM     49  C   UNL     1       1.663   2.932   8.916  0.00  0.00    +0.000 C 
ATOM     50  C   UNL     1       0.478   2.639   9.843  0.00  0.00    +0.000 C 
ENDROOT
BRANCH  49  51
ATOM     51  O   UNL     1       2.834   2.817   9.751  0.00  0.00    +0.000 OA
ATOM     56  H   UNL     1       3.573   3.155   9.212  0.00  0.00    +0.000 HD
ENDBRANCH  49  51
BRANCH  47  48
ATOM     48  O   UNL     1       3.023   4.911   8.586  0.00  0.00    +0.000 OA
ATOM     55  H   UNL     1       3.080   5.080   9.545  0.00  0.00    +0.000 HD
ENDBRANCH  47  48
BRANCH   3   2
ATOM      1  C   UNL     1       3.615   0.295   8.647  0.00  0.00    +0.000 C 
ATOM      2  C   UNL     1       2.159   0.432   8.217  0.00  0.00    +0.000 C 
ENDBRANCH   3   2
BRANCH  37  39
ATOM     39  O   UNL     1      -3.071   7.170   5.490  0.00  0.00    +0.000 OA
ATOM     54  H   UNL     1      -3.472   6.969   4.618  0.00  0.00    +0.000 HD
ENDBRANCH  37  39
BRANCH   9  10
ATOM     10  O   UNL     1      -1.959   1.826   3.423  0.00  0.00    +0.000 OA
BRANCH  10  11
ATOM     11  C   UNL     1      -1.057   1.880   2.302  0.00  0.00    +0.000 C 
ATOM     12  C   UNL     1       0.221   2.699   2.414  0.00  0.00    +0.000 C 
ATOM     13  C   UNL     1       0.874   2.897   1.028  0.00  0.00    +0.000 C 
ATOM     14  C   UNL     1      -0.041   3.716   0.106  0.00  0.00    +0.000 C 
ATOM     17  C   UNL     1       1.149   1.508   0.398  0.00  0.00    +0.000 C 
ATOM     19  C   UNL     1      -0.081   0.557   0.503  0.00  0.00    +0.000 C 
ATOM     20  C   UNL     1      -1.119   0.749  -0.616  0.00  0.00    +0.000 C 
ATOM     21  O   UNL     1      -0.706   0.569   1.814  0.00  0.00    +0.000 OA
BRANCH  13  15
ATOM     15  O   UNL     1       2.074   3.663   1.311  0.00  0.00    +0.000 OA
ATOM     16  C   UNL     1       2.747   4.257   0.217  0.00  0.00    +0.000 C 
ENDBRANCH  13  15
BRANCH  17  18
ATOM     18  O   UNL     1       2.262   0.871   1.049  0.00  0.00    +0.000 OA
ATOM     52  H   UNL     1       1.947   0.531   1.905  0.00  0.00    +0.000 HD
ENDBRANCH  17  18
ENDBRANCH  10  11
ENDBRANCH   9  10
BRANCH  24  25
ATOM     25  O   UNL     1      -3.435   5.326   3.790  0.00  0.00    +0.000 OA
BRANCH  25  26
ATOM     26  C   UNL     1      -3.556   4.623   2.555  0.00  0.00    +0.000 C 
ATOM     27  O   UNL     1      -2.482   4.845   1.655  0.00  0.00    +0.000 OA
ATOM     28  C   UNL     1      -2.474   6.046   0.894  0.00  0.00    +0.000 C 
ATOM     29  C   UNL     1      -1.348   6.960   1.373  0.00  0.00    +0.000 C 
ATOM     30  C   UNL     1      -3.811   6.741   0.596  0.00  0.00    +0.000 C 
ATOM     31  C   UNL     1      -5.038   6.399   1.475  0.00  0.00    +0.000 C 
ATOM     35  C   UNL     1      -4.913   4.906   1.873  0.00  0.00    +0.000 C 
BRANCH  31  32
ATOM     32  N   UNL     1      -5.301   7.240   2.671  0.00  0.00    +0.000 NA
ATOM     33  C   UNL     1      -6.695   7.061   3.140  0.00  0.00    +0.000 C 
ATOM     34  C   UNL     1      -5.066   8.676   2.510  0.00  0.00    +0.000 C 
ENDBRANCH  31  32
BRANCH  35  36
ATOM     36  O   UNL     1      -5.100   4.075   0.710  0.00  0.00    +0.000 OA
ATOM     53  H   UNL     1      -4.255   4.059   0.228  0.00  0.00    +0.000 HD
ENDBRANCH  35  36
ENDBRANCH  25  26
ENDBRANCH  24  25
TORSDOF 12
