REMARK  Name = 
REMARK  14 active torsions:
REMARK  status: ('A' for Active; 'I' for Inactive)
REMARK    1  A    between atoms: C_1  and  C_2
REMARK    2  A    between atoms: C_2  and  C_3
REMARK    3  A    between atoms: C_3  and  C_4
REMARK    4  A    between atoms: C_4  and  C_5
REMARK    5  A    between atoms: C_5  and  C_6
REMARK    6  A    between atoms: C_6  and  O_7
REMARK    7  A    between atoms: O_7  and  C_8
REMARK    8  A    between atoms: C_15  and  C_16
REMARK    9  A    between atoms: N_18  and  C_19
REMARK   10  A    between atoms: C_19  and  C_20
REMARK   11  A    between atoms: C_23  and  C_24
REMARK   12  A    between atoms: C_24  and  N_25
REMARK   13  A    between atoms: N_25  and  C_26
REMARK   14  A    between atoms: C_26  and  C_27
REMARK                            x       y       z     vdW  Elec       q    Type
REMARK                         _______ _______ _______ _____ _____    ______ ____
ROOT
ATOM     16  C   UNL     1       6.863  -2.973  -6.091  0.00  0.00    +0.000 C 
ATOM     17  O   UNL     1       6.581  -2.766  -7.273  0.00  0.00    +0.000 OA
ATOM     18  N   UNL     1       5.891  -3.104  -5.133  0.00  0.00    +0.000 N 
ATOM     36  H   UNL     1       6.140  -3.262  -4.167  0.00  0.00    +0.000 HD
ENDROOT
BRANCH  16  15
ATOM      8  C   UNL     1       8.406  -3.407  -3.020  0.00  0.00    +0.000 A 
ATOM      9  N   UNL     1       9.257  -3.655  -2.002  0.00  0.00    +0.000 NA
ATOM     10  C   UNL     1      10.557  -3.786  -2.282  0.00  0.00    +0.000 A 
ATOM     11  N   UNL     1      11.123  -3.672  -3.471  0.00  0.00    +0.000 NA
ATOM     12  C   UNL     1      10.253  -3.436  -4.462  0.00  0.00    +0.000 A 
ATOM     13  S   UNL     1      10.822  -3.246  -6.045  0.00  0.00    +0.000 S 
ATOM     14  C   UNL     1       9.249  -3.024  -6.638  0.00  0.00    +0.000 A 
ATOM     15  C   UNL     1       8.262  -3.105  -5.661  0.00  0.00    +0.000 A 
ATOM     35  C   UNL     1       8.868  -3.310  -4.348  0.00  0.00    +0.000 A 
BRANCH   8   7
ATOM      7  O   UNL     1       7.058  -3.293  -2.721  0.00  0.00    +0.000 OA
BRANCH   7   6
ATOM      6  C   UNL     1       6.833  -2.835  -1.383  0.00  0.00    +0.000 C 
BRANCH   6   5
ATOM      5  C   UNL     1       5.328  -2.765  -1.105  0.00  0.00    +0.000 C 
BRANCH   5   4
ATOM      4  C   UNL     1       4.597  -4.117  -1.193  0.00  0.00    +0.000 C 
BRANCH   4   3
ATOM      3  C   UNL     1       5.103  -5.124  -0.153  0.00  0.00    +0.000 C 
BRANCH   3   2
ATOM      1  C   UNL     1       4.587  -7.285  -1.449  0.00  0.00    +0.000 C 
ATOM      2  C   UNL     1       4.427  -6.498  -0.157  0.00  0.00    +0.000 C 
ENDBRANCH   3   2
ENDBRANCH   4   3
ENDBRANCH   5   4
ENDBRANCH   6   5
ENDBRANCH   7   6
ENDBRANCH   8   7
ENDBRANCH  16  15
BRANCH  18  19
ATOM     19  C   UNL     1       4.487  -2.988  -5.447  0.00  0.00    +0.000 C 
BRANCH  19  20
ATOM     20  C   UNL     1       3.719  -4.248  -5.136  0.00  0.00    +0.000 A 
ATOM     21  C   UNL     1       2.615  -4.224  -4.274  0.00  0.00    +0.000 A 
ATOM     22  C   UNL     1       1.784  -5.344  -4.151  0.00  0.00    +0.000 A 
ATOM     23  C   UNL     1       2.039  -6.506  -4.893  0.00  0.00    +0.000 A 
ATOM     33  C   UNL     1       3.202  -6.562  -5.671  0.00  0.00    +0.000 A 
ATOM     34  C   UNL     1       4.028  -5.443  -5.799  0.00  0.00    +0.000 A 
BRANCH  23  24
ATOM     24  C   UNL     1       1.045  -7.648  -4.933  0.00  0.00    +0.000 C 
BRANCH  24  25
ATOM     25  N   UNL     1      -0.208  -7.212  -5.553  0.00  0.00    +0.000 NA
ATOM     37  H   UNL     1      -0.006  -6.846  -6.484  0.00  0.00    +0.000 HD
BRANCH  25  26
ATOM     26  C   UNL     1      -1.160  -8.312  -5.683  0.00  0.00    +0.000 C 
BRANCH  26  27
ATOM     27  C   UNL     1      -2.437  -7.857  -6.353  0.00  0.00    +0.000 A 
ATOM     28  C   UNL     1      -2.874  -8.452  -7.545  0.00  0.00    +0.000 A 
ATOM     29  C   UNL     1      -4.087  -8.073  -8.126  0.00  0.00    +0.000 A 
ATOM     30  C   UNL     1      -4.870  -7.086  -7.529  0.00  0.00    +0.000 A 
ATOM     31  C   UNL     1      -4.434  -6.466  -6.360  0.00  0.00    +0.000 A 
ATOM     32  C   UNL     1      -3.226  -6.850  -5.774  0.00  0.00    +0.000 A 
ENDBRANCH  26  27
ENDBRANCH  25  26
ENDBRANCH  24  25
ENDBRANCH  23  24
ENDBRANCH  19  20
ENDBRANCH  18  19
TORSDOF 13
