REMARK  Name = 
REMARK  6 active torsions:
REMARK  status: ('A' for Active; 'I' for Inactive)
REMARK    1  A    between atoms: C_1  and  C_2
REMARK    2  A    between atoms: C_2  and  C_3
REMARK    3  A    between atoms: C_2  and  C_4
REMARK    4  A    between atoms: C_2  and  C_5
REMARK    5  A    between atoms: C_5  and  N_6
REMARK    6  A    between atoms: C_10  and  C_11
REMARK                            x       y       z     vdW  Elec       q    Type
REMARK                         _______ _______ _______ _____ _____    ______ ____
ROOT
ATOM      6  N   UNL     1       4.479  -0.933  -1.105  0.00  0.00    +0.000 N 
ATOM      7  C   UNL     1       5.000  -1.902  -1.978  0.00  0.00    +0.000 A 
ATOM      8  C   UNL     1       6.374  -1.918  -2.202  0.00  0.00    +0.000 A 
ATOM      9  C   UNL     1       6.921  -2.869  -3.066  0.00  0.00    +0.000 A 
ATOM     10  C   UNL     1       6.084  -3.789  -3.695  0.00  0.00    +0.000 A 
ATOM     14  C   UNL     1       4.729  -3.693  -3.425  0.00  0.00    +0.000 A 
ATOM     15  N   UNL     1       4.178  -2.775  -2.593  0.00  0.00    +0.000 NA
ATOM     16  H   UNL     1       4.979  -1.004  -0.225  0.00  0.00    +0.000 HD
ENDROOT
BRANCH  10  11
ATOM     11  C   UNL     1       6.667  -4.807  -4.603  0.00  0.00    +0.000 C 
ATOM     12  N   UNL     1       5.837  -5.699  -5.220  0.00  0.00    +0.000 N 
ATOM     13  O   UNL     1       7.875  -4.856  -4.800  0.00  0.00    +0.000 OA
ATOM     17  H   UNL     1       4.833  -5.738  -5.137  0.00  0.00    +0.000 HD
ATOM     18  H   UNL     1       6.278  -6.374  -5.832  0.00  0.00    +0.000 HD
ENDBRANCH  10  11
BRANCH   6   5
ATOM      5  C   UNL     1       3.026  -1.003  -0.931  0.00  0.00    +0.000 C 
BRANCH   5   2
ATOM      1  C   UNL     1       2.851   1.492  -0.486  0.00  0.00    +0.000 C 
ATOM      2  C   UNL     1       2.509   0.088   0.040  0.00  0.00    +0.000 C 
ATOM      3  C   UNL     1       3.101  -0.097   1.448  0.00  0.00    +0.000 C 
ATOM      4  C   UNL     1       0.976  -0.039   0.139  0.00  0.00    +0.000 C 
ENDBRANCH   5   2
ENDBRANCH   6   5
TORSDOF 3
