REMARK  Name = 
REMARK  4 active torsions:
REMARK  status: ('A' for Active; 'I' for Inactive)
REMARK    1  A    between atoms: C_1  and  C_2
REMARK    2  A    between atoms: C_2  and  N_3
REMARK    3  A    between atoms: C_2  and  C_13
REMARK    4  A    between atoms: C_7  and  C_8
REMARK                            x       y       z     vdW  Elec       q    Type
REMARK                         _______ _______ _______ _____ _____    ______ ____
ROOT
ATOM      3  N   UNL     1       1.163  -0.093   0.292  0.00  0.00    +0.000 N 
ATOM      4  C   UNL     1       0.475   1.000   0.774  0.00  0.00    +0.000 A 
ATOM      5  C   UNL     1       0.995   1.819   1.770  0.00  0.00    +0.000 A 
ATOM      6  C   UNL     1       0.190   2.799   2.353  0.00  0.00    +0.000 A 
ATOM      7  C   UNL     1      -1.099   3.010   1.888  0.00  0.00    +0.000 A 
ATOM     11  C   UNL     1      -1.522   2.206   0.846  0.00  0.00    +0.000 A 
ATOM     12  N   UNL     1      -0.775   1.195   0.312  0.00  0.00    +0.000 NA
ATOM     19  H   UNL     1       0.596  -0.709  -0.268  0.00  0.00    +0.000 HD
ENDROOT
BRANCH   7   8
ATOM      8  C   UNL     1      -1.939   4.045   2.554  0.00  0.00    +0.000 C 
ATOM      9  N   UNL     1      -3.196   4.280   2.104  0.00  0.00    +0.000 N 
ATOM     10  O   UNL     1      -1.505   4.682   3.514  0.00  0.00    +0.000 OA
ATOM     20  H   UNL     1      -3.642   3.813   1.327  0.00  0.00    +0.000 HD
ATOM     21  H   UNL     1      -3.732   4.989   2.598  0.00  0.00    +0.000 HD
ENDBRANCH   7   8
BRANCH   3   2
ATOM      1  C   UNL     1       3.171  -1.295   0.924  0.00  0.00    +0.000 C 
ATOM      2  C   UNL     1       2.608  -0.129   0.106  0.00  0.00    +0.000 C 
BRANCH   2  13
ATOM     13  C   UNL     1       3.030  -0.265  -1.358  0.00  0.00    +0.000 A 
ATOM     14  C   UNL     1       3.887   0.694  -1.922  0.00  0.00    +0.000 A 
ATOM     15  C   UNL     1       4.439   0.511  -3.198  0.00  0.00    +0.000 A 
ATOM     16  C   UNL     1       4.134  -0.633  -3.930  0.00  0.00    +0.000 A 
ATOM     17  C   UNL     1       3.252  -1.575  -3.403  0.00  0.00    +0.000 A 
ATOM     18  C   UNL     1       2.692  -1.391  -2.131  0.00  0.00    +0.000 A 
ENDBRANCH   2  13
ENDBRANCH   3   2
TORSDOF 3
