REMARK  Name = 
REMARK  3 active torsions:
REMARK  status: ('A' for Active; 'I' for Inactive)
REMARK    1  A    between atoms: C_2  and  C_4
REMARK    2  A    between atoms: N_11  and  C_12
REMARK    3  A    between atoms: C_12  and  C_13
REMARK                            x       y       z     vdW  Elec       q    Type
REMARK                         _______ _______ _______ _____ _____    ______ ____
ROOT
ATOM      4  C   UNL     1       8.428  -0.049   2.053  0.00  0.00    +0.000 A 
ATOM      5  C   UNL     1       8.728  -1.254   2.681  0.00  0.00    +0.000 A 
ATOM      6  N   UNL     1       7.868  -2.002   3.421  0.00  0.00    +0.000 NA
ATOM      7  C   UNL     1       6.627  -1.473   3.483  0.00  0.00    +0.000 A 
ATOM      8  C   UNL     1       6.193  -0.291   2.884  0.00  0.00    +0.000 A 
ATOM      9  C   UNL     1       4.826  -0.125   3.223  0.00  0.00    +0.000 A 
ATOM     10  C   UNL     1       4.471  -1.179   4.040  0.00  0.00    +0.000 A 
ATOM     11  N   UNL     1       5.562  -2.007   4.172  0.00  0.00    +0.000 N 
ATOM     21  C   UNL     1       7.124   0.447   2.133  0.00  0.00    +0.000 A 
ENDROOT
BRANCH   4   2
ATOM      1  N   UNL     1       9.387   2.020   1.210  0.00  0.00    +0.000 N 
ATOM      2  C   UNL     1       9.499   0.661   1.322  0.00  0.00    +0.000 C 
ATOM      3  O   UNL     1      10.470   0.067   0.872  0.00  0.00    +0.000 OA
ATOM     22  H   UNL     1      10.174   2.506   0.798  0.00  0.00    +0.000 HD
ATOM     23  H   UNL     1       8.741   2.564   1.764  0.00  0.00    +0.000 HD
ENDBRANCH   4   2
BRANCH  11  12
ATOM     12  C   UNL     1       5.640  -3.179   5.039  0.00  0.00    +0.000 C 
BRANCH  12  13
ATOM     13  C   UNL     1       4.644  -4.283   4.716  0.00  0.00    +0.000 C 
ATOM     14  O   UNL     1       3.802  -4.170   3.824  0.00  0.00    +0.000 OA
ATOM     15  N   UNL     1       4.712  -5.437   5.496  0.00  0.00    +0.000 N 
ATOM     16  C   UNL     1       5.624  -5.670   6.624  0.00  0.00    +0.000 C 
ATOM     17  C   UNL     1       6.264  -7.073   6.555  0.00  0.00    +0.000 C 
ATOM     18  N   UNL     1       5.286  -8.163   6.375  0.00  0.00    +0.000 NA
ATOM     19  C   UNL     1       4.445  -7.883   5.194  0.00  0.00    +0.000 C 
ATOM     20  C   UNL     1       3.744  -6.515   5.273  0.00  0.00    +0.000 C 
ATOM     24  H   UNL     1       4.684  -8.205   7.197  0.00  0.00    +0.000 HD
ENDBRANCH  12  13
ENDBRANCH  11  12
TORSDOF 3
