REMARK  Name = 
REMARK  15 active torsions:
REMARK  status: ('A' for Active; 'I' for Inactive)
REMARK    1  A    between atoms: C_1  and  C_2
REMARK    2  A    between atoms: C_2  and  C_3
REMARK    3  A    between atoms: C_3  and  C_4
REMARK    4  A    between atoms: C_4  and  C_5
REMARK    5  A    between atoms: C_5  and  C_6
REMARK    6  A    between atoms: C_6  and  C_7
REMARK    7  A    between atoms: C_7  and  C_8
REMARK    8  A    between atoms: C_8  and  N_9
REMARK    9  A    between atoms: N_9  and  C_10
REMARK   10  A    between atoms: N_9  and  C_17
REMARK   11  A    between atoms: C_10  and  C_11
REMARK   12  A    between atoms: C_17  and  C_18
REMARK   13  A    between atoms: C_21  and  C_22
REMARK   14  A    between atoms: C_22  and  N_23
REMARK   15  A    between atoms: C_24  and  C_26
REMARK                            x       y       z     vdW  Elec       q    Type
REMARK                         _______ _______ _______ _____ _____    ______ ____
ROOT
ATOM     18  C   UNL     1      11.251   2.172  -4.603  0.00  0.00    +0.000 A 
ATOM     19  C   UNL     1      10.953   1.315  -5.672  0.00  0.00    +0.000 A 
ATOM     20  C   UNL     1      11.470   0.016  -5.710  0.00  0.00    +0.000 A 
ATOM     21  C   UNL     1      12.304  -0.449  -4.684  0.00  0.00    +0.000 A 
ATOM     36  C   UNL     1      12.681   0.440  -3.669  0.00  0.00    +0.000 A 
ATOM     37  C   UNL     1      12.155   1.735  -3.624  0.00  0.00    +0.000 A 
ENDROOT
BRANCH  18  17
ATOM     17  C   UNL     1      10.546   3.514  -4.472  0.00  0.00    +0.000 C 
BRANCH  17   9
ATOM      9  N   UNL     1       9.060   3.395  -4.430  0.00  0.00    +0.000 NA
BRANCH   9   8
ATOM      8  C   UNL     1       8.678   2.586  -3.241  0.00  0.00    +0.000 C 
BRANCH   8   7
ATOM      7  C   UNL     1       7.187   2.365  -2.946  0.00  0.00    +0.000 C 
BRANCH   7   6
ATOM      6  C   UNL     1       6.395   1.605  -4.012  0.00  0.00    +0.000 C 
BRANCH   6   5
ATOM      5  C   UNL     1       4.945   1.463  -3.527  0.00  0.00    +0.000 C 
BRANCH   5   4
ATOM      4  C   UNL     1       4.050   0.717  -4.510  0.00  0.00    +0.000 C 
BRANCH   4   3
ATOM      3  C   UNL     1       2.617   0.629  -3.975  0.00  0.00    +0.000 C 
BRANCH   3   2
ATOM      1  C   UNL     1       0.284  -0.210  -4.451  0.00  0.00    +0.000 C 
ATOM      2  C   UNL     1       1.713  -0.111  -4.958  0.00  0.00    +0.000 C 
ENDBRANCH   3   2
ENDBRANCH   4   3
ENDBRANCH   5   4
ENDBRANCH   6   5
ENDBRANCH   7   6
ENDBRANCH   8   7
ENDBRANCH   9   8
BRANCH   9  10
ATOM     10  C   UNL     1       8.443   4.738  -4.353  0.00  0.00    +0.000 C 
BRANCH  10  11
ATOM     11  C   UNL     1       8.590   5.664  -5.551  0.00  0.00    +0.000 A 
ATOM     12  C   UNL     1       8.665   5.192  -6.868  0.00  0.00    +0.000 A 
ATOM     13  C   UNL     1       8.570   6.077  -7.948  0.00  0.00    +0.000 A 
ATOM     14  C   UNL     1       8.396   7.443  -7.725  0.00  0.00    +0.000 A 
ATOM     15  C   UNL     1       8.358   7.932  -6.423  0.00  0.00    +0.000 A 
ATOM     16  C   UNL     1       8.455   7.050  -5.345  0.00  0.00    +0.000 A 
ENDBRANCH  10  11
ENDBRANCH   9  10
ENDBRANCH  17   9
ENDBRANCH  18  17
BRANCH  21  22
ATOM     22  C   UNL     1      12.773  -1.880  -4.660  0.00  0.00    +0.000 C 
BRANCH  22  23
ATOM     23  N   UNL     1      14.018  -2.053  -5.360  0.00  0.00    +0.000 N 
ATOM     24  C   UNL     1      14.567  -3.299  -5.521  0.00  0.00    +0.000 C 
ATOM     25  O   UNL     1      14.006  -4.317  -5.124  0.00  0.00    +0.000 OA
ATOM     38  H   UNL     1      14.602  -1.230  -5.475  0.00  0.00    +0.000 HD
BRANCH  24  26
ATOM     26  C   UNL     1      15.838  -3.364  -6.251  0.00  0.00    +0.000 A 
ATOM     27  C   UNL     1      16.197  -4.536  -6.903  0.00  0.00    +0.000 A 
ATOM     28  S   UNL     1      17.680  -4.426  -7.737  0.00  0.00    +0.000 S 
ATOM     29  C   UNL     1      17.919  -2.825  -7.211  0.00  0.00    +0.000 A 
ATOM     30  N   UNL     1      19.043  -2.138  -7.552  0.00  0.00    +0.000 NA
ATOM     31  C   UNL     1      19.112  -0.952  -7.056  0.00  0.00    +0.000 A 
ATOM     32  N   UNL     1      18.156  -0.380  -6.255  0.00  0.00    +0.000 N 
ATOM     33  C   UNL     1      16.993  -1.026  -5.909  0.00  0.00    +0.000 A 
ATOM     34  O   UNL     1      16.137  -0.472  -5.225  0.00  0.00    +0.000 OA
ATOM     35  C   UNL     1      16.873  -2.372  -6.428  0.00  0.00    +0.000 A 
ATOM     39  H   UNL     1      18.266   0.561  -5.905  0.00  0.00    +0.000 HD
ENDBRANCH  24  26
ENDBRANCH  22  23
ENDBRANCH  21  22
TORSDOF 14
