REMARK  Name = 
REMARK  1 active torsions:
REMARK  status: ('A' for Active; 'I' for Inactive)
REMARK    1  A    between atoms: C_2  and  C_4
REMARK                            x       y       z     vdW  Elec       q    Type
REMARK                         _______ _______ _______ _____ _____    ______ ____
ROOT
ATOM      4  C   UNL     1       3.144  -1.045   0.716  0.00  0.00    +0.000 A 
ATOM      5  C   UNL     1       4.301  -0.682   1.411  0.00  0.00    +0.000 A 
ATOM      6  C   UNL     1       5.094  -1.654   2.030  0.00  0.00    +0.000 A 
ATOM      7  C   UNL     1       4.739  -3.014   1.931  0.00  0.00    +0.000 A 
ATOM      8  N   UNL     1       5.444  -4.078   2.466  0.00  0.00    +0.000 NA
ATOM      9  C   UNL     1       4.869  -5.207   2.143  0.00  0.00    +0.000 A 
ATOM     10  N   UNL     1       5.371  -6.404   2.483  0.00  0.00    +0.000 N 
ATOM     11  S   UNL     1       3.413  -5.071   1.250  0.00  0.00    +0.000 S 
ATOM     12  C   UNL     1       3.586  -3.358   1.225  0.00  0.00    +0.000 A 
ATOM     13  C   UNL     1       2.765  -2.392   0.612  0.00  0.00    +0.000 A 
ATOM     16  H   UNL     1       6.098  -6.413   3.188  0.00  0.00    +0.000 HD
ATOM     17  H   UNL     1       4.777  -7.223   2.455  0.00  0.00    +0.000 HD
ENDROOT
BRANCH   4   2
ATOM      1  N   UNL     1       1.012  -0.183  -0.090  0.00  0.00    +0.000 N 
ATOM      2  C   UNL     1       2.353   0.032   0.063  0.00  0.00    +0.000 C 
ATOM      3  O   UNL     1       2.872   1.082  -0.295  0.00  0.00    +0.000 OA
ATOM     14  H   UNL     1       0.475   0.603  -0.436  0.00  0.00    +0.000 HD
ATOM     15  H   UNL     1       0.516  -0.903   0.412  0.00  0.00    +0.000 HD
ENDBRANCH   4   2
TORSDOF 1
