REMARK  Name = 
REMARK  12 active torsions:
REMARK  status: ('A' for Active; 'I' for Inactive)
REMARK    1  A    between atoms: N_1  and  C_2
REMARK    2  A    between atoms: N_10  and  C_11
REMARK    3  A    between atoms: C_13  and  C_14
REMARK    4  A    between atoms: C_14  and  S_15
REMARK    5  A    between atoms: S_15  and  C_16
REMARK    6  A    between atoms: C_16  and  C_17
REMARK    7  A    between atoms: C_17  and  C_18
REMARK    8  A    between atoms: C_18  and  N_19
REMARK    9  A    between atoms: C_18  and  C_20
REMARK   10  A    between atoms: C_20  and  O_22
REMARK   11  A    between atoms: C_23  and  O_24
REMARK   12  A    between atoms: C_25  and  O_26
REMARK                            x       y       z     vdW  Elec       q    Type
REMARK                         _______ _______ _______ _____ _____    ______ ____
ROOT
ATOM     11  C   UNK     1      10.782  10.102   7.040  0.00  0.00    +0.000 C 
ATOM     12  O   UNK     1      11.948   9.337   6.658  0.00  0.00    +0.000 OA
ATOM     13  C   UNK     1      11.562   7.971   6.378  0.00  0.00    +0.000 C 
ATOM     23  C   UNK     1      10.113   7.842   6.838  0.00  0.00    +0.000 C 
ATOM     25  C   UNK     1       9.564   9.251   6.677  0.00  0.00    +0.000 C 
ENDROOT
BRANCH  11  10
ATOM      2  C   UNK     1      10.197  14.833   6.218  0.00  0.00    +0.000 A 
ATOM      3  N   UNK     1       9.655  15.091   7.431  0.00  0.00    +0.000 NA
ATOM      4  C   UNK     1       9.490  14.062   8.291  0.00  0.00    +0.000 A 
ATOM      5  N   UNK     1       9.819  12.766   8.121  0.00  0.00    +0.000 NA
ATOM      6  C   UNK     1      10.362  12.566   6.910  0.00  0.00    +0.000 A 
ATOM      7  C   UNK     1      10.586  13.514   5.925  0.00  0.00    +0.000 A 
ATOM      8  N   UNK     1      11.186  12.942   4.820  0.00  0.00    +0.000 NA
ATOM      9  C   UNK     1      11.324  11.671   5.136  0.00  0.00    +0.000 A 
ATOM     10  N   UNK     1      10.820  11.390   6.379  0.00  0.00    +0.000 N 
BRANCH   2   1
ATOM      1  N   UNK     1      10.362  15.893   5.335  0.00  0.00    +0.000 N 
ATOM     27  H   UNK     1      10.386  16.784   5.813  0.00  0.00    +0.000 HD
ATOM     28  H   UNK     1      11.067  15.718   4.627  0.00  0.00    +0.000 HD
ENDBRANCH   2   1
ENDBRANCH  11  10
BRANCH  25  26
ATOM     26  O   UNK     1       8.439   9.455   7.525  0.00  0.00    +0.000 OA
ATOM     33  H   UNK     1       8.533   8.827   8.273  0.00  0.00    +0.000 HD
ENDBRANCH  25  26
BRANCH  23  24
ATOM     24  O   UNK     1      10.040   7.489   8.232  0.00  0.00    +0.000 OA
ATOM     32  H   UNK     1      10.871   7.743   8.676  0.00  0.00    +0.000 HD
ENDBRANCH  23  24
BRANCH  13  14
ATOM     14  C   UNK     1      11.748   7.656   4.885  0.00  0.00    +0.000 C 
BRANCH  14  15
ATOM     15  S   UNK     1      13.532   7.716   4.487  0.00  0.00    +0.000 S 
BRANCH  15  16
ATOM     16  C   UNK     1      13.476   7.362   2.702  0.00  0.00    +0.000 C 
BRANCH  16  17
ATOM     17  C   UNK     1      14.874   7.451   2.076  0.00  0.00    +0.000 C 
BRANCH  17  18
ATOM     18  C   UNK     1      15.954   6.572   2.727  0.00  0.00    +0.000 C 
BRANCH  18  19
ATOM     19  N   UNK     1      17.239   6.772   2.017  0.00  0.00    +0.000 NA
ATOM     29  H   UNK     1      17.130   6.425   1.061  0.00  0.00    +0.000 HD
ATOM     30  H   UNK     1      17.938   6.148   2.426  0.00  0.00    +0.000 HD
ENDBRANCH  18  19
BRANCH  18  20
ATOM     20  C   UNK     1      15.556   5.089   2.672  0.00  0.00    +0.000 C 
ATOM     21  O   UNK     1      15.825   4.337   1.743  0.00  0.00    +0.000 OA
BRANCH  20  22
ATOM     22  O   UNK     1      14.848   4.678   3.751  0.00  0.00    +0.000 OA
ATOM     31  H   UNK     1      14.710   5.385   4.417  0.00  0.00    +0.000 HD
ENDBRANCH  20  22
ENDBRANCH  18  20
ENDBRANCH  17  18
ENDBRANCH  16  17
ENDBRANCH  15  16
ENDBRANCH  14  15
ENDBRANCH  13  14
TORSDOF 12
