REMARK  Name = 
REMARK  10 active torsions:
REMARK  status: ('A' for Active; 'I' for Inactive)
REMARK    1  A    between atoms: N_2  and  C_3
REMARK    2  A    between atoms: C_3  and  C_4
REMARK    3  A    between atoms: C_4  and  C_5
REMARK    4  A    between atoms: C_5  and  C_6
REMARK    5  A    between atoms: C_6  and  N_7
REMARK    6  A    between atoms: N_7  and  C_8
REMARK    7  A    between atoms: C_8  and  C_9
REMARK    8  A    between atoms: C_12  and  C_13
REMARK    9  A    between atoms: C_13  and  N_14
REMARK   10  A    between atoms: C_15  and  C_17
REMARK                            x       y       z     vdW  Elec       q    Type
REMARK                         _______ _______ _______ _____ _____    ______ ____
ROOT
ATOM      1 CL   UNL     1      -0.105   1.869  -1.657  0.00  0.00    +0.000 Cl
ATOM      2  H   UNL     1       0.816   1.222  -0.866  0.00  0.00    +0.000 HD
ENDROOT
TORSDOF 0
REMARK  Name = 
REMARK  10 active torsions:
REMARK  status: ('A' for Active; 'I' for Inactive)
REMARK    1  A    between atoms: N_2  and  C_3
REMARK    2  A    between atoms: C_3  and  C_4
REMARK    3  A    between atoms: C_4  and  C_5
REMARK    4  A    between atoms: C_5  and  C_6
REMARK    5  A    between atoms: C_6  and  N_7
REMARK    6  A    between atoms: N_7  and  C_8
REMARK    7  A    between atoms: C_8  and  C_9
REMARK    8  A    between atoms: C_12  and  C_13
REMARK    9  A    between atoms: C_13  and  N_14
REMARK   10  A    between atoms: C_15  and  C_17
REMARK                            x       y       z     vdW  Elec       q    Type
REMARK                         _______ _______ _______ _____ _____    ______ ____
ROOT
ATOM      8  C   UNL     1       8.389  -1.511  -3.956  0.00  0.00    +0.000 A 
ATOM      9  C   UNL     1       9.056  -1.020  -2.829  0.00  0.00    +0.000 A 
ATOM     10  C   UNL     1      10.444  -1.047  -2.761  0.00  0.00    +0.000 A 
ATOM     11  C   UNL     1      11.214  -1.564  -3.832  0.00  0.00    +0.000 A 
ATOM     26  C   UNL     1      10.536  -2.045  -4.963  0.00  0.00    +0.000 A 
ATOM     27  C   UNL     1       9.136  -2.020  -5.028  0.00  0.00    +0.000 A 
ENDROOT
BRANCH   8   7
ATOM      7  C   UNL     1       6.884  -1.477  -4.022  0.00  0.00    +0.000 C 
BRANCH   7   6
ATOM      6  N   UNL     1       6.371  -0.115  -3.887  0.00  0.00    +0.000 NA
ATOM     30  H   UNL     1       5.330  -0.155  -3.973  0.00  0.00    +0.000 HD
BRANCH   6   5
ATOM      5  C   UNL     1       6.849   0.784  -4.948  0.00  0.00    +0.000 C 
BRANCH   5   4
ATOM      4  C   UNL     1       6.258   2.168  -4.685  0.00  0.00    +0.000 C 
BRANCH   4   3
ATOM      3  C   UNL     1       6.699   3.184  -5.734  0.00  0.00    +0.000 C 
BRANCH   3   2
ATOM      2  C   UNL     1       6.078   4.555  -5.415  0.00  0.00    +0.000 C 
BRANCH   2   1
ATOM      1  N   UNL     1       6.462   5.580  -6.389  0.00  0.00    +0.000 NA
ATOM     28  H   UNL     1       6.882   6.404  -5.898  0.00  0.00    +0.000 HD
ATOM     29  H   UNL     1       7.132   5.222  -7.108  0.00  0.00    +0.000 HD
ENDBRANCH   2   1
ENDBRANCH   3   2
ENDBRANCH   4   3
ENDBRANCH   5   4
ENDBRANCH   6   5
ENDBRANCH   7   6
ENDBRANCH   8   7
BRANCH  11  12
ATOM     12  C   UNL     1      12.744  -1.582  -3.816  0.00  0.00    +0.000 C 
BRANCH  12  13
ATOM     13  N   UNL     1      13.274  -2.820  -3.252  0.00  0.00    +0.000 N 
ATOM     14  C   UNL     1      14.623  -3.063  -3.132  0.00  0.00    +0.000 C 
ATOM     15  O   UNL     1      15.441  -2.253  -3.511  0.00  0.00    +0.000 OA
ATOM     31  H   UNL     1      12.630  -3.518  -2.892  0.00  0.00    +0.000 HD
BRANCH  14  16
ATOM     16  C   UNL     1      15.066  -4.347  -2.493  0.00  0.00    +0.000 A 
ATOM     17  C   UNL     1      14.270  -5.501  -2.560  0.00  0.00    +0.000 A 
ATOM     18  S   UNL     1      15.038  -6.778  -1.772  0.00  0.00    +0.000 S 
ATOM     19  C   UNL     1      16.372  -5.876  -1.319  0.00  0.00    +0.000 A 
ATOM     20  N   UNL     1      17.420  -6.324  -0.588  0.00  0.00    +0.000 NA
ATOM     21  C   UNL     1      18.418  -5.459  -0.261  0.00  0.00    +0.000 A 
ATOM     22  N   UNL     1      18.362  -4.159  -0.656  0.00  0.00    +0.000 N 
ATOM     23  C   UNL     1      17.299  -3.676  -1.399  0.00  0.00    +0.000 A 
ATOM     24  O   UNL     1      17.269  -2.504  -1.703  0.00  0.00    +0.000 OA
ATOM     25  C   UNL     1      16.267  -4.570  -1.763  0.00  0.00    +0.000 A 
ATOM     32  H   UNL     1      19.133  -3.510  -0.380  0.00  0.00    +0.000 HD
ENDBRANCH  14  16
ENDBRANCH  12  13
ENDBRANCH  11  12
TORSDOF 10
