REMARK  Name = 
REMARK  17 active torsions:
REMARK  status: ('A' for Active; 'I' for Inactive)
REMARK    1  A    between atoms: C_1  and  C_2
REMARK    2  A    between atoms: C_2  and  C_3
REMARK    3  A    between atoms: C_3  and  C_4
REMARK    4  A    between atoms: C_4  and  C_5
REMARK    5  A    between atoms: C_5  and  C_6
REMARK    6  A    between atoms: C_6  and  C_7
REMARK    7  A    between atoms: C_7  and  C_8
REMARK    8  A    between atoms: C_8  and  N_9
REMARK    9  A    between atoms: N_9  and  C_10
REMARK   10  A    between atoms: C_10  and  C_11
REMARK   11  A    between atoms: C_14  and  C_15
REMARK   12  A    between atoms: C_15  and  N_16
REMARK   13  A    between atoms: C_17  and  C_19
REMARK   14  A    between atoms: C_26  and  O_27
REMARK   15  A    between atoms: O_27  and  C_28
REMARK   16  A    between atoms: C_28  and  C_29
REMARK   17  A    between atoms: C_29  and  C_30
REMARK                            x       y       z     vdW  Elec       q    Type
REMARK                         _______ _______ _______ _____ _____    ______ ____
ROOT
ATOM     15  C   UNL     1      11.999  10.857   3.501  0.00  0.00    +0.000 C 
ENDROOT
BRANCH  15  14
ATOM     11  C   UNL     1      10.945   6.854   2.214  0.00  0.00    +0.000 A 
ATOM     12  C   UNL     1      10.492   7.980   1.510  0.00  0.00    +0.000 A 
ATOM     13  C   UNL     1      10.841   9.270   1.920  0.00  0.00    +0.000 A 
ATOM     14  C   UNL     1      11.647   9.464   3.048  0.00  0.00    +0.000 A 
ATOM     32  C   UNL     1      12.082   8.342   3.766  0.00  0.00    +0.000 A 
ATOM     33  C   UNL     1      11.739   7.051   3.351  0.00  0.00    +0.000 A 
BRANCH  11  10
ATOM     10  C   UNL     1      10.567   5.460   1.764  0.00  0.00    +0.000 C 
BRANCH  10   9
ATOM      9  N   UNL     1      11.075   5.180   0.423  0.00  0.00    +0.000 NA
ATOM     34  H   UNL     1      10.755   5.902  -0.219  0.00  0.00    +0.000 HD
BRANCH   9   8
ATOM      8  C   UNL     1      10.624   3.876  -0.051  0.00  0.00    +0.000 C 
BRANCH   8   7
ATOM      7  C   UNL     1      11.123   3.662  -1.480  0.00  0.00    +0.000 C 
BRANCH   7   6
ATOM      6  C   UNL     1      10.691   2.294  -2.002  0.00  0.00    +0.000 C 
BRANCH   6   5
ATOM      5  C   UNL     1      11.189   2.064  -3.426  0.00  0.00    +0.000 C 
BRANCH   5   4
ATOM      4  C   UNL     1      10.758   0.691  -3.935  0.00  0.00    +0.000 C 
BRANCH   4   3
ATOM      3  C   UNL     1      11.256   0.451  -5.358  0.00  0.00    +0.000 C 
BRANCH   3   2
ATOM      1  C   UNL     1      11.318  -1.161  -7.285  0.00  0.00    +0.000 C 
ATOM      2  C   UNL     1      10.824  -0.921  -5.868  0.00  0.00    +0.000 C 
ENDBRANCH   3   2
ENDBRANCH   4   3
ENDBRANCH   5   4
ENDBRANCH   6   5
ENDBRANCH   7   6
ENDBRANCH   8   7
ENDBRANCH   9   8
ENDBRANCH  10   9
ENDBRANCH  11  10
ENDBRANCH  15  14
BRANCH  15  16
ATOM     16  N   UNL     1      10.933  11.435   4.280  0.00  0.00    +0.000 N 
ATOM     17  C   UNL     1      11.038  12.693   4.818  0.00  0.00    +0.000 C 
ATOM     18  O   UNL     1      11.988  13.431   4.572  0.00  0.00    +0.000 OA
ATOM     35  H   UNL     1      10.207  10.816   4.610  0.00  0.00    +0.000 HD
BRANCH  17  19
ATOM     19  C   UNL     1       9.914  13.138   5.654  0.00  0.00    +0.000 A 
ATOM     20  C   UNL     1       9.644  14.492   5.777  0.00  0.00    +0.000 A 
ATOM     21  S   UNL     1       8.266  14.827   6.720  0.00  0.00    +0.000 S 
ATOM     22  C   UNL     1       8.029  13.175   7.048  0.00  0.00    +0.000 A 
ATOM     23  N   UNL     1       7.002  12.785   7.825  0.00  0.00    +0.000 NA
ATOM     24  C   UNL     1       6.975  11.466   8.015  0.00  0.00    +0.000 A 
ATOM     25  N   UNL     1       7.828  10.558   7.527  0.00  0.00    +0.000 NA
ATOM     26  C   UNL     1       8.825  10.995   6.736  0.00  0.00    +0.000 A 
ATOM     31  C   UNL     1       8.976  12.359   6.447  0.00  0.00    +0.000 A 
BRANCH  26  27
ATOM     27  O   UNL     1       9.750  10.092   6.267  0.00  0.00    +0.000 OA
BRANCH  27  28
ATOM     28  C   UNL     1       9.274   8.757   6.091  0.00  0.00    +0.000 C 
BRANCH  28  29
ATOM     29  C   UNL     1      10.146   7.823   6.919  0.00  0.00    +0.000 C 
ATOM     30  C   UNL     1       9.783   6.369   6.682  0.00  0.00    +0.000 C 
ENDBRANCH  28  29
ENDBRANCH  27  28
ENDBRANCH  26  27
ENDBRANCH  17  19
ENDBRANCH  15  16
TORSDOF 15
