REMARK  Name = 
REMARK  25 active torsions:
REMARK  status: ('A' for Active; 'I' for Inactive)
REMARK    1  A    between atoms: C_1  and  C_2
REMARK    2  A    between atoms: C_2  and  C_3
REMARK    3  A    between atoms: C_7  and  C_8
REMARK    4  A    between atoms: C_9  and  O_10
REMARK    5  A    between atoms: O_10  and  C_11
REMARK    6  A    between atoms: C_13  and  C_14
REMARK    7  A    between atoms: C_13  and  O_15
REMARK    8  A    between atoms: O_15  and  C_16
REMARK    9  A    between atoms: C_17  and  O_18
REMARK   10  A    between atoms: C_19  and  C_20
REMARK   11  A    between atoms: C_22  and  C_23
REMARK   12  A    between atoms: C_24  and  O_25
REMARK   13  A    between atoms: O_25  and  C_26
REMARK   14  A    between atoms: C_28  and  C_29
REMARK   15  A    between atoms: C_31  and  N_32
REMARK   16  A    between atoms: N_32  and  C_33
REMARK   17  A    between atoms: N_32  and  C_34
REMARK   18  A    between atoms: C_35  and  O_36
REMARK   19  A    between atoms: C_37  and  C_38
REMARK   20  A    between atoms: C_37  and  O_39
REMARK   21  A    between atoms: C_41  and  C_42
REMARK   22  A    between atoms: C_45  and  C_46
REMARK   23  A    between atoms: C_47  and  O_48
REMARK   24  A    between atoms: C_49  and  C_50
REMARK   25  A    between atoms: C_49  and  O_51
REMARK                            x       y       z     vdW  Elec       q    Type
REMARK                         _______ _______ _______ _____ _____    ______ ____
ROOT
ATOM      3  C   UNL     1      -2.963   3.033  -6.276  0.00  0.00    +0.000 C 
ATOM      4  O   UNL     1      -3.669   3.349  -5.042  0.00  0.00    +0.000 OA
ATOM      5  C   UNL     1      -3.040   3.880  -3.946  0.00  0.00    +0.000 C 
ATOM      6  O   UNL     1      -1.930   4.382  -3.924  0.00  0.00    +0.000 OA
ATOM      7  C   UNL     1      -3.942   3.738  -2.744  0.00  0.00    +0.000 C 
ATOM      8  C   UNL     1      -3.488   4.654  -1.590  0.00  0.00    +0.000 C 
ATOM      9  C   UNL     1      -4.074   2.204  -2.394  0.00  0.00    +0.000 C 
ATOM     22  C   UNL     1      -5.600   1.886  -2.102  0.00  0.00    +0.000 C 
ATOM     23  C   UNL     1      -6.155   2.838  -1.052  0.00  0.00    +0.000 C 
ATOM     24  C   UNL     1      -6.086   0.340  -2.099  0.00  0.00    +0.000 C 
ATOM     37  C   UNL     1      -7.152  -0.018  -3.326  0.00  0.00    +0.000 C 
ATOM     38  C   UNL     1      -7.856   1.224  -3.890  0.00  0.00    +0.000 C 
ATOM     40  C   UNL     1      -6.400  -0.828  -4.450  0.00  0.00    +0.000 C 
ATOM     41  C   UNL     1      -7.005  -1.188  -5.845  0.00  0.00    +0.000 C 
ATOM     42  C   UNL     1      -8.465  -0.898  -6.170  0.00  0.00    +0.000 C 
ATOM     43  C   UNL     1      -6.082  -0.718  -6.988  0.00  0.00    +0.000 C 
ATOM     44  O   UNL     1      -5.493  -1.557  -7.679  0.00  0.00    +0.000 OA
ATOM     45  C   UNL     1      -5.940   0.801  -7.262  0.00  0.00    +0.000 C 
ATOM     46  C   UNL     1      -6.898   1.168  -8.399  0.00  0.00    +0.000 C 
ATOM     47  C   UNL     1      -4.452   1.208  -7.479  0.00  0.00    +0.000 C 
ATOM     49  C   UNL     1      -4.038   2.746  -7.416  0.00  0.00    +0.000 C 
ATOM     50  C   UNL     1      -5.229   3.704  -7.301  0.00  0.00    +0.000 C 
ENDROOT
BRANCH  49  51
ATOM     51  O   UNL     1      -3.437   3.043  -8.703  0.00  0.00    +0.000 OA
ATOM     56  H   UNL     1      -2.833   2.293  -8.893  0.00  0.00    +0.000 HD
ENDBRANCH  49  51
BRANCH  47  48
ATOM     48  O   UNL     1      -3.993   0.709  -8.754  0.00  0.00    +0.000 OA
ATOM     55  H   UNL     1      -4.418   1.252  -9.447  0.00  0.00    +0.000 HD
ENDBRANCH  47  48
BRANCH   3   2
ATOM      1  C   UNL     1      -2.262   5.445  -7.012  0.00  0.00    +0.000 C 
ATOM      2  C   UNL     1      -1.844   4.016  -6.705  0.00  0.00    +0.000 C 
ENDBRANCH   3   2
BRANCH  37  39
ATOM     39  O   UNL     1      -8.205  -0.861  -2.840  0.00  0.00    +0.000 OA
ATOM     54  H   UNL     1      -7.795  -1.604  -2.363  0.00  0.00    +0.000 HD
ENDBRANCH  37  39
BRANCH   9  10
ATOM     10  O   UNL     1      -3.209   1.929  -1.300  0.00  0.00    +0.000 OA
BRANCH  10  11
ATOM     11  C   UNL     1      -2.197   0.914  -1.330  0.00  0.00    +0.000 C 
ATOM     12  C   UNL     1      -1.937   0.211  -2.655  0.00  0.00    +0.000 C 
ATOM     13  C   UNL     1      -0.934  -0.942  -2.469  0.00  0.00    +0.000 C 
ATOM     14  C   UNL     1      -1.556  -2.030  -1.568  0.00  0.00    +0.000 C 
ATOM     17  C   UNL     1       0.374  -0.351  -1.874  0.00  0.00    +0.000 C 
ATOM     19  C   UNL     1       0.126   0.534  -0.632  0.00  0.00    +0.000 C 
ATOM     20  C   UNL     1       0.025  -0.239   0.684  0.00  0.00    +0.000 C 
ATOM     21  O   UNL     1      -0.962   1.463  -0.830  0.00  0.00    +0.000 OA
BRANCH  13  15
ATOM     15  O   UNL     1      -0.755  -1.485  -3.796  0.00  0.00    +0.000 OA
ATOM     16  C   UNL     1       0.097  -2.616  -3.918  0.00  0.00    +0.000 C 
ENDBRANCH  13  15
BRANCH  17  18
ATOM     18  O   UNL     1       1.028   0.474  -2.861  0.00  0.00    +0.000 OA
ATOM     52  H   UNL     1       0.625   1.363  -2.822  0.00  0.00    +0.000 HD
ENDBRANCH  17  18
ENDBRANCH  10  11
ENDBRANCH   9  10
BRANCH  24  25
ATOM     25  O   UNL     1      -6.379  -0.393  -0.853  0.00  0.00    +0.000 OA
BRANCH  25  26
ATOM     26  C   UNL     1      -7.363   0.132   0.042  0.00  0.00    +0.000 C 
ATOM     27  O   UNL     1      -6.880   1.263   0.754  0.00  0.00    +0.000 OA
ATOM     28  C   UNL     1      -5.954   1.048   1.812  0.00  0.00    +0.000 C 
ATOM     29  C   UNL     1      -4.639   0.401   1.394  0.00  0.00    +0.000 C 
ATOM     30  C   UNL     1      -6.705   0.372   2.937  0.00  0.00    +0.000 C 
ATOM     31  C   UNL     1      -7.257  -0.997   2.481  0.00  0.00    +0.000 C 
ATOM     35  C   UNL     1      -8.058  -0.764   1.133  0.00  0.00    +0.000 C 
BRANCH  31  32
ATOM     32  N   UNL     1      -6.227  -2.066   2.405  0.00  0.00    +0.000 NA
ATOM     33  C   UNL     1      -6.834  -3.394   2.312  0.00  0.00    +0.000 C 
ATOM     34  C   UNL     1      -5.273  -2.083   3.527  0.00  0.00    +0.000 C 
ENDBRANCH  31  32
BRANCH  35  36
ATOM     36  O   UNL     1      -9.270  -0.038   1.531  0.00  0.00    +0.000 OA
ATOM     53  H   UNL     1      -9.010   0.925   1.558  0.00  0.00    +0.000 HD
ENDBRANCH  35  36
ENDBRANCH  25  26
ENDBRANCH  24  25
TORSDOF 12
