REMARK  Name = 
REMARK  3 active torsions:
REMARK  status: ('A' for Active; 'I' for Inactive)
REMARK    1  A    between atoms: C_2  and  C_4
REMARK    2  A    between atoms: N_8  and  C_9
REMARK    3  A    between atoms: C_9  and  C_10
REMARK                            x       y       z     vdW  Elec       q    Type
REMARK                         _______ _______ _______ _____ _____    ______ ____
ROOT
ATOM      4  C   UNL     1       3.336  -1.939  -2.789  0.00  0.00    +0.000 A 
ATOM      5  C   UNL     1       2.578  -1.026  -3.521  0.00  0.00    +0.000 A 
ATOM      6  C   UNL     1       3.211   0.069  -4.111  0.00  0.00    +0.000 A 
ATOM      7  C   UNL     1       4.579   0.240  -3.963  0.00  0.00    +0.000 A 
ATOM      8  N   UNL     1       5.276   1.351  -4.445  0.00  0.00    +0.000 N 
ATOM     18  N   UNL     1       5.324  -0.632  -3.246  0.00  0.00    +0.000 NA
ATOM     19  C   UNL     1       4.693  -1.693  -2.673  0.00  0.00    +0.000 A 
ATOM     22  H   UNL     1       6.262   1.173  -4.264  0.00  0.00    +0.000 HD
ENDROOT
BRANCH   4   2
ATOM      1  N   UNL     1       1.591  -3.622  -2.641  0.00  0.00    +0.000 N 
ATOM      2  C   UNL     1       2.749  -3.115  -2.114  0.00  0.00    +0.000 C 
ATOM      3  O   UNL     1       3.286  -3.633  -1.147  0.00  0.00    +0.000 OA
ATOM     20  H   UNL     1       1.246  -4.478  -2.231  0.00  0.00    +0.000 HD
ATOM     21  H   UNL     1       1.258  -3.376  -3.564  0.00  0.00    +0.000 HD
ENDBRANCH   4   2
BRANCH   8   9
ATOM      9  C   UNL     1       4.952   2.105  -5.666  0.00  0.00    +0.000 C 
ATOM     16  C   UNL     1       4.964   3.622  -5.490  0.00  0.00    +0.000 C 
ATOM     17  C   UNL     1       3.688   2.933  -5.833  0.00  0.00    +0.000 C 
BRANCH   9  10
ATOM     10  C   UNL     1       5.570   1.538  -6.944  0.00  0.00    +0.000 A 
ATOM     11  C   UNL     1       4.893   0.577  -7.715  0.00  0.00    +0.000 A 
ATOM     12  C   UNL     1       5.408   0.122  -8.932  0.00  0.00    +0.000 A 
ATOM     13  C   UNL     1       6.623   0.611  -9.401  0.00  0.00    +0.000 A 
ATOM     14  C   UNL     1       7.333   1.535  -8.641  0.00  0.00    +0.000 A 
ATOM     15  C   UNL     1       6.816   1.982  -7.423  0.00  0.00    +0.000 A 
ENDBRANCH   9  10
ENDBRANCH   8   9
TORSDOF 3
