REMARK  Name = 
REMARK  5 active torsions:
REMARK  status: ('A' for Active; 'I' for Inactive)
REMARK    1  A    between atoms: N_1  and  C_2
REMARK    2  A    between atoms: C_2  and  C_3
REMARK    3  A    between atoms: C_6  and  C_7
REMARK    4  A    between atoms: C_7  and  N_8
REMARK    5  A    between atoms: C_13  and  C_14
REMARK                            x       y       z     vdW  Elec       q    Type
REMARK                         _______ _______ _______ _____ _____    ______ ____
ROOT
ATOM      8  N   UNL     1       3.327   6.521  -0.070  0.00  0.00    +0.000 N 
ATOM      9  C   UNL     1       2.255   7.069   0.602  0.00  0.00    +0.000 A 
ATOM     10  C   UNL     1       1.725   8.069  -0.182  0.00  0.00    +0.000 A 
ATOM     11  C   UNL     1       2.506   8.148  -1.365  0.00  0.00    +0.000 A 
ATOM     12  C   UNL     1       2.498   8.966  -2.510  0.00  0.00    +0.000 A 
ATOM     13  C   UNL     1       3.484   8.744  -3.479  0.00  0.00    +0.000 A 
ATOM     17  C   UNL     1       4.404   7.719  -3.262  0.00  0.00    +0.000 A 
ATOM     18  N   UNL     1       4.455   6.905  -2.176  0.00  0.00    +0.000 NA
ATOM     19  C   UNL     1       3.493   7.168  -1.271  0.00  0.00    +0.000 A 
ENDROOT
BRANCH  13  14
ATOM     14  C   UNL     1       3.620   9.556  -4.714  0.00  0.00    +0.000 C 
ATOM     15  N   UNL     1       2.738  10.574  -4.934  0.00  0.00    +0.000 N 
ATOM     16  O   UNL     1       4.510   9.329  -5.525  0.00  0.00    +0.000 OA
ATOM     24  H   UNL     1       1.971  10.828  -4.331  0.00  0.00    +0.000 HD
ATOM     25  H   UNL     1       2.864  11.109  -5.783  0.00  0.00    +0.000 HD
ENDBRANCH  13  14
BRANCH   8   7
ATOM      7  C   UNL     1       4.238   5.520   0.473  0.00  0.00    +0.000 C 
BRANCH   7   6
ATOM      3  C   UNL     1       2.834   1.456  -0.128  0.00  0.00    +0.000 A 
ATOM      4  C   UNL     1       3.153   2.271  -1.223  0.00  0.00    +0.000 A 
ATOM      5  C   UNL     1       3.616   3.577  -1.033  0.00  0.00    +0.000 A 
ATOM      6  C   UNL     1       3.756   4.106   0.257  0.00  0.00    +0.000 A 
ATOM     20  C   UNL     1       3.473   3.277   1.353  0.00  0.00    +0.000 A 
ATOM     21  C   UNL     1       3.017   1.969   1.162  0.00  0.00    +0.000 A 
BRANCH   3   2
ATOM      2  C   UNL     1       2.263   0.077  -0.337  0.00  0.00    +0.000 C 
BRANCH   2   1
ATOM      1  N   UNL     1       3.184  -0.803  -1.043  0.00  0.00    +0.000 NA
ATOM     22  H   UNL     1       2.762  -1.724  -1.133  0.00  0.00    +0.000 HD
ATOM     23  H   UNL     1       4.023  -0.923  -0.477  0.00  0.00    +0.000 HD
ENDBRANCH   2   1
ENDBRANCH   3   2
ENDBRANCH   7   6
ENDBRANCH   8   7
TORSDOF 5
