REMARK  Name = 
REMARK  5 active torsions:
REMARK  status: ('A' for Active; 'I' for Inactive)
REMARK    1  A    between atoms: C_2  and  C_18
REMARK    2  A    between atoms: N_3  and  C_4
REMARK    3  A    between atoms: C_4  and  C_5
REMARK    4  A    between atoms: C_8  and  C_9
REMARK    5  A    between atoms: C_9  and  N_10
REMARK                            x       y       z     vdW  Elec       q    Type
REMARK                         _______ _______ _______ _____ _____    ______ ____
ROOT
ATOM      1  O   UNL     1       1.030  -0.036  -0.006  0.00  0.00    +0.000 OA
ATOM      2  C   UNL     1       1.981   0.563  -0.500  0.00  0.00    +0.000 C 
ATOM      3  N   UNL     1       2.694   1.507   0.199  0.00  0.00    +0.000 N 
ATOM     28  H   UNL     1       3.301   2.145  -0.306  0.00  0.00    +0.000 HD
ENDROOT
BRANCH   2  18
ATOM     18  C   UNL     1       2.438   0.275  -1.862  0.00  0.00    +0.000 A 
ATOM     19  C   UNL     1       2.200  -0.969  -2.426  0.00  0.00    +0.000 A 
ATOM     20  S   UNL     1       2.795  -1.118  -4.019  0.00  0.00    +0.000 S 
ATOM     21  C   UNL     1       3.349   0.492  -4.022  0.00  0.00    +0.000 A 
ATOM     22  N   UNL     1       3.936   1.032  -5.123  0.00  0.00    +0.000 NA
ATOM     23  C   UNL     1       4.279   2.270  -4.989  0.00  0.00    +0.000 A 
ATOM     24  N   UNL     1       4.104   3.013  -3.853  0.00  0.00    +0.000 N 
ATOM     25  C   UNL     1       3.548   2.500  -2.706  0.00  0.00    +0.000 A 
ATOM     26  O   UNL     1       3.460   3.177  -1.684  0.00  0.00    +0.000 OA
ATOM     27  C   UNL     1       3.116   1.121  -2.810  0.00  0.00    +0.000 A 
ATOM     29  H   UNL     1       4.412   3.971  -3.805  0.00  0.00    +0.000 HD
ENDBRANCH   2  18
BRANCH   3   4
ATOM      4  C   UNL     1       2.251   1.927   1.502  0.00  0.00    +0.000 C 
BRANCH   4   5
ATOM      5  C   UNL     1       3.143   2.987   2.090  0.00  0.00    +0.000 A 
ATOM      6  C   UNL     1       2.886   4.341   1.838  0.00  0.00    +0.000 A 
ATOM      7  C   UNL     1       3.667   5.339   2.428  0.00  0.00    +0.000 A 
ATOM      8  C   UNL     1       4.734   5.004   3.270  0.00  0.00    +0.000 A 
ATOM     16  C   UNL     1       5.020   3.647   3.486  0.00  0.00    +0.000 A 
ATOM     17  C   UNL     1       4.236   2.648   2.898  0.00  0.00    +0.000 A 
BRANCH   8   9
ATOM      9  C   UNL     1       5.591   6.087   3.892  0.00  0.00    +0.000 C 
BRANCH   9  10
ATOM     10  N   UNL     1       4.861   7.038   4.766  0.00  0.00    +0.000 NA
ATOM     11  C   UNL     1       4.334   6.349   5.956  0.00  0.00    +0.000 C 
ATOM     12  C   UNL     1       3.774   7.295   7.022  0.00  0.00    +0.000 C 
ATOM     13  C   UNL     1       4.796   8.351   7.409  0.00  0.00    +0.000 C 
ATOM     14  C   UNL     1       5.219   9.110   6.163  0.00  0.00    +0.000 C 
ATOM     15  C   UNL     1       5.762   8.157   5.098  0.00  0.00    +0.000 C 
ENDBRANCH   9  10
ENDBRANCH   8   9
ENDBRANCH   4   5
ENDBRANCH   3   4
TORSDOF 5
