REMARK  Name = 
REMARK  4 active torsions:
REMARK  status: ('A' for Active; 'I' for Inactive)
REMARK    1  A    between atoms: C_2  and  C_4
REMARK    2  A    between atoms: C_11  and  C_12
REMARK    3  A    between atoms: N_15  and  C_16
REMARK    4  A    between atoms: C_16  and  C_17
REMARK                            x       y       z     vdW  Elec       q    Type
REMARK                         _______ _______ _______ _____ _____    ______ ____
ROOT
ATOM      4  C   UNL     1       3.356  -1.142  -0.536  0.00  0.00    +0.000 A 
ATOM      5  C   UNL     1       3.072  -1.651  -1.801  0.00  0.00    +0.000 A 
ATOM      6  N   UNL     1       3.718  -2.685  -2.409  0.00  0.00    +0.000 NA
ATOM      7  C   UNL     1       4.707  -3.207  -1.650  0.00  0.00    +0.000 A 
ATOM      8  C   UNL     1       5.052  -2.811  -0.360  0.00  0.00    +0.000 A 
ATOM      9  C   UNL     1       4.356  -1.745   0.223  0.00  0.00    +0.000 A 
ATOM     10  C   UNL     1       6.075  -3.674   0.088  0.00  0.00    +0.000 A 
ATOM     11  C   UNL     1       6.368  -4.550  -0.937  0.00  0.00    +0.000 A 
ATOM     15  N   UNL     1       5.522  -4.267  -1.995  0.00  0.00    +0.000 N 
ENDROOT
BRANCH   4   2
ATOM      1  N   UNL     1       3.176   0.785   0.935  0.00  0.00    +0.000 N 
ATOM      2  C   UNL     1       2.580   0.002  -0.011  0.00  0.00    +0.000 C 
ATOM      3  O   UNL     1       1.453   0.252  -0.427  0.00  0.00    +0.000 OA
ATOM     26  H   UNL     1       2.670   1.612   1.223  0.00  0.00    +0.000 HD
ATOM     27  H   UNL     1       4.169   0.760   1.119  0.00  0.00    +0.000 HD
ENDBRANCH   4   2
BRANCH  11  12
ATOM     12  C   UNL     1       7.418  -5.653  -0.866  0.00  0.00    +0.000 C 
ATOM     13  C   UNL     1       7.389  -6.569   0.341  0.00  0.00    +0.000 C 
ATOM     14  C   UNL     1       8.499  -5.586   0.196  0.00  0.00    +0.000 C 
ENDBRANCH  11  12
BRANCH  15  16
ATOM     16  C   UNL     1       5.264  -5.148  -3.130  0.00  0.00    +0.000 C 
BRANCH  16  17
ATOM     17  C   UNL     1       6.128  -4.911  -4.358  0.00  0.00    +0.000 C 
ATOM     18  O   UNL     1       6.757  -3.870  -4.544  0.00  0.00    +0.000 OA
ATOM     19  N   UNL     1       6.198  -5.978  -5.267  0.00  0.00    +0.000 N 
ATOM     20  C   UNL     1       7.052  -5.851  -6.451  0.00  0.00    +0.000 C 
ATOM     21  C   UNL     1       7.649  -7.212  -6.816  0.00  0.00    +0.000 C 
ATOM     22  N   UNL     1       6.638  -8.241  -6.939  0.00  0.00    +0.000 N 
ATOM     23  C   UNL     1       5.525  -8.281  -6.139  0.00  0.00    +0.000 C 
ATOM     24  O   UNL     1       4.811  -9.281  -6.129  0.00  0.00    +0.000 OA
ATOM     25  C   UNL     1       5.150  -7.002  -5.374  0.00  0.00    +0.000 C 
ATOM     28  H   UNL     1       6.868  -9.125  -7.379  0.00  0.00    +0.000 HD
ENDBRANCH  16  17
ENDBRANCH  15  16
TORSDOF 4
