REMARK  Name = 
REMARK  5 active torsions:
REMARK  status: ('A' for Active; 'I' for Inactive)
REMARK    1  A    between atoms: C_1  and  C_2
REMARK    2  A    between atoms: C_2  and  C_3
REMARK    3  A    between atoms: C_2  and  N_4
REMARK    4  A    between atoms: C_2  and  C_14
REMARK    5  A    between atoms: C_8  and  C_9
REMARK                            x       y       z     vdW  Elec       q    Type
REMARK                         _______ _______ _______ _____ _____    ______ ____
ROOT
ATOM      4  N   UNL     1       2.837   0.995   1.072  0.00  0.00    +0.000 N 
ATOM      5  C   UNL     1       2.086   2.149   1.252  0.00  0.00    +0.000 A 
ATOM      6  C   UNL     1       2.079   2.730   2.519  0.00  0.00    +0.000 A 
ATOM      7  C   UNL     1       1.254   3.827   2.771  0.00  0.00    +0.000 A 
ATOM      8  C   UNL     1       0.479   4.356   1.739  0.00  0.00    +0.000 A 
ATOM     12  C   UNL     1       0.602   3.757   0.497  0.00  0.00    +0.000 A 
ATOM     13  N   UNL     1       1.386   2.682   0.237  0.00  0.00    +0.000 NA
ATOM     20  H   UNL     1       3.824   1.234   1.073  0.00  0.00    +0.000 HD
ENDROOT
BRANCH   8   9
ATOM      9  C   UNL     1      -0.431   5.492   2.019  0.00  0.00    +0.000 C 
ATOM     10  N   UNL     1      -1.183   6.010   1.000  0.00  0.00    +0.000 N 
ATOM     11  O   UNL     1      -0.524   5.963   3.147  0.00  0.00    +0.000 OA
ATOM     21  H   UNL     1      -1.200   5.685   0.048  0.00  0.00    +0.000 HD
ATOM     22  H   UNL     1      -1.804   6.773   1.245  0.00  0.00    +0.000 HD
ENDBRANCH   8   9
BRANCH   4   2
ATOM      1  C   UNL     1       0.981  -0.215  -0.086  0.00  0.00    +0.000 C 
ATOM      2  C   UNL     1       2.509  -0.010   0.036  0.00  0.00    +0.000 C 
ATOM      3  C   UNL     1       3.119   0.427  -1.311  0.00  0.00    +0.000 C 
BRANCH   2  14
ATOM     14  C   UNL     1       3.144  -1.368   0.446  0.00  0.00    +0.000 A 
ATOM     15  C   UNL     1       2.978  -2.508  -0.369  0.00  0.00    +0.000 A 
ATOM     16  C   UNL     1       3.540  -3.741  -0.027  0.00  0.00    +0.000 A 
ATOM     17  C   UNL     1       4.295  -3.864   1.134  0.00  0.00    +0.000 A 
ATOM     18  C   UNL     1       4.473  -2.759   1.960  0.00  0.00    +0.000 A 
ATOM     19  C   UNL     1       3.898  -1.528   1.625  0.00  0.00    +0.000 A 
ENDBRANCH   2  14
ENDBRANCH   4   2
TORSDOF 3
