REMARK  Name = 
REMARK  14 active torsions:
REMARK  status: ('A' for Active; 'I' for Inactive)
REMARK    1  A    between atoms: N_2  and  C_3
REMARK    2  A    between atoms: C_3  and  C_4
REMARK    3  A    between atoms: C_4  and  O_5
REMARK    4  A    between atoms: O_5  and  C_6
REMARK    5  A    between atoms: C_6  and  C_7
REMARK    6  A    between atoms: C_7  and  O_8
REMARK    7  A    between atoms: O_8  and  C_9
REMARK    8  A    between atoms: C_9  and  C_10
REMARK    9  A    between atoms: C_10  and  N_11
REMARK   10  A    between atoms: N_11  and  C_12
REMARK   11  A    between atoms: C_12  and  C_13
REMARK   12  A    between atoms: C_16  and  C_17
REMARK   13  A    between atoms: C_17  and  N_18
REMARK   14  A    between atoms: C_19  and  C_21
REMARK                            x       y       z     vdW  Elec       q    Type
REMARK                         _______ _______ _______ _____ _____    ______ ____
ROOT
ATOM      1 CL   UNL     1       0.436   2.641   0.962  0.00  0.00    +0.000 Cl
ATOM      2  H   UNL     1       1.455   1.723   0.950  0.00  0.00    +0.000 HD
ENDROOT
TORSDOF 0
REMARK  Name = 
REMARK  14 active torsions:
REMARK  status: ('A' for Active; 'I' for Inactive)
REMARK    1  A    between atoms: N_2  and  C_3
REMARK    2  A    between atoms: C_3  and  C_4
REMARK    3  A    between atoms: C_4  and  O_5
REMARK    4  A    between atoms: O_5  and  C_6
REMARK    5  A    between atoms: C_6  and  C_7
REMARK    6  A    between atoms: C_7  and  O_8
REMARK    7  A    between atoms: O_8  and  C_9
REMARK    8  A    between atoms: C_9  and  C_10
REMARK    9  A    between atoms: C_10  and  N_11
REMARK   10  A    between atoms: N_11  and  C_12
REMARK   11  A    between atoms: C_12  and  C_13
REMARK   12  A    between atoms: C_16  and  C_17
REMARK   13  A    between atoms: C_17  and  N_18
REMARK   14  A    between atoms: C_19  and  C_21
REMARK                            x       y       z     vdW  Elec       q    Type
REMARK                         _______ _______ _______ _____ _____    ______ ____
ROOT
ATOM     12  C   UNL     1      12.261  -5.696   3.863  0.00  0.00    +0.000 A 
ATOM     13  C   UNL     1      12.924  -4.647   4.522  0.00  0.00    +0.000 A 
ATOM     14  C   UNL     1      14.318  -4.595   4.542  0.00  0.00    +0.000 A 
ATOM     15  C   UNL     1      15.071  -5.592   3.904  0.00  0.00    +0.000 A 
ATOM     30  C   UNL     1      14.412  -6.646   3.256  0.00  0.00    +0.000 A 
ATOM     31  C   UNL     1      13.016  -6.698   3.234  0.00  0.00    +0.000 A 
ENDROOT
BRANCH  12  11
ATOM     11  C   UNL     1      10.758  -5.735   3.826  0.00  0.00    +0.000 C 
BRANCH  11  10
ATOM     10  N   UNL     1      10.257  -4.547   3.130  0.00  0.00    +0.000 NA
ATOM     34  H   UNL     1      10.532  -3.691   3.666  0.00  0.00    +0.000 HD
BRANCH  10   9
ATOM      9  C   UNL     1       8.800  -4.571   3.038  0.00  0.00    +0.000 C 
BRANCH   9   8
ATOM      8  C   UNL     1       8.322  -3.330   2.300  0.00  0.00    +0.000 C 
BRANCH   8   7
ATOM      7  O   UNL     1       6.925  -3.398   2.200  0.00  0.00    +0.000 OA
BRANCH   7   6
ATOM      6  C   UNL     1       6.440  -2.239   1.569  0.00  0.00    +0.000 C 
BRANCH   6   5
ATOM      5  C   UNL     1       4.930  -2.335   1.571  0.00  0.00    +0.000 C 
BRANCH   5   4
ATOM      4  O   UNL     1       4.385  -1.163   1.010  0.00  0.00    +0.000 OA
BRANCH   4   3
ATOM      3  C   UNL     1       2.973  -1.245   0.962  0.00  0.00    +0.000 C 
BRANCH   3   2
ATOM      2  C   UNL     1       2.323  -1.203   2.357  0.00  0.00    +0.000 C 
BRANCH   2   1
ATOM      1  N   UNL     1       2.860  -0.094   3.140  0.00  0.00    +0.000 NA
ATOM     32  H   UNL     1       2.380  -0.076   4.068  0.00  0.00    +0.000 HD
ATOM     33  H   UNL     1       2.670   0.810   2.654  0.00  0.00    +0.000 HD
ENDBRANCH   2   1
ENDBRANCH   3   2
ENDBRANCH   4   3
ENDBRANCH   5   4
ENDBRANCH   6   5
ENDBRANCH   7   6
ENDBRANCH   8   7
ENDBRANCH   9   8
ENDBRANCH  10   9
ENDBRANCH  11  10
ENDBRANCH  12  11
BRANCH  15  16
ATOM     16  C   UNL     1      16.573  -5.537   3.933  0.00  0.00    +0.000 C 
BRANCH  16  17
ATOM     17  N   UNL     1      17.080  -6.211   5.114  0.00  0.00    +0.000 N 
ATOM     18  C   UNL     1      18.410  -6.229   5.414  0.00  0.00    +0.000 C 
ATOM     19  O   UNL     1      19.194  -5.658   4.673  0.00  0.00    +0.000 OA
ATOM     35  H   UNL     1      16.405  -6.652   5.754  0.00  0.00    +0.000 HD
BRANCH  18  20
ATOM     20  C   UNL     1      18.908  -6.918   6.646  0.00  0.00    +0.000 A 
ATOM     21  C   UNL     1      18.147  -7.903   7.299  0.00  0.00    +0.000 A 
ATOM     22  S   UNL     1      18.974  -8.490   8.644  0.00  0.00    +0.000 S 
ATOM     23  C   UNL     1      20.298  -7.500   8.429  0.00  0.00    +0.000 A 
ATOM     24  N   UNL     1      21.385  -7.451   9.234  0.00  0.00    +0.000 NA
ATOM     25  C   UNL     1      22.379  -6.572   8.951  0.00  0.00    +0.000 A 
ATOM     26  N   UNL     1      22.288  -5.750   7.866  0.00  0.00    +0.000 N 
ATOM     27  C   UNL     1      21.194  -5.787   7.031  0.00  0.00    +0.000 A 
ATOM     28  O   UNL     1      21.147  -5.025   6.084  0.00  0.00    +0.000 OA
ATOM     29  C   UNL     1      20.150  -6.694   7.311  0.00  0.00    +0.000 A 
ATOM     36  H   UNL     1      23.064  -5.077   7.673  0.00  0.00    +0.000 HD
ENDBRANCH  18  20
ENDBRANCH  16  17
ENDBRANCH  15  16
TORSDOF 14
