REMARK  Name = 
REMARK  3 active torsions:
REMARK  status: ('A' for Active; 'I' for Inactive)
REMARK    1  A    between atoms: O_1  and  C_2
REMARK    2  A    between atoms: C_2  and  C_3
REMARK    3  A    between atoms: C_5  and  C_6
REMARK                            x       y       z     vdW  Elec       q    Type
REMARK                         _______ _______ _______ _____ _____    ______ ____
ROOT
ATOM      3  C   UNL     1       2.893  -0.545   1.258  0.00  0.00    +0.000 A 
ATOM      4  C   UNL     1       3.370   0.170   2.383  0.00  0.00    +0.000 A 
ATOM      5  C   UNL     1       3.640  -0.780   3.343  0.00  0.00    +0.000 A 
ATOM     11  N   UNL     1       3.340  -1.976   2.749  0.00  0.00    +0.000 N 
ATOM     12  N   UNL     1       2.883  -1.866   1.488  0.00  0.00    +0.000 NA
ATOM     14  H   UNL     1       3.418  -2.901   3.159  0.00  0.00    +0.000 HD
ENDROOT
BRANCH   5   6
ATOM      6  C   UNL     1       4.118  -0.632   4.687  0.00  0.00    +0.000 A 
ATOM      7  C   UNL     1       4.377   0.557   5.343  0.00  0.00    +0.000 A 
ATOM      8  C   UNL     1       4.838   0.361   6.677  0.00  0.00    +0.000 A 
ATOM      9  C   UNL     1       4.918  -0.973   7.001  0.00  0.00    +0.000 A 
ATOM     10  S   UNL     1       4.438  -1.977   5.703  0.00  0.00    +0.000 S 
ENDBRANCH   5   6
BRANCH   3   2
ATOM      2  C   UNL     1       2.430   0.009  -0.049  0.00  0.00    +0.000 C 
BRANCH   2   1
ATOM      1  O   UNL     1       2.457   1.439  -0.078  0.00  0.00    +0.000 OA
ATOM     13  H   UNL     1       2.064   1.699  -0.927  0.00  0.00    +0.000 HD
ENDBRANCH   2   1
ENDBRANCH   3   2
TORSDOF 3
