REMARK  Name = 
REMARK  8 active torsions:
REMARK  status: ('A' for Active; 'I' for Inactive)
REMARK    1  A    between atoms: C_1  and  C_2
REMARK    2  A    between atoms: C_2  and  C_3
REMARK    3  A    between atoms: C_2  and  C_4
REMARK    4  A    between atoms: C_2  and  C_15
REMARK    5  A    between atoms: C_4  and  N_5
REMARK    6  A    between atoms: C_9  and  C_10
REMARK    7  A    between atoms: C_19  and  C_20
REMARK    8  A    between atoms: C_20  and  N_21
REMARK                            x       y       z     vdW  Elec       q    Type
REMARK                         _______ _______ _______ _____ _____    ______ ____
ROOT
ATOM      4  C   UNL     1       3.082  -1.298   0.478  0.00  0.00    +0.000 C 
ENDROOT
BRANCH   4   5
ATOM      5  N   UNL     1       2.645  -2.405  -0.360  0.00  0.00    +0.000 N 
ATOM      6  C   UNL     1       2.996  -3.704  -0.047  0.00  0.00    +0.000 A 
ATOM      7  C   UNL     1       3.182  -4.161   1.253  0.00  0.00    +0.000 A 
ATOM      8  C   UNL     1       3.466  -5.508   1.480  0.00  0.00    +0.000 A 
ATOM      9  C   UNL     1       3.534  -6.391   0.405  0.00  0.00    +0.000 A 
ATOM     13  C   UNL     1       3.330  -5.856  -0.855  0.00  0.00    +0.000 A 
ATOM     14  N   UNL     1       3.074  -4.544  -1.097  0.00  0.00    +0.000 NA
ATOM     23  H   UNL     1       2.770  -2.279  -1.364  0.00  0.00    +0.000 HD
BRANCH   9  10
ATOM     10  C   UNL     1       3.795  -7.831   0.667  0.00  0.00    +0.000 C 
ATOM     11  N   UNL     1       3.839  -8.700  -0.383  0.00  0.00    +0.000 N 
ATOM     12  O   UNL     1       3.966  -8.241   1.814  0.00  0.00    +0.000 OA
ATOM     24  H   UNL     1       3.686  -8.476  -1.356  0.00  0.00    +0.000 HD
ATOM     25  H   UNL     1       4.001  -9.676  -0.151  0.00  0.00    +0.000 HD
ENDBRANCH   9  10
ENDBRANCH   4   5
BRANCH   4   2
ATOM      1  C   UNL     1       1.006   0.075   0.037  0.00  0.00    +0.000 C 
ATOM      2  C   UNL     1       2.555   0.082  -0.033  0.00  0.00    +0.000 C 
ATOM      3  C   UNL     1       3.046   1.157   0.968  0.00  0.00    +0.000 C 
BRANCH   2  15
ATOM     15  C   UNL     1       3.088   0.409  -1.442  0.00  0.00    +0.000 A 
ATOM     16  C   UNL     1       4.470   0.462  -1.691  0.00  0.00    +0.000 A 
ATOM     17  C   UNL     1       4.963   0.697  -2.976  0.00  0.00    +0.000 A 
ATOM     18  C   UNL     1       4.087   0.879  -4.045  0.00  0.00    +0.000 A 
ATOM     19  C   UNL     1       2.706   0.859  -3.838  0.00  0.00    +0.000 A 
ATOM     22  C   UNL     1       2.228   0.627  -2.536  0.00  0.00    +0.000 A 
BRANCH  19  20
ATOM     20  C   UNL     1       1.711   0.956  -4.971  0.00  0.00    +0.000 C 
BRANCH  20  21
ATOM     21  N   UNL     1       2.173   1.759  -6.097  0.00  0.00    +0.000 NA
ATOM     26  H   UNL     1       2.270   2.725  -5.787  0.00  0.00    +0.000 HD
ATOM     27  H   UNL     1       1.451   1.760  -6.815  0.00  0.00    +0.000 HD
ENDBRANCH  20  21
ENDBRANCH  19  20
ENDBRANCH   2  15
ENDBRANCH   4   2
TORSDOF 6
