REMARK  Name = 
REMARK  14 active torsions:
REMARK  status: ('A' for Active; 'I' for Inactive)
REMARK    1  A    between atoms: C_2  and  C_3
REMARK    2  A    between atoms: C_3  and  C_4
REMARK    3  A    between atoms: C_4  and  C_5
REMARK    4  A    between atoms: C_5  and  C_6
REMARK    5  A    between atoms: C_6  and  C_7
REMARK    6  A    between atoms: C_7  and  N_8
REMARK    7  A    between atoms: C_9  and  C_11
REMARK    8  A    between atoms: C_15  and  O_16
REMARK    9  A    between atoms: N_18  and  O_19
REMARK   10  A    between atoms: N_20  and  C_21
REMARK   11  A    between atoms: C_21  and  C_22
REMARK   12  A    between atoms: C_25  and  C_26
REMARK   13  A    between atoms: C_26  and  N_27
REMARK   14  A    between atoms: C_28  and  C_30
REMARK                            x       y       z     vdW  Elec       q    Type
REMARK                         _______ _______ _______ _____ _____    ______ ____
ROOT
ATOM      1  O   UNL     1       2.762   0.900   0.693  0.00  0.00    +0.000 OA
ATOM      2  C   UNL     1       2.214   0.016   0.037  0.00  0.00    +0.000 C 
ATOM     20  N   UNL     1       2.960  -0.897  -0.660  0.00  0.00    +0.000 N 
ATOM     45  H   UNL     1       2.428  -1.594  -1.182  0.00  0.00    +0.000 HD
ENDROOT
BRANCH   2   3
ATOM      3  C   UNL     1       0.699  -0.110  -0.040  0.00  0.00    +0.000 C 
BRANCH   3   4
ATOM      4  C   UNL     1       0.166  -1.010   1.073  0.00  0.00    +0.000 C 
BRANCH   4   5
ATOM      5  C   UNL     1      -1.349  -1.140   1.000  0.00  0.00    +0.000 C 
BRANCH   5   6
ATOM      6  C   UNL     1      -1.864  -2.041   2.119  0.00  0.00    +0.000 C 
BRANCH   6   7
ATOM      7  C   UNL     1      -3.378  -2.176   2.054  0.00  0.00    +0.000 C 
BRANCH   7   8
ATOM      8  N   UNL     1      -3.904  -3.032   3.111  0.00  0.00    +0.000 N 
ATOM      9  C   UNL     1      -4.045  -4.399   2.912  0.00  0.00    +0.000 C 
ATOM     10  O   UNL     1      -3.730  -4.921   1.845  0.00  0.00    +0.000 OA
ATOM     42  H   UNL     1      -4.115  -2.613   4.007  0.00  0.00    +0.000 HD
BRANCH   9  11
ATOM     11  C   UNL     1      -4.507  -5.194   4.117  0.00  0.00    +0.000 A 
ATOM     12  C   UNL     1      -4.235  -6.552   4.263  0.00  0.00    +0.000 A 
ATOM     13  C   UNL     1      -4.794  -7.282   5.367  0.00  0.00    +0.000 A 
ATOM     14  O   UNL     1      -4.752  -8.518   5.330  0.00  0.00    +0.000 OA
ATOM     15  C   UNL     1      -5.385  -6.493   6.484  0.00  0.00    +0.000 A 
ATOM     17  C   UNL     1      -5.335  -5.167   6.362  0.00  0.00    +0.000 A 
ATOM     18  N   UNL     1      -5.090  -4.482   5.228  0.00  0.00    +0.000 N 
BRANCH  15  16
ATOM     16  O   UNL     1      -5.916  -7.182   7.586  0.00  0.00    +0.000 OA
ATOM     43  H   UNL     1      -5.905  -8.154   7.435  0.00  0.00    +0.000 HD
ENDBRANCH  15  16
BRANCH  18  19
ATOM     19  O   UNL     1      -5.280  -3.144   5.067  0.00  0.00    +0.000 OA
ATOM     44  H   UNL     1      -5.651  -2.778   5.897  0.00  0.00    +0.000 HD
ENDBRANCH  18  19
ENDBRANCH   9  11
ENDBRANCH   7   8
ENDBRANCH   6   7
ENDBRANCH   5   6
ENDBRANCH   4   5
ENDBRANCH   3   4
ENDBRANCH   2   3
BRANCH  20  21
ATOM     21  C   UNL     1       4.411  -0.951  -0.722  0.00  0.00    +0.000 C 
BRANCH  21  22
ATOM     22  C   UNL     1       4.968  -1.138   0.631  0.00  0.00    +0.000 A 
ATOM     23  C   UNL     1       4.350  -1.804   1.677  0.00  0.00    +0.000 A 
ATOM     24  C   UNL     1       4.804  -1.682   2.986  0.00  0.00    +0.000 A 
ATOM     25  C   UNL     1       6.007  -1.093   3.284  0.00  0.00    +0.000 A 
ATOM     40  C   UNL     1       6.779  -0.694   2.194  0.00  0.00    +0.000 A 
ATOM     41  C   UNL     1       6.244  -0.638   0.909  0.00  0.00    +0.000 A 
BRANCH  25  26
ATOM     26  C   UNL     1       6.429  -0.860   4.711  0.00  0.00    +0.000 C 
BRANCH  26  27
ATOM     27  N   UNL     1       7.204  -1.923   5.427  0.00  0.00    +0.000 N 
ATOM     28  C   UNL     1       7.524  -1.526   6.790  0.00  0.00    +0.000 C 
ATOM     29  O   UNL     1       7.090  -0.412   7.054  0.00  0.00    +0.000 OA
ATOM     46  H   UNL     1       7.514  -2.694   4.834  0.00  0.00    +0.000 HD
BRANCH  28  30
ATOM     30  C   UNL     1       8.424  -1.999   7.910  0.00  0.00    +0.000 A 
ATOM     31  C   UNL     1       9.087  -0.968   9.051  0.00  0.00    +0.000 A 
ATOM     32  S   UNL     1       8.437  -2.551   9.728  0.00  0.00    +0.000 S 
ATOM     33  C   UNL     1       9.960  -2.858   8.579  0.00  0.00    +0.000 A 
ATOM     34  N   UNL     1      11.283  -2.536   8.729  0.00  0.00    +0.000 NA
ATOM     35  C   UNL     1      12.013  -3.388   8.099  0.00  0.00    +0.000 A 
ATOM     36  N   UNL     1      11.466  -4.488   7.518  0.00  0.00    +0.000 N 
ATOM     37  C   UNL     1      10.132  -4.432   7.065  0.00  0.00    +0.000 A 
ATOM     38  O   UNL     1       9.770  -5.310   6.275  0.00  0.00    +0.000 OA
ATOM     39  C   UNL     1       9.288  -3.248   7.462  0.00  0.00    +0.000 A 
ATOM     47  H   UNL     1      12.011  -5.334   7.368  0.00  0.00    +0.000 HD
ENDBRANCH  28  30
ENDBRANCH  26  27
ENDBRANCH  25  26
ENDBRANCH  21  22
ENDBRANCH  20  21
TORSDOF 14
