REMARK  Name = 
REMARK  2 active torsions:
REMARK  status: ('A' for Active; 'I' for Inactive)
REMARK    1  A    between atoms: C_2  and  C_4
REMARK    2  A    between atoms: C_7  and  N_8
REMARK                            x       y       z     vdW  Elec       q    Type
REMARK                         _______ _______ _______ _____ _____    ______ ____
ROOT
ATOM      4  C   UNL     1       3.088   1.190  -0.514  0.00  0.00    +0.000 A 
ATOM      5  C   UNL     1       2.646   2.450  -0.101  0.00  0.00    +0.000 A 
ATOM      6  C   UNL     1       3.280   3.601  -0.578  0.00  0.00    +0.000 A 
ATOM      7  C   UNL     1       4.381   3.509  -1.434  0.00  0.00    +0.000 A 
ATOM      9  C   UNL     1       4.796   2.245  -1.864  0.00  0.00    +0.000 A 
ATOM     10  C   UNL     1       4.175   1.087  -1.385  0.00  0.00    +0.000 A 
ENDROOT
BRANCH   4   2
ATOM      1  N   UNL     1       1.070   0.040   0.186  0.00  0.00    +0.000 N 
ATOM      2  C   UNL     1       2.410  -0.054  -0.072  0.00  0.00    +0.000 C 
ATOM      3  O   UNL     1       3.003  -1.122   0.009  0.00  0.00    +0.000 OA
ATOM     11  H   UNL     1       0.586  -0.833   0.350  0.00  0.00    +0.000 HD
ATOM     12  H   UNL     1       0.523   0.823  -0.141  0.00  0.00    +0.000 HD
ENDBRANCH   4   2
BRANCH   7   8
ATOM      8  N   UNL     1       4.902   4.662  -2.031  0.00  0.00    +0.000 N 
ATOM     13  H   UNL     1       4.795   5.502  -1.472  0.00  0.00    +0.000 HD
ATOM     14  H   UNL     1       5.848   4.551  -2.384  0.00  0.00    +0.000 HD
ENDBRANCH   7   8
TORSDOF 2
