REMARK  Name = 
REMARK  15 active torsions:
REMARK  status: ('A' for Active; 'I' for Inactive)
REMARK    1  A    between atoms: C_1  and  C_2
REMARK    2  A    between atoms: C_2  and  C_3
REMARK    3  A    between atoms: C_3  and  C_4
REMARK    4  A    between atoms: C_4  and  C_5
REMARK    5  A    between atoms: C_5  and  C_6
REMARK    6  A    between atoms: C_6  and  C_7
REMARK    7  A    between atoms: C_7  and  C_8
REMARK    8  A    between atoms: C_8  and  N_9
REMARK    9  A    between atoms: N_9  and  C_10
REMARK   10  A    between atoms: N_9  and  C_17
REMARK   11  A    between atoms: C_10  and  C_11
REMARK   12  A    between atoms: C_17  and  C_18
REMARK   13  A    between atoms: C_21  and  C_22
REMARK   14  A    between atoms: C_22  and  N_23
REMARK   15  A    between atoms: C_24  and  C_26
REMARK                            x       y       z     vdW  Elec       q    Type
REMARK                         _______ _______ _______ _____ _____    ______ ____
ROOT
ATOM     18  C   UNL     1      11.206  -2.575  -4.501  0.00  0.00    +0.000 A 
ATOM     19  C   UNL     1      10.854  -3.925  -4.637  0.00  0.00    +0.000 A 
ATOM     20  C   UNL     1      11.253  -4.864  -3.682  0.00  0.00    +0.000 A 
ATOM     21  C   UNL     1      12.009  -4.469  -2.570  0.00  0.00    +0.000 A 
ATOM     36  C   UNL     1      12.414  -3.131  -2.468  0.00  0.00    +0.000 A 
ATOM     37  C   UNL     1      12.013  -2.192  -3.421  0.00  0.00    +0.000 A 
ENDROOT
BRANCH  18  17
ATOM     17  C   UNL     1      10.653  -1.537  -5.461  0.00  0.00    +0.000 C 
BRANCH  17   9
ATOM      9  N   UNL     1       9.169  -1.462  -5.434  0.00  0.00    +0.000 NA
BRANCH   9   8
ATOM      8  C   UNL     1       8.727  -1.076  -4.070  0.00  0.00    +0.000 C 
BRANCH   8   7
ATOM      7  C   UNL     1       7.218  -0.968  -3.829  0.00  0.00    +0.000 C 
BRANCH   7   6
ATOM      6  C   UNL     1       6.445  -2.259  -4.094  0.00  0.00    +0.000 C 
BRANCH   6   5
ATOM      5  C   UNL     1       4.962  -2.018  -3.818  0.00  0.00    +0.000 C 
BRANCH   5   4
ATOM      4  C   UNL     1       4.116  -3.263  -4.058  0.00  0.00    +0.000 C 
BRANCH   4   3
ATOM      3  C   UNL     1       2.641  -2.967  -3.785  0.00  0.00    +0.000 C 
BRANCH   3   2
ATOM      1  C   UNL     1       0.314  -3.926  -3.756  0.00  0.00    +0.000 C 
ATOM      2  C   UNL     1       1.783  -4.206  -4.024  0.00  0.00    +0.000 C 
ENDBRANCH   3   2
ENDBRANCH   4   3
ENDBRANCH   5   4
ENDBRANCH   6   5
ENDBRANCH   7   6
ENDBRANCH   8   7
ENDBRANCH   9   8
BRANCH   9  10
ATOM     10  C   UNL     1       8.688  -0.485  -6.430  0.00  0.00    +0.000 C 
BRANCH  10  11
ATOM     11  C   UNL     1       8.970  -0.813  -7.886  0.00  0.00    +0.000 A 
ATOM     12  C   UNL     1       8.551  -2.028  -8.451  0.00  0.00    +0.000 A 
ATOM     13  C   UNL     1       8.657  -2.243  -9.828  0.00  0.00    +0.000 A 
ATOM     14  C   UNL     1       9.184  -1.252 -10.654  0.00  0.00    +0.000 A 
ATOM     15  C   UNL     1       9.636  -0.055 -10.102  0.00  0.00    +0.000 A 
ATOM     16  C   UNL     1       9.532   0.162  -8.726  0.00  0.00    +0.000 A 
ENDBRANCH  10  11
ENDBRANCH   9  10
ENDBRANCH  17   9
ENDBRANCH  18  17
BRANCH  21  22
ATOM     22  C   UNL     1      12.423  -5.467  -1.519  0.00  0.00    +0.000 C 
BRANCH  22  23
ATOM     23  N   UNL     1      13.696  -6.046  -1.853  0.00  0.00    +0.000 N 
ATOM     24  C   UNL     1      14.263  -7.043  -1.106  0.00  0.00    +0.000 C 
ATOM     25  O   UNL     1      13.711  -7.535  -0.132  0.00  0.00    +0.000 OA
ATOM     38  H   UNL     1      14.277  -5.505  -2.486  0.00  0.00    +0.000 HD
BRANCH  24  26
ATOM     26  C   UNL     1      15.559  -7.540  -1.597  0.00  0.00    +0.000 A 
ATOM     27  C   UNL     1      15.988  -8.816  -1.257  0.00  0.00    +0.000 A 
ATOM     28  S   UNL     1      17.453  -9.264  -2.005  0.00  0.00    +0.000 S 
ATOM     29  C   UNL     1      17.600  -7.746  -2.758  0.00  0.00    +0.000 A 
ATOM     30  N   UNL     1      18.663  -7.458  -3.559  0.00  0.00    +0.000 NA
ATOM     31  C   UNL     1      18.658  -6.260  -4.042  0.00  0.00    +0.000 A 
ATOM     32  N   UNL     1      17.694  -5.320  -3.790  0.00  0.00    +0.000 N 
ATOM     33  C   UNL     1      16.596  -5.569  -2.997  0.00  0.00    +0.000 A 
ATOM     34  O   UNL     1      15.749  -4.706  -2.803  0.00  0.00    +0.000 OA
ATOM     35  C   UNL     1      16.546  -6.907  -2.443  0.00  0.00    +0.000 A 
ATOM     39  H   UNL     1      17.748  -4.398  -4.199  0.00  0.00    +0.000 HD
ENDBRANCH  24  26
ENDBRANCH  22  23
ENDBRANCH  21  22
TORSDOF 14
