REMARK  Name = 
REMARK  6 active torsions:
REMARK  status: ('A' for Active; 'I' for Inactive)
REMARK    1  A    between atoms: C_2  and  C_23
REMARK    2  A    between atoms: N_3  and  C_4
REMARK    3  A    between atoms: C_4  and  C_5
REMARK    4  A    between atoms: C_8  and  C_9
REMARK    5  A    between atoms: C_9  and  N_10
REMARK    6  A    between atoms: N_10  and  C_11
REMARK                            x       y       z     vdW  Elec       q    Type
REMARK                         _______ _______ _______ _____ _____    ______ ____
ROOT
ATOM      5  C   UNL     1       3.017   0.267   3.674  0.00  0.00    +0.000 A 
ATOM      6  C   UNL     1       3.405   1.530   4.142  0.00  0.00    +0.000 A 
ATOM      7  C   UNL     1       4.263   1.648   5.238  0.00  0.00    +0.000 A 
ATOM      8  C   UNL     1       4.756   0.504   5.874  0.00  0.00    +0.000 A 
ATOM     21  C   UNL     1       4.386  -0.759   5.389  0.00  0.00    +0.000 A 
ATOM     22  C   UNL     1       3.531  -0.877   4.295  0.00  0.00    +0.000 A 
ENDROOT
BRANCH   5   4
ATOM      4  C   UNL     1       2.092   0.142   2.495  0.00  0.00    +0.000 C 
BRANCH   4   3
ATOM      1  O   UNL     1       2.546   2.319   0.787  0.00  0.00    +0.000 OA
ATOM      2  C   UNL     1       3.045   1.232   0.509  0.00  0.00    +0.000 C 
ATOM      3  N   UNL     1       2.829   0.108   1.258  0.00  0.00    +0.000 N 
ATOM     33  H   UNL     1       3.403  -0.714   1.101  0.00  0.00    +0.000 HD
BRANCH   2  23
ATOM     23  C   UNL     1       3.874   1.064  -0.693  0.00  0.00    +0.000 A 
ATOM     24  C   UNL     1       3.757   1.973  -1.736  0.00  0.00    +0.000 A 
ATOM     25  S   UNL     1       4.780   1.636  -3.056  0.00  0.00    +0.000 S 
ATOM     26  C   UNL     1       5.450   0.286  -2.262  0.00  0.00    +0.000 A 
ATOM     27  N   UNL     1       6.436  -0.446  -2.845  0.00  0.00    +0.000 NA
ATOM     28  C   UNL     1       6.882  -1.415  -2.116  0.00  0.00    +0.000 A 
ATOM     29  N   UNL     1       6.418  -1.725  -0.865  0.00  0.00    +0.000 N 
ATOM     30  C   UNL     1       5.368  -1.065  -0.271  0.00  0.00    +0.000 A 
ATOM     31  O   UNL     1       4.886  -1.463   0.784  0.00  0.00    +0.000 OA
ATOM     32  C   UNL     1       4.872   0.073  -1.024  0.00  0.00    +0.000 A 
ATOM     35  H   UNL     1       6.784  -2.521  -0.362  0.00  0.00    +0.000 HD
ENDBRANCH   2  23
ENDBRANCH   4   3
ENDBRANCH   5   4
BRANCH   8   9
ATOM      9  C   UNL     1       5.761   0.611   6.993  0.00  0.00    +0.000 C 
BRANCH   9  10
ATOM     10  N   UNL     1       5.246   1.291   8.187  0.00  0.00    +0.000 NA
ATOM     34  H   UNL     1       4.384   0.830   8.477  0.00  0.00    +0.000 HD
BRANCH  10  11
ATOM     11  C   UNL     1       6.203   1.320   9.313  0.00  0.00    +0.000 C 
ATOM     12  C   UNL     1       7.482   2.116   8.940  0.00  0.00    +0.000 C 
ATOM     13  C   UNL     1       8.461   2.163  10.123  0.00  0.00    +0.000 C 
ATOM     14  C   UNL     1       7.789   2.869  11.308  0.00  0.00    +0.000 C 
ATOM     15  C   UNL     1       6.521   2.106  11.721  0.00  0.00    +0.000 C 
ATOM     16  C   UNL     1       6.912   0.680  12.140  0.00  0.00    +0.000 C 
ATOM     17  C   UNL     1       7.577  -0.045  10.963  0.00  0.00    +0.000 C 
ATOM     18  C   UNL     1       8.833   0.725  10.521  0.00  0.00    +0.000 C 
ATOM     19  C   UNL     1       6.592  -0.107   9.788  0.00  0.00    +0.000 C 
ATOM     20  C   UNL     1       5.544   2.044  10.525  0.00  0.00    +0.000 C 
ENDBRANCH  10  11
ENDBRANCH   9  10
ENDBRANCH   8   9
TORSDOF 6
