REMARK  Name = 
REMARK  2 active torsions:
REMARK  status: ('A' for Active; 'I' for Inactive)
REMARK    1  A    between atoms: C_2  and  C_4
REMARK    2  A    between atoms: N_8  and  C_9
REMARK                            x       y       z     vdW  Elec       q    Type
REMARK                         _______ _______ _______ _____ _____    ______ ____
ROOT
ATOM      4  C   UNL     1       3.292  -1.255   0.177  0.00  0.00    +0.000 A 
ATOM      5  C   UNL     1       3.849  -1.161   1.448  0.00  0.00    +0.000 A 
ATOM      6  C   UNL     1       4.584  -2.237   1.943  0.00  0.00    +0.000 A 
ATOM      7  C   UNL     1       4.723  -3.401   1.184  0.00  0.00    +0.000 A 
ATOM      8  N   UNL     1       5.436  -4.447   1.763  0.00  0.00    +0.000 N 
ATOM     14  N   UNL     1       4.167  -3.516  -0.036  0.00  0.00    +0.000 NA
ATOM     15  C   UNL     1       3.473  -2.446  -0.515  0.00  0.00    +0.000 A 
ATOM     18  H   UNL     1       6.388  -4.160   1.965  0.00  0.00    +0.000 HD
ENDROOT
BRANCH   4   2
ATOM      1  N   UNL     1       2.705   1.103   0.028  0.00  0.00    +0.000 N 
ATOM      2  C   UNL     1       2.502  -0.170  -0.438  0.00  0.00    +0.000 C 
ATOM      3  O   UNL     1       1.713  -0.386  -1.348  0.00  0.00    +0.000 OA
ATOM     16  H   UNL     1       2.222   1.847  -0.459  0.00  0.00    +0.000 HD
ATOM     17  H   UNL     1       3.481   1.358   0.617  0.00  0.00    +0.000 HD
ENDBRANCH   4   2
BRANCH   8   9
ATOM      9  C   UNL     1       5.324  -5.789   1.215  0.00  0.00    +0.000 C 
ATOM     10  C   UNL     1       5.831  -6.769   2.280  0.00  0.00    +0.000 C 
ATOM     11  C   UNL     1       6.375  -7.976   1.529  0.00  0.00    +0.000 C 
ATOM     12  C   UNL     1       6.471  -7.564   0.065  0.00  0.00    +0.000 C 
ATOM     13  C   UNL     1       6.245  -6.056   0.031  0.00  0.00    +0.000 C 
ENDBRANCH   8   9
TORSDOF 2
