REMARK  Name = 
REMARK  1 active torsions:
REMARK  status: ('A' for Active; 'I' for Inactive)
REMARK    1  A    between atoms: C_2  and  C_4
REMARK                            x       y       z     vdW  Elec       q    Type
REMARK                         _______ _______ _______ _____ _____    ______ ____
ROOT
ATOM      4  C   UNL     1       3.203  -1.084  -0.530  0.00  0.00    +0.000 A 
ATOM      5  C   UNL     1       2.762  -1.706  -1.703  0.00  0.00    +0.000 A 
ATOM      6  C   UNL     1       3.460  -2.788  -2.252  0.00  0.00    +0.000 A 
ATOM      7  C   UNL     1       4.615  -3.216  -1.588  0.00  0.00    +0.000 A 
ATOM      8  N   UNL     1       5.495  -4.226  -1.903  0.00  0.00    +0.000 N 
ATOM      9  C   UNL     1       6.498  -4.288  -0.971  0.00  0.00    +0.000 A 
ATOM     10  C   UNL     1       6.265  -3.305  -0.037  0.00  0.00    +0.000 A 
ATOM     11  C   UNL     1       5.081  -2.615  -0.419  0.00  0.00    +0.000 A 
ATOM     12  C   UNL     1       4.367  -1.528   0.118  0.00  0.00    +0.000 A 
ATOM     15  H   UNL     1       5.415  -4.828  -2.711  0.00  0.00    +0.000 HD
ENDROOT
BRANCH   4   2
ATOM      1  N   UNL     1       1.136   0.151  -0.174  0.00  0.00    +0.000 N 
ATOM      2  C   UNL     1       2.483   0.079   0.048  0.00  0.00    +0.000 C 
ATOM      3  O   UNL     1       3.055   0.923   0.726  0.00  0.00    +0.000 OA
ATOM     13  H   UNL     1       0.642   0.885   0.319  0.00  0.00    +0.000 HD
ATOM     14  H   UNL     1       0.601  -0.645  -0.488  0.00  0.00    +0.000 HD
ENDBRANCH   4   2
TORSDOF 1
