REMARK  Name = 
REMARK  9 active torsions:
REMARK  status: ('A' for Active; 'I' for Inactive)
REMARK    1  A    between atoms: C_1  and  C_2
REMARK    2  A    between atoms: C_2  and  C_3
REMARK    3  A    between atoms: C_3  and  C_4
REMARK    4  A    between atoms: C_4  and  N_5
REMARK    5  A    between atoms: N_5  and  C_6
REMARK    6  A    between atoms: C_6  and  C_7
REMARK    7  A    between atoms: C_10  and  C_11
REMARK    8  A    between atoms: C_11  and  N_12
REMARK    9  A    between atoms: C_13  and  C_15
REMARK                            x       y       z     vdW  Elec       q    Type
REMARK                         _______ _______ _______ _____ _____    ______ ____
ROOT
ATOM     12  N   UNL     1       7.101  -0.430   9.387  0.00  0.00    +0.000 N 
ATOM     13  C   UNL     1       7.337  -0.505  10.742  0.00  0.00    +0.000 C 
ATOM     14  O   UNL     1       8.449  -0.594  11.216  0.00  0.00    +0.000 OA
ATOM     28  H   UNL     1       6.167  -0.677   9.065  0.00  0.00    +0.000 HD
ENDROOT
BRANCH  13  15
ATOM     15  C   UNL     1       6.133  -0.430  11.590  0.00  0.00    +0.000 A 
ATOM     16  C   UNL     1       6.196   0.122  12.863  0.00  0.00    +0.000 A 
ATOM     17  S   UNL     1       4.717   0.031  13.715  0.00  0.00    +0.000 S 
ATOM     18  C   UNL     1       3.944  -0.739  12.408  0.00  0.00    +0.000 A 
ATOM     19  N   UNL     1       2.645  -1.138  12.484  0.00  0.00    +0.000 NA
ATOM     20  C   UNL     1       2.195  -1.697  11.409  0.00  0.00    +0.000 A 
ATOM     21  N   UNL     1       2.923  -1.887  10.264  0.00  0.00    +0.000 N 
ATOM     22  C   UNL     1       4.231  -1.505  10.143  0.00  0.00    +0.000 A 
ATOM     23  O   UNL     1       4.844  -1.659   9.091  0.00  0.00    +0.000 OA
ATOM     24  C   UNL     1       4.793  -0.889  11.328  0.00  0.00    +0.000 A 
ATOM     29  H   UNL     1       2.506  -2.293   9.440  0.00  0.00    +0.000 HD
ENDBRANCH  13  15
BRANCH  12  11
ATOM     11  C   UNL     1       8.158  -0.478   8.408  0.00  0.00    +0.000 C 
BRANCH  11  10
ATOM      7  C   UNL     1       6.945  -0.294   4.246  0.00  0.00    +0.000 A 
ATOM      8  C   UNL     1       7.168   0.880   4.968  0.00  0.00    +0.000 A 
ATOM      9  C   UNL     1       7.528   0.829   6.313  0.00  0.00    +0.000 A 
ATOM     10  C   UNL     1       7.676  -0.401   6.973  0.00  0.00    +0.000 A 
ATOM     25  C   UNL     1       7.406  -1.575   6.254  0.00  0.00    +0.000 A 
ATOM     26  C   UNL     1       7.091  -1.525   4.893  0.00  0.00    +0.000 A 
BRANCH   7   6
ATOM      6  C   UNL     1       6.475  -0.205   2.822  0.00  0.00    +0.000 C 
BRANCH   6   5
ATOM      5  N   UNL     1       7.428   0.553   2.020  0.00  0.00    +0.000 NA
ATOM     27  H   UNL     1       7.549   1.480   2.424  0.00  0.00    +0.000 HD
BRANCH   5   4
ATOM      4  C   UNL     1       6.961   0.662   0.649  0.00  0.00    +0.000 C 
BRANCH   4   3
ATOM      3  C   UNL     1       7.970   1.448  -0.178  0.00  0.00    +0.000 C 
BRANCH   3   2
ATOM      1  C   UNL     1       8.479   2.339  -2.464  0.00  0.00    +0.000 C 
ATOM      2  C   UNL     1       7.488   1.559  -1.621  0.00  0.00    +0.000 C 
ENDBRANCH   3   2
ENDBRANCH   4   3
ENDBRANCH   5   4
ENDBRANCH   6   5
ENDBRANCH   7   6
ENDBRANCH  11  10
ENDBRANCH  12  11
TORSDOF 8
