REMARK  Name = 
REMARK  10 active torsions:
REMARK  status: ('A' for Active; 'I' for Inactive)
REMARK    1  A    between atoms: C_1  and  C_2
REMARK    2  A    between atoms: C_2  and  C_3
REMARK    3  A    between atoms: C_3  and  C_4
REMARK    4  A    between atoms: C_4  and  C_5
REMARK    5  A    between atoms: C_5  and  N_6
REMARK    6  A    between atoms: N_6  and  C_7
REMARK    7  A    between atoms: C_7  and  C_8
REMARK    8  A    between atoms: C_11  and  C_12
REMARK    9  A    between atoms: C_12  and  N_13
REMARK   10  A    between atoms: C_14  and  C_16
REMARK                            x       y       z     vdW  Elec       q    Type
REMARK                         _______ _______ _______ _____ _____    ______ ____
ROOT
ATOM     12  C   UNL     1      12.943   4.326  -0.053  0.00  0.00    +0.000 C 
ENDROOT
BRANCH  12  11
ATOM      8  C   UNL     1       8.617   4.190  -0.165  0.00  0.00    +0.000 A 
ATOM      9  C   UNL     1       9.294   5.420  -0.160  0.00  0.00    +0.000 A 
ATOM     10  C   UNL     1      10.690   5.466  -0.131  0.00  0.00    +0.000 A 
ATOM     11  C   UNL     1      11.440   4.285  -0.098  0.00  0.00    +0.000 A 
ATOM     26  C   UNL     1      10.765   3.058  -0.058  0.00  0.00    +0.000 A 
ATOM     27  C   UNL     1       9.370   3.010  -0.100  0.00  0.00    +0.000 A 
BRANCH   8   7
ATOM      7  C   UNL     1       7.106   4.135  -0.212  0.00  0.00    +0.000 C 
BRANCH   7   6
ATOM      6  N   UNL     1       6.588   4.730  -1.445  0.00  0.00    +0.000 NA
ATOM     28  H   UNL     1       6.925   5.687  -1.524  0.00  0.00    +0.000 HD
BRANCH   6   5
ATOM      5  C   UNL     1       5.128   4.721  -1.469  0.00  0.00    +0.000 C 
BRANCH   5   4
ATOM      4  C   UNL     1       4.639   5.402  -2.749  0.00  0.00    +0.000 C 
BRANCH   4   3
ATOM      3  C   UNL     1       3.111   5.402  -2.824  0.00  0.00    +0.000 C 
BRANCH   3   2
ATOM      1  C   UNL     1       1.098   6.068  -4.179  0.00  0.00    +0.000 C 
ATOM      2  C   UNL     1       2.617   6.074  -4.104  0.00  0.00    +0.000 C 
ENDBRANCH   3   2
ENDBRANCH   4   3
ENDBRANCH   5   4
ENDBRANCH   6   5
ENDBRANCH   7   6
ENDBRANCH   8   7
ENDBRANCH  12  11
BRANCH  12  13
ATOM     13  N   UNL     1      13.415   4.361   1.308  0.00  0.00    +0.000 N 
ATOM     14  C   UNL     1      14.747   4.496   1.595  0.00  0.00    +0.000 C 
ATOM     15  O   UNL     1      15.593   4.632   0.713  0.00  0.00    +0.000 OA
ATOM     29  H   UNL     1      12.775   4.034   2.024  0.00  0.00    +0.000 HD
BRANCH  14  16
ATOM     16  C   UNL     1      15.112   4.529   3.016  0.00  0.00    +0.000 A 
ATOM     17  C   UNL     1      16.310   5.115   3.401  0.00  0.00    +0.000 A 
ATOM     18  S   UNL     1      16.558   5.124   5.088  0.00  0.00    +0.000 S 
ATOM     19  C   UNL     1      15.096   4.300   5.362  0.00  0.00    +0.000 A 
ATOM     20  N   UNL     1      14.706   3.969   6.623  0.00  0.00    +0.000 NA
ATOM     21  C   UNL     1      13.591   3.321   6.685  0.00  0.00    +0.000 A 
ATOM     22  N   UNL     1      12.828   2.978   5.601  0.00  0.00    +0.000 N 
ATOM     23  C   UNL     1      13.169   3.312   4.311  0.00  0.00    +0.000 A 
ATOM     24  O   UNL     1      12.444   3.018   3.366  0.00  0.00    +0.000 OA
ATOM     25  C   UNL     1      14.420   4.034   4.184  0.00  0.00    +0.000 A 
ATOM     30  H   UNL     1      11.959   2.476   5.716  0.00  0.00    +0.000 HD
ENDBRANCH  14  16
ENDBRANCH  12  13
TORSDOF 9
