REMARK  Name = 
REMARK  5 active torsions:
REMARK  status: ('A' for Active; 'I' for Inactive)
REMARK    1  A    between atoms: N_1  and  C_2
REMARK    2  A    between atoms: C_2  and  C_3
REMARK    3  A    between atoms: C_7  and  C_8
REMARK    4  A    between atoms: C_8  and  N_9
REMARK    5  A    between atoms: C_13  and  C_14
REMARK                            x       y       z     vdW  Elec       q    Type
REMARK                         _______ _______ _______ _____ _____    ______ ____
ROOT
ATOM      9  N   UNL     1       3.552   2.781   5.380  0.00  0.00    +0.000 N 
ATOM     10  C   UNL     1       3.633   2.533   6.760  0.00  0.00    +0.000 A 
ATOM     11  C   UNL     1       3.713   3.614   7.634  0.00  0.00    +0.000 A 
ATOM     12  C   UNL     1       3.796   3.385   9.011  0.00  0.00    +0.000 A 
ATOM     13  C   UNL     1       3.800   2.077   9.496  0.00  0.00    +0.000 A 
ATOM     17  C   UNL     1       3.742   1.062   8.557  0.00  0.00    +0.000 A 
ATOM     18  N   UNL     1       3.665   1.264   7.218  0.00  0.00    +0.000 NA
ATOM     22  H   UNL     1       2.767   3.399   5.195  0.00  0.00    +0.000 HD
ENDROOT
BRANCH  13  14
ATOM     14  C   UNL     1       3.859   1.836  10.958  0.00  0.00    +0.000 C 
ATOM     15  N   UNL     1       3.844   0.551  11.423  0.00  0.00    +0.000 N 
ATOM     16  O   UNL     1       3.910   2.771  11.751  0.00  0.00    +0.000 OA
ATOM     23  H   UNL     1       3.795  -0.287  10.865  0.00  0.00    +0.000 HD
ATOM     24  H   UNL     1       3.871   0.435  12.429  0.00  0.00    +0.000 HD
ENDBRANCH  13  14
BRANCH   9   8
ATOM      8  C   UNL     1       3.462   1.559   4.588  0.00  0.00    +0.000 C 
BRANCH   8   7
ATOM      3  C   UNL     1       4.351   2.757   1.063  0.00  0.00    +0.000 A 
ATOM      4  C   UNL     1       3.240   2.292   0.343  0.00  0.00    +0.000 A 
ATOM      5  C   UNL     1       2.192   1.644   0.994  0.00  0.00    +0.000 A 
ATOM      6  C   UNL     1       2.248   1.436   2.372  0.00  0.00    +0.000 A 
ATOM      7  C   UNL     1       3.351   1.879   3.114  0.00  0.00    +0.000 A 
ATOM     19  C   UNL     1       4.391   2.550   2.450  0.00  0.00    +0.000 A 
BRANCH   3   2
ATOM      2  C   UNL     1       5.507   3.411   0.351  0.00  0.00    +0.000 C 
BRANCH   2   1
ATOM      1  N   UNL     1       5.082   4.567  -0.431  0.00  0.00    +0.000 NA
ATOM     20  H   UNL     1       5.907   5.050  -0.779  0.00  0.00    +0.000 HD
ATOM     21  H   UNL     1       4.607   5.219   0.191  0.00  0.00    +0.000 HD
ENDBRANCH   2   1
ENDBRANCH   3   2
ENDBRANCH   8   7
ENDBRANCH   9   8
TORSDOF 5
