REMARK  Name = 
REMARK  5 active torsions:
REMARK  status: ('A' for Active; 'I' for Inactive)
REMARK    1  A    between atoms: C_2  and  C_4
REMARK    2  A    between atoms: N_8  and  C_9
REMARK    3  A    between atoms: C_9  and  C_10
REMARK    4  A    between atoms: C_14  and  N_15
REMARK    5  A    between atoms: C_19  and  C_20
REMARK                            x       y       z     vdW  Elec       q    Type
REMARK                         _______ _______ _______ _____ _____    ______ ____
ROOT
ATOM     10  C   UNL     1       5.897   6.110   3.772  0.00  0.00    +0.000 A 
ATOM     11  C   UNL     1       5.563   7.438   3.486  0.00  0.00    +0.000 A 
ATOM     12  C   UNL     1       6.334   8.476   3.996  0.00  0.00    +0.000 A 
ATOM     13  C   UNL     1       7.438   8.191   4.806  0.00  0.00    +0.000 A 
ATOM     14  C   UNL     1       7.818   6.874   5.106  0.00  0.00    +0.000 A 
ATOM     25  C   UNL     1       7.047   5.846   4.539  0.00  0.00    +0.000 A 
ENDROOT
BRANCH  14  15
ATOM     15  N   UNL     1       8.884   6.615   5.946  0.00  0.00    +0.000 N 
ATOM     16  C   UNL     1       9.715   5.412   5.821  0.00  0.00    +0.000 C 
ATOM     17  C   UNL     1       9.633   4.564   7.104  0.00  0.00    +0.000 C 
ATOM     18  N   UNL     1       9.967   5.315   8.328  0.00  0.00    +0.000 NA
ATOM     19  C   UNL     1       9.081   6.528   8.442  0.00  0.00    +0.000 C 
ATOM     24  C   UNL     1       9.099   7.417   7.167  0.00  0.00    +0.000 C 
ATOM     31  H   UNL     1      10.935   5.638   8.266  0.00  0.00    +0.000 HD
BRANCH  19  20
ATOM     20  C   UNL     1       9.374   7.430   9.672  0.00  0.00    +0.000 C 
ATOM     21  F   UNL     1      10.401   6.951  10.416  0.00  0.00    +0.000 F 
ATOM     22  F   UNL     1       9.709   8.693   9.320  0.00  0.00    +0.000 F 
ATOM     23  F   UNL     1       8.295   7.514  10.485  0.00  0.00    +0.000 F 
ENDBRANCH  19  20
ENDBRANCH  14  15
BRANCH  10   9
ATOM      9  C   UNL     1       4.971   4.987   3.374  0.00  0.00    +0.000 C 
BRANCH   9   8
ATOM      4  C   UNL     1       2.961   1.405   0.433  0.00  0.00    +0.000 A 
ATOM      5  C   UNL     1       2.362   2.216   1.386  0.00  0.00    +0.000 A 
ATOM      6  C   UNL     1       3.091   3.272   1.936  0.00  0.00    +0.000 A 
ATOM      7  C   UNL     1       4.407   3.501   1.535  0.00  0.00    +0.000 A 
ATOM      8  N   UNL     1       5.140   4.595   1.990  0.00  0.00    +0.000 N 
ATOM     26  N   UNL     1       5.006   2.705   0.628  0.00  0.00    +0.000 NA
ATOM     27  C   UNL     1       4.281   1.672   0.104  0.00  0.00    +0.000 A 
ATOM     30  H   UNL     1       6.101   4.499   1.672  0.00  0.00    +0.000 HD
BRANCH   4   2
ATOM      1  N   UNL     1       0.884   0.390  -0.316  0.00  0.00    +0.000 N 
ATOM      2  C   UNL     1       2.244   0.285  -0.211  0.00  0.00    +0.000 C 
ATOM      3  O   UNL     1       2.844  -0.687  -0.655  0.00  0.00    +0.000 OA
ATOM     28  H   UNL     1       0.407  -0.338  -0.830  0.00  0.00    +0.000 HD
ATOM     29  H   UNL     1       0.394   1.270  -0.193  0.00  0.00    +0.000 HD
ENDBRANCH   4   2
ENDBRANCH   9   8
ENDBRANCH  10   9
TORSDOF 5
