REMARK  Name = 
REMARK  6 active torsions:
REMARK  status: ('A' for Active; 'I' for Inactive)
REMARK    1  A    between atoms: C_1  and  C_2
REMARK    2  A    between atoms: C_2  and  C_3
REMARK    3  A    between atoms: C_2  and  C_4
REMARK    4  A    between atoms: C_2  and  C_15
REMARK    5  A    between atoms: C_4  and  N_5
REMARK    6  A    between atoms: C_9  and  C_10
REMARK                            x       y       z     vdW  Elec       q    Type
REMARK                         _______ _______ _______ _____ _____    ______ ____
ROOT
ATOM      5  N   UNL     1       2.551   1.425   2.030  0.00  0.00    +0.000 N 
ATOM      6  C   UNL     1       3.036   2.603   2.625  0.00  0.00    +0.000 A 
ATOM      7  C   UNL     1       2.654   2.894   3.931  0.00  0.00    +0.000 A 
ATOM      8  C   UNL     1       3.132   4.054   4.551  0.00  0.00    +0.000 A 
ATOM      9  C   UNL     1       3.987   4.910   3.852  0.00  0.00    +0.000 A 
ATOM     13  C   UNL     1       4.291   4.557   2.550  0.00  0.00    +0.000 A 
ATOM     14  N   UNL     1       3.834   3.441   1.929  0.00  0.00    +0.000 NA
ATOM     21  H   UNL     1       2.784   0.634   2.627  0.00  0.00    +0.000 HD
ENDROOT
BRANCH   9  10
ATOM     10  C   UNL     1       4.519   6.116   4.523  0.00  0.00    +0.000 C 
ATOM     11  N   UNL     1       5.372   6.936   3.836  0.00  0.00    +0.000 N 
ATOM     12  O   UNL     1       4.217   6.383   5.682  0.00  0.00    +0.000 OA
ATOM     22  H   UNL     1       5.698   6.810   2.893  0.00  0.00    +0.000 HD
ATOM     23  H   UNL     1       5.724   7.743   4.345  0.00  0.00    +0.000 HD
ENDBRANCH   9  10
BRANCH   5   4
ATOM      4  C   UNL     1       3.027   1.221   0.657  0.00  0.00    +0.000 C 
BRANCH   4   2
ATOM      1  C   UNL     1       0.940  -0.002  -0.070  0.00  0.00    +0.000 C 
ATOM      2  C   UNL     1       2.482  -0.096   0.025  0.00  0.00    +0.000 C 
ATOM      3  C   UNL     1       3.011  -0.161  -1.431  0.00  0.00    +0.000 C 
BRANCH   2  15
ATOM     15  C   UNL     1       2.959  -1.353   0.785  0.00  0.00    +0.000 A 
ATOM     16  C   UNL     1       2.054  -2.256   1.376  0.00  0.00    +0.000 A 
ATOM     17  C   UNL     1       2.493  -3.432   1.993  0.00  0.00    +0.000 A 
ATOM     18  C   UNL     1       3.848  -3.729   2.044  0.00  0.00    +0.000 A 
ATOM     19  C   UNL     1       4.767  -2.839   1.497  0.00  0.00    +0.000 A 
ATOM     20  C   UNL     1       4.328  -1.663   0.878  0.00  0.00    +0.000 A 
ENDBRANCH   2  15
ENDBRANCH   4   2
ENDBRANCH   5   4
TORSDOF 4
