REMARK  Name = 
REMARK  8 active torsions:
REMARK  status: ('A' for Active; 'I' for Inactive)
REMARK    1  A    between atoms: C_2  and  C_24
REMARK    2  A    between atoms: N_3  and  C_4
REMARK    3  A    between atoms: C_4  and  C_5
REMARK    4  A    between atoms: C_8  and  C_9
REMARK    5  A    between atoms: C_9  and  N_10
REMARK    6  A    between atoms: C_11  and  C_13
REMARK    7  A    between atoms: C_17  and  O_18
REMARK    8  A    between atoms: N_20  and  O_21
REMARK                            x       y       z     vdW  Elec       q    Type
REMARK                         _______ _______ _______ _____ _____    ______ ____
ROOT
ATOM      5  C   UNL     1       3.303   1.788  -3.297  0.00  0.00    +0.000 A 
ATOM      6  C   UNL     1       3.284   3.173  -3.501  0.00  0.00    +0.000 A 
ATOM      7  C   UNL     1       4.175   3.773  -4.396  0.00  0.00    +0.000 A 
ATOM      8  C   UNL     1       5.089   2.997  -5.122  0.00  0.00    +0.000 A 
ATOM     22  C   UNL     1       5.120   1.613  -4.905  0.00  0.00    +0.000 A 
ATOM     23  C   UNL     1       4.228   1.014  -4.011  0.00  0.00    +0.000 A 
ENDROOT
BRANCH   8   9
ATOM      9  C   UNL     1       6.031   3.634  -6.111  0.00  0.00    +0.000 C 
BRANCH   9  10
ATOM     10  N   UNL     1       7.264   4.033  -5.485  0.00  0.00    +0.000 N 
ATOM     11  C   UNL     1       8.327   4.520  -6.193  0.00  0.00    +0.000 C 
ATOM     12  O   UNL     1       8.317   4.625  -7.415  0.00  0.00    +0.000 OA
ATOM     35  H   UNL     1       7.354   3.977  -4.475  0.00  0.00    +0.000 HD
BRANCH  11  13
ATOM     13  C   UNL     1       9.528   4.908  -5.360  0.00  0.00    +0.000 A 
ATOM     14  C   UNL     1      10.661   5.115  -6.065  0.00  0.00    +0.000 A 
ATOM     15  C   UNL     1      11.901   5.465  -5.333  0.00  0.00    +0.000 A 
ATOM     16  O   UNL     1      12.978   5.622  -5.902  0.00  0.00    +0.000 OA
ATOM     17  C   UNL     1      11.823   5.605  -3.850  0.00  0.00    +0.000 A 
ATOM     19  C   UNL     1      10.637   5.383  -3.272  0.00  0.00    +0.000 A 
ATOM     20  N   UNL     1       9.491   5.045  -3.965  0.00  0.00    +0.000 N 
BRANCH  17  18
ATOM     18  O   UNL     1      12.958   5.919  -3.136  0.00  0.00    +0.000 OA
ATOM     36  H   UNL     1      13.674   5.963  -3.806  0.00  0.00    +0.000 HD
ENDBRANCH  17  18
BRANCH  20  21
ATOM     21  O   UNL     1       8.379   4.654  -3.224  0.00  0.00    +0.000 OA
ATOM     37  H   UNL     1       8.188   5.435  -2.671  0.00  0.00    +0.000 HD
ENDBRANCH  20  21
ENDBRANCH  11  13
ENDBRANCH   9  10
ENDBRANCH   8   9
BRANCH   5   4
ATOM      4  C   UNL     1       2.291   1.134  -2.392  0.00  0.00    +0.000 C 
BRANCH   4   3
ATOM      1  O   UNL     1      -0.111   0.211  -1.301  0.00  0.00    +0.000 OA
ATOM      2  C   UNL     1       0.025   0.207  -2.521  0.00  0.00    +0.000 C 
ATOM      3  N   UNL     1       1.109   0.776  -3.135  0.00  0.00    +0.000 N 
ATOM     34  H   UNL     1       1.221   0.689  -4.141  0.00  0.00    +0.000 HD
BRANCH   2  24
ATOM     24  C   UNL     1      -0.946  -0.462  -3.395  0.00  0.00    +0.000 A 
ATOM     25  C   UNL     1      -2.242  -0.703  -2.960  0.00  0.00    +0.000 A 
ATOM     26  S   UNL     1      -3.147  -1.674  -4.035  0.00  0.00    +0.000 S 
ATOM     27  C   UNL     1      -1.800  -1.888  -5.053  0.00  0.00    +0.000 A 
ATOM     28  N   UNL     1      -1.810  -2.799  -6.063  0.00  0.00    +0.000 NA
ATOM     29  C   UNL     1      -0.690  -2.899  -6.698  0.00  0.00    +0.000 A 
ATOM     30  N   UNL     1       0.410  -2.112  -6.478  0.00  0.00    +0.000 N 
ATOM     31  C   UNL     1       0.414  -1.096  -5.555  0.00  0.00    +0.000 A 
ATOM     32  O   UNL     1       1.321  -0.272  -5.514  0.00  0.00    +0.000 OA
ATOM     33  C   UNL     1      -0.744  -1.076  -4.685  0.00  0.00    +0.000 A 
ATOM     38  H   UNL     1       1.217  -2.171  -7.081  0.00  0.00    +0.000 HD
ENDBRANCH   2  24
ENDBRANCH   4   3
ENDBRANCH   5   4
TORSDOF 8
