REMARK  Name = 
REMARK  6 active torsions:
REMARK  status: ('A' for Active; 'I' for Inactive)
REMARK    1  A    between atoms: C_1  and  N_2
REMARK    2  A    between atoms: N_2  and  C_21
REMARK    3  A    between atoms: C_3  and  C_5
REMARK    4  A    between atoms: C_5  and  N_6
REMARK    5  A    between atoms: C_7  and  C_8
REMARK    6  A    between atoms: C_14  and  C_15
REMARK                            x       y       z     vdW  Elec       q    Type
REMARK                         _______ _______ _______ _____ _____    ______ ____
ROOT
ATOM      6  N   UNL     1       3.453  -2.242   2.961  0.00  0.00    +0.000 N 
ATOM      7  C   UNL     1       3.443  -3.525   3.498  0.00  0.00    +0.000 A 
ATOM     11  C   UNL     1       4.527  -3.625   4.350  0.00  0.00    +0.000 A 
ATOM     12  C   UNL     1       5.131  -2.359   4.447  0.00  0.00    +0.000 A 
ATOM     13  C   UNL     1       6.200  -1.848   5.200  0.00  0.00    +0.000 A 
ATOM     14  C   UNL     1       6.517  -0.502   5.045  0.00  0.00    +0.000 A 
ATOM     18  C   UNL     1       5.739   0.260   4.175  0.00  0.00    +0.000 A 
ATOM     19  N   UNL     1       4.660  -0.178   3.468  0.00  0.00    +0.000 NA
ATOM     20  C   UNL     1       4.428  -1.500   3.613  0.00  0.00    +0.000 A 
ENDROOT
BRANCH  14  15
ATOM     15  C   UNL     1       7.646   0.141   5.763  0.00  0.00    +0.000 C 
ATOM     16  N   UNL     1       8.368  -0.605   6.651  0.00  0.00    +0.000 N 
ATOM     17  O   UNL     1       7.926   1.315   5.572  0.00  0.00    +0.000 OA
ATOM     27  H   UNL     1       8.197  -1.570   6.890  0.00  0.00    +0.000 HD
ATOM     28  H   UNL     1       9.127  -0.136   7.128  0.00  0.00    +0.000 HD
ENDBRANCH  14  15
BRANCH   7   8
ATOM      8  C   UNL     1       2.511  -4.731   3.405  0.00  0.00    +0.000 C 
ATOM      9  C   UNL     1       1.644  -5.107   2.240  0.00  0.00    +0.000 C 
ATOM     10  C   UNL     1       1.020  -4.489   3.447  0.00  0.00    +0.000 C 
ENDBRANCH   7   8
BRANCH   6   5
ATOM      5  C   UNL     1       2.521  -1.664   1.994  0.00  0.00    +0.000 C 
BRANCH   5   3
ATOM      1  C   UNL     1       0.995  -1.659  -0.539  0.00  0.00    +0.000 C 
ATOM      2  N   UNL     1       2.343  -1.106  -0.471  0.00  0.00    +0.000 N 
ATOM      3  C   UNL     1       3.139  -1.116   0.698  0.00  0.00    +0.000 C 
ATOM      4  O   UNL     1       4.284  -0.662   0.658  0.00  0.00    +0.000 OA
BRANCH   2  21
ATOM     21  C   UNL     1       2.929  -0.489  -1.702  0.00  0.00    +0.000 C 
ATOM     22  C   UNL     1       2.588   1.003  -1.861  0.00  0.00    +0.000 C 
ATOM     23  C   UNL     1       1.216   1.234  -2.489  0.00  0.00    +0.000 C 
ATOM     24  N   UNL     1       1.063   0.539  -3.769  0.00  0.00    +0.000 NA
ATOM     25  C   UNL     1       1.309  -0.896  -3.657  0.00  0.00    +0.000 C 
ATOM     26  C   UNL     1       2.656  -1.233  -3.019  0.00  0.00    +0.000 C 
ATOM     29  H   UNL     1       1.714   0.941  -4.444  0.00  0.00    +0.000 HD
ENDBRANCH   2  21
ENDBRANCH   5   3
ENDBRANCH   6   5
TORSDOF 5
