REMARK  Name = 
REMARK  6 active torsions:
REMARK  status: ('A' for Active; 'I' for Inactive)
REMARK    1  A    between atoms: C_2  and  C_19
REMARK    2  A    between atoms: N_3  and  C_4
REMARK    3  A    between atoms: C_4  and  C_5
REMARK    4  A    between atoms: C_8  and  C_9
REMARK    5  A    between atoms: C_9  and  N_10
REMARK    6  A    between atoms: N_10  and  C_11
REMARK                            x       y       z     vdW  Elec       q    Type
REMARK                         _______ _______ _______ _____ _____    ______ ____
ROOT
ATOM      4  C   UNL     1       2.343   0.990  -2.262  0.00  0.00    +0.000 C 
ENDROOT
BRANCH   4   5
ATOM      5  C   UNL     1       3.306   1.450  -3.324  0.00  0.00    +0.000 A 
ATOM      6  C   UNL     1       3.358   2.800  -3.695  0.00  0.00    +0.000 A 
ATOM      7  C   UNL     1       4.243   3.231  -4.686  0.00  0.00    +0.000 A 
ATOM      8  C   UNL     1       5.086   2.320  -5.334  0.00  0.00    +0.000 A 
ATOM     17  C   UNL     1       5.018   0.965  -4.976  0.00  0.00    +0.000 A 
ATOM     18  C   UNL     1       4.132   0.533  -3.986  0.00  0.00    +0.000 A 
BRANCH   8   9
ATOM      9  C   UNL     1       6.028   2.775  -6.425  0.00  0.00    +0.000 C 
BRANCH   9  10
ATOM     10  N   UNL     1       7.023   3.723  -5.924  0.00  0.00    +0.000 NA
ATOM     30  H   UNL     1       7.520   3.299  -5.142  0.00  0.00    +0.000 HD
BRANCH  10  11
ATOM     11  C   UNL     1       7.977   4.172  -6.950  0.00  0.00    +0.000 C 
ATOM     12  C   UNL     1       8.828   3.025  -7.526  0.00  0.00    +0.000 C 
ATOM     13  C   UNL     1       9.905   3.530  -8.482  0.00  0.00    +0.000 C 
ATOM     14  C   UNL     1      10.795   4.572  -7.820  0.00  0.00    +0.000 C 
ATOM     15  C   UNL     1       9.967   5.732  -7.279  0.00  0.00    +0.000 C 
ATOM     16  C   UNL     1       8.880   5.250  -6.319  0.00  0.00    +0.000 C 
ENDBRANCH  10  11
ENDBRANCH   9  10
ENDBRANCH   8   9
ENDBRANCH   4   5
BRANCH   4   3
ATOM      1  O   UNL     1       0.056   2.617  -2.445  0.00  0.00    +0.000 OA
ATOM      2  C   UNL     1       0.031   1.496  -2.944  0.00  0.00    +0.000 C 
ATOM      3  N   UNL     1       1.076   0.617  -2.838  0.00  0.00    +0.000 N 
ATOM     29  H   UNL     1       1.085  -0.210  -3.424  0.00  0.00    +0.000 HD
BRANCH   2  19
ATOM     19  C   UNL     1      -1.164   0.998  -3.640  0.00  0.00    +0.000 A 
ATOM     20  C   UNL     1      -2.401   1.569  -3.377  0.00  0.00    +0.000 A 
ATOM     21  S   UNL     1      -3.682   0.858  -4.251  0.00  0.00    +0.000 S 
ATOM     22  C   UNL     1      -2.620  -0.207  -5.047  0.00  0.00    +0.000 A 
ATOM     23  N   UNL     1      -3.079  -1.088  -5.974  0.00  0.00    +0.000 NA
ATOM     24  C   UNL     1      -2.160  -1.805  -6.533  0.00  0.00    +0.000 A 
ATOM     25  N   UNL     1      -0.825  -1.727  -6.236  0.00  0.00    +0.000 N 
ATOM     26  C   UNL     1      -0.324  -0.906  -5.253  0.00  0.00    +0.000 A 
ATOM     27  O   UNL     1       0.855  -0.962  -4.924  0.00  0.00    +0.000 OA
ATOM     28  C   UNL     1      -1.310  -0.043  -4.631  0.00  0.00    +0.000 A 
ATOM     31  H   UNL     1      -0.158  -2.338  -6.686  0.00  0.00    +0.000 HD
ENDBRANCH   2  19
ENDBRANCH   4   3
TORSDOF 6
