REMARK  Name = 
REMARK  11 active torsions:
REMARK  status: ('A' for Active; 'I' for Inactive)
REMARK    1  A    between atoms: C_1  and  C_2
REMARK    2  A    between atoms: C_2  and  C_3
REMARK    3  A    between atoms: C_3  and  O_4
REMARK    4  A    between atoms: O_4  and  C_5
REMARK    5  A    between atoms: C_12  and  C_13
REMARK    6  A    between atoms: N_15  and  C_16
REMARK    7  A    between atoms: C_16  and  C_17
REMARK    8  A    between atoms: C_20  and  C_21
REMARK    9  A    between atoms: C_21  and  N_22
REMARK   10  A    between atoms: N_22  and  C_23
REMARK   11  A    between atoms: C_23  and  C_24
REMARK                            x       y       z     vdW  Elec       q    Type
REMARK                         _______ _______ _______ _____ _____    ______ ____
ROOT
ATOM     13  C   UNL     1       6.357  -1.930  -1.128  0.00  0.00    +0.000 C 
ATOM     14  O   UNL     1       6.859  -3.024  -0.875  0.00  0.00    +0.000 OA
ATOM     15  N   UNL     1       5.481  -1.340  -0.257  0.00  0.00    +0.000 N 
ATOM     33  H   UNL     1       5.047  -0.456  -0.489  0.00  0.00    +0.000 HD
ENDROOT
BRANCH  13  12
ATOM      5  C   UNL     1       5.271   1.025  -2.541  0.00  0.00    +0.000 A 
ATOM      6  N   UNL     1       5.128   2.172  -3.234  0.00  0.00    +0.000 NA
ATOM      7  C   UNL     1       5.888   2.353  -4.317  0.00  0.00    +0.000 A 
ATOM      8  N   UNL     1       6.789   1.508  -4.813  0.00  0.00    +0.000 NA
ATOM      9  C   UNL     1       6.923   0.394  -4.076  0.00  0.00    +0.000 A 
ATOM     10  S   UNL     1       8.022  -0.804  -4.564  0.00  0.00    +0.000 S 
ATOM     11  C   UNL     1       7.650  -1.764  -3.213  0.00  0.00    +0.000 A 
ATOM     12  C   UNL     1       6.702  -1.204  -2.363  0.00  0.00    +0.000 A 
ATOM     32  C   UNL     1       6.235   0.070  -2.909  0.00  0.00    +0.000 A 
BRANCH   5   4
ATOM      4  O   UNL     1       4.464   0.803  -1.449  0.00  0.00    +0.000 OA
BRANCH   4   3
ATOM      3  C   UNL     1       3.280   1.604  -1.375  0.00  0.00    +0.000 C 
BRANCH   3   2
ATOM      1  C   UNL     1       2.193   3.451  -0.041  0.00  0.00    +0.000 C 
ATOM      2  C   UNL     1       3.439   2.607  -0.240  0.00  0.00    +0.000 C 
ENDBRANCH   3   2
ENDBRANCH   4   3
ENDBRANCH   5   4
ENDBRANCH  13  12
BRANCH  15  16
ATOM     16  C   UNL     1       5.111  -1.968   0.991  0.00  0.00    +0.000 C 
BRANCH  16  17
ATOM     17  C   UNL     1       4.118  -1.124   1.749  0.00  0.00    +0.000 A 
ATOM     18  C   UNL     1       2.742  -1.290   1.546  0.00  0.00    +0.000 A 
ATOM     19  C   UNL     1       1.822  -0.448   2.178  0.00  0.00    +0.000 A 
ATOM     20  C   UNL     1       2.255   0.581   3.027  0.00  0.00    +0.000 A 
ATOM     30  C   UNL     1       3.631   0.727   3.253  0.00  0.00    +0.000 A 
ATOM     31  C   UNL     1       4.552  -0.113   2.617  0.00  0.00    +0.000 A 
BRANCH  20  21
ATOM     21  C   UNL     1       1.264   1.558   3.621  0.00  0.00    +0.000 C 
BRANCH  21  22
ATOM     22  N   UNL     1       0.246   0.880   4.420  0.00  0.00    +0.000 NA
ATOM     34  H   UNL     1       0.698   0.378   5.182  0.00  0.00    +0.000 HD
BRANCH  22  23
ATOM     23  C   UNL     1      -0.712   1.833   4.980  0.00  0.00    +0.000 C 
BRANCH  23  24
ATOM     24  C   UNL     1      -1.777   1.124   5.788  0.00  0.00    +0.000 A 
ATOM     25  C   UNL     1      -1.976   1.422   7.142  0.00  0.00    +0.000 A 
ATOM     26  C   UNL     1      -2.973   0.773   7.875  0.00  0.00    +0.000 A 
ATOM     27  C   UNL     1      -3.784  -0.178   7.258  0.00  0.00    +0.000 A 
ATOM     28  C   UNL     1      -3.599  -0.483   5.911  0.00  0.00    +0.000 A 
ATOM     29  C   UNL     1      -2.602   0.165   5.179  0.00  0.00    +0.000 A 
ENDBRANCH  23  24
ENDBRANCH  22  23
ENDBRANCH  21  22
ENDBRANCH  20  21
ENDBRANCH  16  17
ENDBRANCH  15  16
TORSDOF 10
