REMARK  Name = 
REMARK  7 active torsions:
REMARK  status: ('A' for Active; 'I' for Inactive)
REMARK    1  A    between atoms: C_1  and  C_2
REMARK    2  A    between atoms: C_2  and  C_3
REMARK    3  A    between atoms: C_2  and  C_4
REMARK    4  A    between atoms: C_2  and  C_15
REMARK    5  A    between atoms: C_4  and  N_5
REMARK    6  A    between atoms: C_9  and  C_10
REMARK    7  A    between atoms: C_19  and  N_20
REMARK                            x       y       z     vdW  Elec       q    Type
REMARK                         _______ _______ _______ _____ _____    ______ ____
ROOT
ATOM      1  C   UNL     1       0.954  -0.065  -0.085  0.00  0.00    +0.000 C 
ATOM      2  C   UNL     1       2.498  -0.079  -0.051  0.00  0.00    +0.000 C 
ATOM      3  C   UNL     1       3.006   1.003   0.934  0.00  0.00    +0.000 C 
ENDROOT
BRANCH   2  15
ATOM     15  C   UNL     1       3.039   0.260  -1.462  0.00  0.00    +0.000 A 
ATOM     16  C   UNL     1       2.699   1.480  -2.071  0.00  0.00    +0.000 A 
ATOM     17  C   UNL     1       3.227   1.837  -3.308  0.00  0.00    +0.000 A 
ATOM     18  C   UNL     1       4.130   0.992  -3.948  0.00  0.00    +0.000 A 
ATOM     19  C   UNL     1       4.513  -0.230  -3.388  0.00  0.00    +0.000 A 
ATOM     26  C   UNL     1       3.924  -0.588  -2.164  0.00  0.00    +0.000 A 
BRANCH  19  20
ATOM     20  N   UNL     1       5.457  -1.035  -3.988  0.00  0.00    +0.000 N 
ATOM     21  C   UNL     1       6.613  -0.470  -4.693  0.00  0.00    +0.000 C 
ATOM     22  C   UNL     1       6.670  -1.011  -6.136  0.00  0.00    +0.000 C 
ATOM     23  N   UNL     1       6.666  -2.490  -6.202  0.00  0.00    +0.000 NA
ATOM     24  C   UNL     1       5.467  -2.992  -5.492  0.00  0.00    +0.000 C 
ATOM     25  C   UNL     1       5.344  -2.498  -4.028  0.00  0.00    +0.000 C 
ATOM     30  H   UNL     1       7.487  -2.825  -5.699  0.00  0.00    +0.000 HD
ENDBRANCH  19  20
ENDBRANCH   2  15
BRANCH   2   4
ATOM      4  C   UNL     1       2.993  -1.475   0.452  0.00  0.00    +0.000 C 
BRANCH   4   5
ATOM      5  N   UNL     1       2.548  -1.798   1.801  0.00  0.00    +0.000 N 
ATOM      6  C   UNL     1       2.925  -2.988   2.390  0.00  0.00    +0.000 A 
ATOM      7  C   UNL     1       4.138  -3.621   2.145  0.00  0.00    +0.000 A 
ATOM      8  C   UNL     1       4.460  -4.784   2.849  0.00  0.00    +0.000 A 
ATOM      9  C   UNL     1       3.577  -5.282   3.803  0.00  0.00    +0.000 A 
ATOM     13  C   UNL     1       2.393  -4.590   3.982  0.00  0.00    +0.000 A 
ATOM     14  N   UNL     1       2.050  -3.471   3.292  0.00  0.00    +0.000 NA
ATOM     27  H   UNL     1       1.560  -1.668   2.007  0.00  0.00    +0.000 HD
BRANCH   9  10
ATOM     10  C   UNL     1       3.959  -6.490   4.572  0.00  0.00    +0.000 C 
ATOM     11  N   UNL     1       3.111  -6.964   5.533  0.00  0.00    +0.000 N 
ATOM     12  O   UNL     1       5.023  -7.063   4.363  0.00  0.00    +0.000 OA
ATOM     28  H   UNL     1       2.229  -6.555   5.806  0.00  0.00    +0.000 HD
ATOM     29  H   UNL     1       3.426  -7.776   6.048  0.00  0.00    +0.000 HD
ENDBRANCH   9  10
ENDBRANCH   4   5
ENDBRANCH   2   4
TORSDOF 5
