REMARK  Name = 
REMARK  2 active torsions:
REMARK  status: ('A' for Active; 'I' for Inactive)
REMARK    1  A    between atoms: C_2  and  C_4
REMARK    2  A    between atoms: C_7  and  N_8
REMARK                            x       y       z     vdW  Elec       q    Type
REMARK                         _______ _______ _______ _____ _____    ______ ____
ROOT
ATOM      4  C   UNL     1       3.161  -0.703  -1.210  0.00  0.00    +0.000 A 
ATOM      5  C   UNL     1       2.787  -0.352  -2.499  0.00  0.00    +0.000 A 
ATOM      6  C   UNL     1       3.455  -0.948  -3.568  0.00  0.00    +0.000 A 
ATOM      7  C   UNL     1       4.443  -1.903  -3.332  0.00  0.00    +0.000 A 
ATOM      9  C   UNL     1       4.780  -2.138  -1.995  0.00  0.00    +0.000 A 
ATOM     10  N   UNL     1       4.159  -1.585  -0.924  0.00  0.00    +0.000 NA
ENDROOT
BRANCH   4   2
ATOM      1  N   UNL     1       2.927  -0.433   1.193  0.00  0.00    +0.000 N 
ATOM      2  C   UNL     1       2.464  -0.076  -0.043  0.00  0.00    +0.000 C 
ATOM      3  O   UNL     1       1.543   0.723  -0.176  0.00  0.00    +0.000 OA
ATOM     11  H   UNL     1       2.543   0.020   2.009  0.00  0.00    +0.000 HD
ATOM     12  H   UNL     1       3.761  -1.004   1.267  0.00  0.00    +0.000 HD
ENDBRANCH   4   2
BRANCH   7   8
ATOM      8  N   UNL     1       5.212  -2.403  -4.387  0.00  0.00    +0.000 N 
ATOM     13  H   UNL     1       4.729  -2.424  -5.281  0.00  0.00    +0.000 HD
ATOM     14  H   UNL     1       5.682  -3.281  -4.187  0.00  0.00    +0.000 HD
ENDBRANCH   7   8
TORSDOF 2
