REMARK  Name = 
REMARK  9 active torsions:
REMARK  status: ('A' for Active; 'I' for Inactive)
REMARK    1  A    between atoms: C_1  and  C_2
REMARK    2  A    between atoms: C_2  and  C_3
REMARK    3  A    between atoms: C_3  and  O_4
REMARK    4  A    between atoms: O_4  and  C_5
REMARK    5  A    between atoms: C_12  and  C_13
REMARK    6  A    between atoms: N_15  and  C_16
REMARK    7  A    between atoms: C_16  and  C_17
REMARK    8  A    between atoms: C_20  and  C_21
REMARK    9  A    between atoms: C_21  and  N_22
REMARK                            x       y       z     vdW  Elec       q    Type
REMARK                         _______ _______ _______ _____ _____    ______ ____
ROOT
ATOM     13  C   UNL     1       6.489  -1.276  -2.068  0.00  0.00    +0.000 C 
ATOM     14  O   UNL     1       6.881  -2.396  -2.371  0.00  0.00    +0.000 OA
ATOM     15  N   UNL     1       5.842  -1.048  -0.884  0.00  0.00    +0.000 N 
ATOM     31  H   UNL     1       5.472  -0.126  -0.694  0.00  0.00    +0.000 HD
ENDROOT
BRANCH  13  12
ATOM      5  C   UNL     1       5.713   2.068  -1.787  0.00  0.00    +0.000 A 
ATOM      6  N   UNL     1       5.685   3.414  -1.835  0.00  0.00    +0.000 NA
ATOM      7  C   UNL     1       6.285   4.017  -2.864  0.00  0.00    +0.000 A 
ATOM      8  N   UNL     1       6.904   3.426  -3.881  0.00  0.00    +0.000 NA
ATOM      9  C   UNL     1       6.940   2.085  -3.774  0.00  0.00    +0.000 A 
ATOM     10  S   UNL     1       7.673   1.160  -4.995  0.00  0.00    +0.000 S 
ATOM     11  C   UNL     1       7.363  -0.285  -4.155  0.00  0.00    +0.000 A 
ATOM     12  C   UNL     1       6.717  -0.105  -2.938  0.00  0.00    +0.000 A 
ATOM     30  C   UNL     1       6.408   1.313  -2.745  0.00  0.00    +0.000 A 
BRANCH   5   4
ATOM      4  O   UNL     1       4.996   1.447  -0.786  0.00  0.00    +0.000 OA
BRANCH   4   3
ATOM      3  C   UNL     1       3.847   2.186  -0.351  0.00  0.00    +0.000 C 
BRANCH   3   2
ATOM      1  C   UNL     1       1.542   3.006  -0.974  0.00  0.00    +0.000 C 
ATOM      2  C   UNL     1       2.770   2.245  -1.436  0.00  0.00    +0.000 C 
ENDBRANCH   3   2
ENDBRANCH   4   3
ENDBRANCH   5   4
ENDBRANCH  13  12
BRANCH  15  16
ATOM     16  C   UNL     1       5.639  -2.047   0.144  0.00  0.00    +0.000 C 
BRANCH  16  17
ATOM     17  C   UNL     1       4.810  -1.441   1.254  0.00  0.00    +0.000 A 
ATOM     18  C   UNL     1       3.415  -1.453   1.157  0.00  0.00    +0.000 A 
ATOM     19  C   UNL     1       2.630  -0.675   2.014  0.00  0.00    +0.000 A 
ATOM     20  C   UNL     1       3.216   0.138   2.997  0.00  0.00    +0.000 A 
ATOM     28  C   UNL     1       4.611   0.079   3.155  0.00  0.00    +0.000 A 
ATOM     29  C   UNL     1       5.401  -0.694   2.287  0.00  0.00    +0.000 A 
BRANCH  20  21
ATOM     21  C   UNL     1       2.396   1.219   3.678  0.00  0.00    +0.000 C 
BRANCH  21  22
ATOM     22  N   UNL     1       1.582   0.936   4.854  0.00  0.00    +0.000 NA
ATOM     23  C   UNL     1       2.287   0.634   6.099  0.00  0.00    +0.000 C 
ATOM     24  C   UNL     1       2.544  -0.862   6.332  0.00  0.00    +0.000 C 
ATOM     25  O   UNL     1       1.350  -1.643   6.187  0.00  0.00    +0.000 OA
ATOM     26  C   UNL     1       0.738  -1.429   4.910  0.00  0.00    +0.000 C 
ATOM     27  C   UNL     1       0.427   0.056   4.680  0.00  0.00    +0.000 C 
ENDBRANCH  21  22
ENDBRANCH  20  21
ENDBRANCH  16  17
ENDBRANCH  15  16
TORSDOF 8
