REMARK  Name = 
REMARK  5 active torsions:
REMARK  status: ('A' for Active; 'I' for Inactive)
REMARK    1  A    between atoms: C_2  and  C_18
REMARK    2  A    between atoms: N_3  and  C_4
REMARK    3  A    between atoms: C_4  and  C_5
REMARK    4  A    between atoms: C_8  and  C_9
REMARK    5  A    between atoms: C_9  and  N_10
REMARK                            x       y       z     vdW  Elec       q    Type
REMARK                         _______ _______ _______ _____ _____    ______ ____
ROOT
ATOM      1  O   UNL     1       1.094  -0.314  -0.012  0.00  0.00    +0.000 OA
ATOM      2  C   UNL     1       2.091   0.302  -0.381  0.00  0.00    +0.000 C 
ATOM      3  N   UNL     1       2.762   1.164   0.452  0.00  0.00    +0.000 N 
ATOM     28  H   UNL     1       3.442   1.809   0.061  0.00  0.00    +0.000 HD
ENDROOT
BRANCH   2  18
ATOM     18  C   UNL     1       2.642   0.116  -1.727  0.00  0.00    +0.000 A 
ATOM     19  C   UNL     1       2.371  -1.052  -2.427  0.00  0.00    +0.000 A 
ATOM     20  S   UNL     1       3.081  -1.103  -3.975  0.00  0.00    +0.000 S 
ATOM     21  C   UNL     1       3.737   0.457  -3.785  0.00  0.00    +0.000 A 
ATOM     22  N   UNL     1       4.443   1.044  -4.787  0.00  0.00    +0.000 NA
ATOM     23  C   UNL     1       4.852   2.241  -4.523  0.00  0.00    +0.000 A 
ATOM     24  N   UNL     1       4.625   2.895  -3.337  0.00  0.00    +0.000 N 
ATOM     25  C   UNL     1       3.954   2.323  -2.281  0.00  0.00    +0.000 A 
ATOM     26  O   UNL     1       3.822   2.919  -1.215  0.00  0.00    +0.000 OA
ATOM     27  C   UNL     1       3.445   0.994  -2.544  0.00  0.00    +0.000 A 
ATOM     29  H   UNL     1       4.989   3.825  -3.186  0.00  0.00    +0.000 HD
ENDBRANCH   2  18
BRANCH   3   4
ATOM      4  C   UNL     1       2.216   1.492   1.744  0.00  0.00    +0.000 C 
BRANCH   4   5
ATOM      5  C   UNL     1       3.104   2.429   2.515  0.00  0.00    +0.000 A 
ATOM      6  C   UNL     1       2.961   3.816   2.372  0.00  0.00    +0.000 A 
ATOM      7  C   UNL     1       3.740   4.695   3.129  0.00  0.00    +0.000 A 
ATOM      8  C   UNL     1       4.690   4.206   4.035  0.00  0.00    +0.000 A 
ATOM     16  C   UNL     1       4.867   2.819   4.142  0.00  0.00    +0.000 A 
ATOM     17  C   UNL     1       4.085   1.939   3.386  0.00  0.00    +0.000 A 
BRANCH   8   9
ATOM      9  C   UNL     1       5.535   5.160   4.853  0.00  0.00    +0.000 C 
BRANCH   9  10
ATOM     10  N   UNL     1       4.766   6.063   5.743  0.00  0.00    +0.000 NA
ATOM     11  C   UNL     1       4.078   5.296   6.796  0.00  0.00    +0.000 C 
ATOM     12  C   UNL     1       3.403   6.186   7.845  0.00  0.00    +0.000 C 
ATOM     13  C   UNL     1       4.398   7.161   8.455  0.00  0.00    +0.000 C 
ATOM     14  C   UNL     1       5.043   7.979   7.347  0.00  0.00    +0.000 C 
ATOM     15  C   UNL     1       5.688   7.070   6.301  0.00  0.00    +0.000 C 
ENDBRANCH   9  10
ENDBRANCH   8   9
ENDBRANCH   4   5
ENDBRANCH   3   4
TORSDOF 5
