REMARK  Name = 
REMARK  6 active torsions:
REMARK  status: ('A' for Active; 'I' for Inactive)
REMARK    1  A    between atoms: C_1  and  C_2
REMARK    2  A    between atoms: C_2  and  C_3
REMARK    3  A    between atoms: C_2  and  C_4
REMARK    4  A    between atoms: C_2  and  C_5
REMARK    5  A    between atoms: C_5  and  N_6
REMARK    6  A    between atoms: C_10  and  C_11
REMARK                            x       y       z     vdW  Elec       q    Type
REMARK                         _______ _______ _______ _____ _____    ______ ____
ROOT
ATOM      6  N   UNL     1       4.623  -0.728  -1.287  0.00  0.00    +0.000 N 
ATOM      7  C   UNL     1       5.145  -1.564  -2.286  0.00  0.00    +0.000 A 
ATOM      8  C   UNL     1       6.518  -1.550  -2.515  0.00  0.00    +0.000 A 
ATOM      9  C   UNL     1       7.058  -2.379  -3.501  0.00  0.00    +0.000 A 
ATOM     10  C   UNL     1       6.215  -3.206  -4.242  0.00  0.00    +0.000 A 
ATOM     14  C   UNL     1       4.863  -3.146  -3.955  0.00  0.00    +0.000 A 
ATOM     15  N   UNL     1       4.320  -2.347  -3.007  0.00  0.00    +0.000 NA
ATOM     16  H   UNL     1       5.115  -0.938  -0.423  0.00  0.00    +0.000 HD
ENDROOT
BRANCH  10  11
ATOM     11  C   UNL     1       6.787  -4.096  -5.280  0.00  0.00    +0.000 C 
ATOM     12  N   UNL     1       5.946  -4.902  -5.997  0.00  0.00    +0.000 N 
ATOM     13  O   UNL     1       7.992  -4.120  -5.498  0.00  0.00    +0.000 OA
ATOM     17  H   UNL     1       4.946  -4.953  -5.905  0.00  0.00    +0.000 HD
ATOM     18  H   UNL     1       6.379  -5.490  -6.699  0.00  0.00    +0.000 HD
ENDBRANCH  10  11
BRANCH   6   5
ATOM      5  C   UNL     1       3.167  -0.817  -1.137  0.00  0.00    +0.000 C 
BRANCH   5   2
ATOM      1  C   UNL     1       2.993   1.591  -0.358  0.00  0.00    +0.000 C 
ATOM      2  C   UNL     1       2.647   0.130  -0.027  0.00  0.00    +0.000 C 
ATOM      3  C   UNL     1       3.240  -0.248   1.342  0.00  0.00    +0.000 C 
ATOM      4  C   UNL     1       1.113  -0.003   0.054  0.00  0.00    +0.000 C 
ENDBRANCH   5   2
ENDBRANCH   6   5
TORSDOF 3
