REMARK  Name = 
REMARK  6 active torsions:
REMARK  status: ('A' for Active; 'I' for Inactive)
REMARK    1  A    between atoms: C_1  and  N_2
REMARK    2  A    between atoms: N_2  and  C_21
REMARK    3  A    between atoms: C_3  and  C_5
REMARK    4  A    between atoms: C_5  and  N_6
REMARK    5  A    between atoms: C_7  and  C_8
REMARK    6  A    between atoms: C_14  and  C_15
REMARK                            x       y       z     vdW  Elec       q    Type
REMARK                         _______ _______ _______ _____ _____    ______ ____
ROOT
ATOM      6  N   UNL     1       3.565  -4.406  -2.499  0.00  0.00    +0.000 N 
ATOM      7  C   UNL     1       3.642  -5.797  -2.414  0.00  0.00    +0.000 A 
ATOM     11  C   UNL     1       3.000  -6.306  -3.511  0.00  0.00    +0.000 A 
ATOM     12  C   UNL     1       2.490  -5.254  -4.279  0.00  0.00    +0.000 A 
ATOM     13  C   UNL     1       1.727  -5.159  -5.445  0.00  0.00    +0.000 A 
ATOM     14  C   UNL     1       1.414  -3.890  -5.935  0.00  0.00    +0.000 A 
ATOM     18  C   UNL     1       1.910  -2.782  -5.248  0.00  0.00    +0.000 A 
ATOM     19  N   UNL     1       2.678  -2.809  -4.122  0.00  0.00    +0.000 NA
ATOM     20  C   UNL     1       2.897  -4.064  -3.670  0.00  0.00    +0.000 A 
ENDROOT
BRANCH  14  15
ATOM     15  C   UNL     1       0.594  -3.685  -7.152  0.00  0.00    +0.000 C 
ATOM     16  N   UNL     1       0.125  -4.786  -7.823  0.00  0.00    +0.000 N 
ATOM     17  O   UNL     1       0.335  -2.561  -7.564  0.00  0.00    +0.000 OA
ATOM     29  H   UNL     1       0.267  -5.746  -7.552  0.00  0.00    +0.000 HD
ATOM     30  H   UNL     1      -0.433  -4.615  -8.650  0.00  0.00    +0.000 HD
ENDBRANCH  14  15
BRANCH   7   8
ATOM      8  C   UNL     1       4.300  -6.699  -1.366  0.00  0.00    +0.000 C 
ATOM      9  C   UNL     1       5.378  -7.635  -1.865  0.00  0.00    +0.000 C 
ATOM     10  C   UNL     1       4.117  -8.215  -1.304  0.00  0.00    +0.000 C 
ENDBRANCH   7   8
BRANCH   6   5
ATOM      5  C   UNL     1       4.234  -3.441  -1.645  0.00  0.00    +0.000 C 
BRANCH   5   3
ATOM      1  C   UNL     1       5.192  -2.408   0.889  0.00  0.00    +0.000 C 
ATOM      2  N   UNL     1       3.871  -2.046   0.372  0.00  0.00    +0.000 N 
ATOM      3  C   UNL     1       3.343  -2.499  -0.856  0.00  0.00    +0.000 C 
ATOM      4  O   UNL     1       2.222  -2.153  -1.234  0.00  0.00    +0.000 OA
BRANCH   2  21
ATOM     21  C   UNL     1       2.958  -1.297   1.262  0.00  0.00    +0.000 C 
ATOM     22  C   UNL     1       3.664  -0.377   2.284  0.00  0.00    +0.000 C 
ATOM     23  C   UNL     1       2.706   0.150   3.362  0.00  0.00    +0.000 C 
ATOM     24  C   UNL     1       1.483   0.848   2.777  0.00  0.00    +0.000 C 
ATOM     25  C   UNL     1       0.462  -0.274   2.575  0.00  0.00    +0.000 C 
ATOM     26  C   UNL     1       1.169  -1.535   3.074  0.00  0.00    +0.000 C 
ATOM     27  C   UNL     1       1.967  -2.248   1.972  0.00  0.00    +0.000 C 
ATOM     28  N   UNL     1       2.104  -0.990   4.065  0.00  0.00    +0.000 NA
ATOM     31  H   UNL     1       2.806  -1.682   4.321  0.00  0.00    +0.000 HD
ENDBRANCH   2  21
ENDBRANCH   5   3
ENDBRANCH   6   5
TORSDOF 5
