REMARK  Name = 
REMARK  6 active torsions:
REMARK  status: ('A' for Active; 'I' for Inactive)
REMARK    1  A    between atoms: N_1  and  C_2
REMARK    2  A    between atoms: C_2  and  C_3
REMARK    3  A    between atoms: C_6  and  C_7
REMARK    4  A    between atoms: C_7  and  N_8
REMARK    5  A    between atoms: C_9  and  C_10
REMARK    6  A    between atoms: C_16  and  C_17
REMARK                            x       y       z     vdW  Elec       q    Type
REMARK                         _______ _______ _______ _____ _____    ______ ____
ROOT
ATOM      8  N   UNL     1       6.053  -5.456   0.283  0.00  0.00    +0.000 N 
ATOM      9  C   UNL     1       6.916  -5.928  -0.691  0.00  0.00    +0.000 A 
ATOM     13  C   UNL     1       8.205  -5.750  -0.228  0.00  0.00    +0.000 A 
ATOM     14  C   UNL     1       8.133  -5.180   1.062  0.00  0.00    +0.000 A 
ATOM     15  C   UNL     1       9.083  -4.784   2.017  0.00  0.00    +0.000 A 
ATOM     16  C   UNL     1       8.613  -4.230   3.209  0.00  0.00    +0.000 A 
ATOM     20  C   UNL     1       7.234  -4.118   3.389  0.00  0.00    +0.000 A 
ATOM     21  N   UNL     1       6.278  -4.484   2.495  0.00  0.00    +0.000 NA
ATOM     22  C   UNL     1       6.787  -5.005   1.360  0.00  0.00    +0.000 A 
ENDROOT
BRANCH  16  17
ATOM     17  C   UNL     1       9.507  -3.742   4.286  0.00  0.00    +0.000 C 
ATOM     18  N   UNL     1      10.859  -3.825   4.104  0.00  0.00    +0.000 N 
ATOM     19  O   UNL     1       9.054  -3.262   5.317  0.00  0.00    +0.000 OA
ATOM     27  H   UNL     1      11.322  -4.190   3.290  0.00  0.00    +0.000 HD
ATOM     28  H   UNL     1      11.440  -3.466   4.855  0.00  0.00    +0.000 HD
ENDBRANCH  16  17
BRANCH   9  10
ATOM     10  C   UNL     1       6.550  -6.561  -2.032  0.00  0.00    +0.000 C 
ATOM     11  C   UNL     1       7.490  -7.615  -2.596  0.00  0.00    +0.000 C 
ATOM     12  C   UNL     1       7.421  -6.276  -3.242  0.00  0.00    +0.000 C 
ENDBRANCH   9  10
BRANCH   8   7
ATOM      7  C   UNL     1       4.600  -5.330   0.200  0.00  0.00    +0.000 C 
BRANCH   7   6
ATOM      3  C   UNL     1       2.206  -8.700   1.557  0.00  0.00    +0.000 A 
ATOM      4  C   UNL     1       3.603  -8.765   1.618  0.00  0.00    +0.000 A 
ATOM      5  C   UNL     1       4.395  -7.689   1.204  0.00  0.00    +0.000 A 
ATOM      6  C   UNL     1       3.810  -6.518   0.707  0.00  0.00    +0.000 A 
ATOM     23  C   UNL     1       2.405  -6.444   0.677  0.00  0.00    +0.000 A 
ATOM     24  C   UNL     1       1.613  -7.519   1.096  0.00  0.00    +0.000 A 
BRANCH   3   2
ATOM      2  C   UNL     1       1.368  -9.894   1.937  0.00  0.00    +0.000 C 
BRANCH   2   1
ATOM      1  N   UNL     1       1.605 -10.316   3.312  0.00  0.00    +0.000 NA
ATOM     25  H   UNL     1       0.948 -11.054   3.552  0.00  0.00    +0.000 HD
ATOM     26  H   UNL     1       1.403  -9.534   3.934  0.00  0.00    +0.000 HD
ENDBRANCH   2   1
ENDBRANCH   3   2
ENDBRANCH   7   6
ENDBRANCH   8   7
TORSDOF 6
