REMARK  Name = 
REMARK  13 active torsions:
REMARK  status: ('A' for Active; 'I' for Inactive)
REMARK    1  A    between atoms: C_1  and  C_2
REMARK    2  A    between atoms: C_2  and  O_3
REMARK    3  A    between atoms: O_3  and  C_4
REMARK    4  A    between atoms: C_4  and  C_5
REMARK    5  A    between atoms: C_5  and  O_6
REMARK    6  A    between atoms: O_6  and  C_7
REMARK    7  A    between atoms: C_7  and  C_8
REMARK    8  A    between atoms: C_8  and  N_9
REMARK    9  A    between atoms: N_9  and  C_10
REMARK   10  A    between atoms: C_10  and  C_11
REMARK   11  A    between atoms: C_14  and  C_15
REMARK   12  A    between atoms: C_15  and  N_16
REMARK   13  A    between atoms: C_17  and  C_19
REMARK                            x       y       z     vdW  Elec       q    Type
REMARK                         _______ _______ _______ _____ _____    ______ ____
ROOT
ATOM     11  C   UNL     1      10.680  -5.626   4.166  0.00  0.00    +0.000 A 
ATOM     12  C   UNL     1      11.107  -5.380   5.478  0.00  0.00    +0.000 A 
ATOM     13  C   UNL     1      11.375  -6.433   6.352  0.00  0.00    +0.000 A 
ATOM     14  C   UNL     1      11.221  -7.763   5.936  0.00  0.00    +0.000 A 
ATOM     29  C   UNL     1      10.791  -8.005   4.621  0.00  0.00    +0.000 A 
ATOM     30  C   UNL     1      10.552  -6.949   3.736  0.00  0.00    +0.000 A 
ENDROOT
BRANCH  11  10
ATOM     10  C   UNL     1      10.285  -4.479   3.272  0.00  0.00    +0.000 C 
BRANCH  10   9
ATOM      9  N   UNL     1      11.398  -3.548   3.146  0.00  0.00    +0.000 NA
ATOM     31  H   UNL     1      11.672  -3.227   4.071  0.00  0.00    +0.000 HD
BRANCH   9   8
ATOM      8  C   UNL     1      11.053  -2.400   2.319  0.00  0.00    +0.000 C 
BRANCH   8   7
ATOM      7  C   UNL     1      12.256  -1.464   2.226  0.00  0.00    +0.000 C 
BRANCH   7   6
ATOM      6  O   UNL     1      11.905  -0.348   1.413  0.00  0.00    +0.000 OA
BRANCH   6   5
ATOM      5  C   UNL     1      13.002   0.555   1.295  0.00  0.00    +0.000 C 
BRANCH   5   4
ATOM      4  C   UNL     1      12.581   1.724   0.421  0.00  0.00    +0.000 C 
BRANCH   4   3
ATOM      3  O   UNL     1      13.669   2.637   0.297  0.00  0.00    +0.000 OA
BRANCH   3   2
ATOM      1  C   UNL     1      14.499   4.682  -0.613  0.00  0.00    +0.000 C 
ATOM      2  C   UNL     1      13.310   3.750  -0.517  0.00  0.00    +0.000 C 
ENDBRANCH   3   2
ENDBRANCH   4   3
ENDBRANCH   5   4
ENDBRANCH   6   5
ENDBRANCH   7   6
ENDBRANCH   8   7
ENDBRANCH   9   8
ENDBRANCH  10   9
ENDBRANCH  11  10
BRANCH  14  15
ATOM     15  C   UNL     1      11.511  -8.930   6.853  0.00  0.00    +0.000 C 
BRANCH  15  16
ATOM     16  N   UNL     1      10.357  -9.360   7.602  0.00  0.00    +0.000 N 
ATOM     17  C   UNL     1      10.413 -10.413   8.488  0.00  0.00    +0.000 C 
ATOM     18  O   UNL     1      11.435 -11.038   8.714  0.00  0.00    +0.000 OA
ATOM     32  H   UNL     1       9.452  -9.127   7.209  0.00  0.00    +0.000 HD
BRANCH  17  19
ATOM     19  C   UNL     1       9.156 -10.699   9.193  0.00  0.00    +0.000 A 
ATOM     20  C   UNL     1       9.178 -11.244  10.473  0.00  0.00    +0.000 A 
ATOM     21  S   UNL     1       7.622 -11.524  11.120  0.00  0.00    +0.000 S 
ATOM     22  C   UNL     1       6.868 -10.942   9.709  0.00  0.00    +0.000 A 
ATOM     23  N   UNL     1       5.513 -10.940   9.585  0.00  0.00    +0.000 NA
ATOM     24  C   UNL     1       5.082 -10.474   8.458  0.00  0.00    +0.000 A 
ATOM     25  N   UNL     1       5.884 -10.000   7.449  0.00  0.00    +0.000 N 
ATOM     26  C   UNL     1       7.251  -9.947   7.545  0.00  0.00    +0.000 A 
ATOM     27  O   UNL     1       7.925  -9.457   6.658  0.00  0.00    +0.000 OA
ATOM     28  C   UNL     1       7.788 -10.500   8.779  0.00  0.00    +0.000 A 
ATOM     33  H   UNL     1       5.481  -9.608   6.612  0.00  0.00    +0.000 HD
ENDBRANCH  17  19
ENDBRANCH  15  16
ENDBRANCH  14  15
TORSDOF 12
