REMARK  Name = 
REMARK  8 active torsions:
REMARK  status: ('A' for Active; 'I' for Inactive)
REMARK    1  A    between atoms: C_1  and  C_2
REMARK    2  A    between atoms: C_2  and  C_3
REMARK    3  A    between atoms: C_2  and  C_4
REMARK    4  A    between atoms: C_2  and  C_15
REMARK    5  A    between atoms: C_4  and  N_5
REMARK    6  A    between atoms: C_9  and  C_10
REMARK    7  A    between atoms: C_19  and  N_20
REMARK    8  A    between atoms: N_20  and  C_21
REMARK                            x       y       z     vdW  Elec       q    Type
REMARK                         _______ _______ _______ _____ _____    ______ ____
ROOT
ATOM      1  C   UNL     1       0.824   0.088  -0.036  0.00  0.00    +0.000 C 
ATOM      2  C   UNL     1       2.373   0.059  -0.036  0.00  0.00    +0.000 C 
ATOM      3  C   UNL     1       2.838   1.437  -0.570  0.00  0.00    +0.000 C 
ENDROOT
BRANCH   2  15
ATOM     15  C   UNL     1       2.909  -1.104  -0.909  0.00  0.00    +0.000 A 
ATOM     16  C   UNL     1       2.220  -2.325  -1.007  0.00  0.00    +0.000 A 
ATOM     17  C   UNL     1       2.721  -3.382  -1.771  0.00  0.00    +0.000 A 
ATOM     18  C   UNL     1       3.944  -3.260  -2.429  0.00  0.00    +0.000 A 
ATOM     19  C   UNL     1       4.672  -2.078  -2.337  0.00  0.00    +0.000 A 
ATOM     25  C   UNL     1       4.140  -1.011  -1.591  0.00  0.00    +0.000 A 
BRANCH  19  20
ATOM     20  N   UNL     1       5.919  -1.891  -2.973  0.00  0.00    +0.000 N 
ATOM     29  H   UNL     1       5.834  -1.172  -3.691  0.00  0.00    +0.000 HD
BRANCH  20  21
ATOM     21  C   UNL     1       6.847  -2.936  -3.327  0.00  0.00    +0.000 C 
ATOM     22  C   UNL     1       8.088  -2.393  -4.066  0.00  0.00    +0.000 C 
ATOM     23  N   UNL     1       7.925  -3.432  -5.099  0.00  0.00    +0.000 NA
ATOM     24  C   UNL     1       6.550  -3.695  -4.630  0.00  0.00    +0.000 C 
ATOM     30  H   UNL     1       8.556  -4.224  -4.976  0.00  0.00    +0.000 HD
ENDBRANCH  20  21
ENDBRANCH  19  20
ENDBRANCH   2  15
BRANCH   2   4
ATOM      4  C   UNL     1       2.910  -0.153   1.415  0.00  0.00    +0.000 C 
BRANCH   4   5
ATOM      5  N   UNL     1       2.523   0.927   2.320  0.00  0.00    +0.000 N 
ATOM      6  C   UNL     1       2.921   0.909   3.644  0.00  0.00    +0.000 A 
ATOM      7  C   UNL     1       4.143   0.399   4.074  0.00  0.00    +0.000 A 
ATOM      8  C   UNL     1       4.486   0.481   5.424  0.00  0.00    +0.000 A 
ATOM      9  C   UNL     1       3.618   1.089   6.329  0.00  0.00    +0.000 A 
ATOM     13  C   UNL     1       2.427   1.575   5.815  0.00  0.00    +0.000 A 
ATOM     14  N   UNL     1       2.065   1.490   4.504  0.00  0.00    +0.000 NA
ATOM     26  H   UNL     1       1.543   1.201   2.312  0.00  0.00    +0.000 HD
BRANCH   9  10
ATOM     10  C   UNL     1       4.015   1.181   7.755  0.00  0.00    +0.000 C 
ATOM     11  N   UNL     1       3.186   1.808   8.641  0.00  0.00    +0.000 N 
ATOM     12  O   UNL     1       5.077   0.708   8.146  0.00  0.00    +0.000 OA
ATOM     27  H   UNL     1       2.308   2.253   8.426  0.00  0.00    +0.000 HD
ATOM     28  H   UNL     1       3.511   1.856   9.600  0.00  0.00    +0.000 HD
ENDBRANCH   9  10
ENDBRANCH   4   5
ENDBRANCH   2   4
TORSDOF 6
