REMARK  Name = 
REMARK  4 active torsions:
REMARK  status: ('A' for Active; 'I' for Inactive)
REMARK    1  A    between atoms: C_2  and  C_4
REMARK    2  A    between atoms: N_8  and  C_9
REMARK    3  A    between atoms: C_9  and  C_10
REMARK    4  A    between atoms: C_14  and  N_15
REMARK                            x       y       z     vdW  Elec       q    Type
REMARK                         _______ _______ _______ _____ _____    ______ ____
ROOT
ATOM      9  C   UNL     1       5.106   4.144   4.378  0.00  0.00    +0.000 C 
ENDROOT
BRANCH   9   8
ATOM      4  C   UNL     1       7.564   1.987   0.432  0.00  0.00    +0.000 A 
ATOM      5  C   UNL     1       7.277   1.464   1.687  0.00  0.00    +0.000 A 
ATOM      6  C   UNL     1       6.458   2.187   2.553  0.00  0.00    +0.000 A 
ATOM      7  C   UNL     1       5.958   3.426   2.165  0.00  0.00    +0.000 A 
ATOM      8  N   UNL     1       5.087   4.162   2.930  0.00  0.00    +0.000 N 
ATOM     22  N   UNL     1       6.241   3.944   0.952  0.00  0.00    +0.000 NA
ATOM     23  C   UNL     1       7.039   3.228   0.118  0.00  0.00    +0.000 A 
ATOM     26  H   UNL     1       4.948   5.067   2.493  0.00  0.00    +0.000 HD
BRANCH   4   2
ATOM      1  N   UNL     1       8.432  -0.094  -0.466  0.00  0.00    +0.000 N 
ATOM      2  C   UNL     1       8.405   1.271  -0.549  0.00  0.00    +0.000 C 
ATOM      3  O   UNL     1       9.026   1.868  -1.419  0.00  0.00    +0.000 OA
ATOM     24  H   UNL     1       8.934  -0.582  -1.197  0.00  0.00    +0.000 HD
ATOM     25  H   UNL     1       7.748  -0.621   0.061  0.00  0.00    +0.000 HD
ENDBRANCH   4   2
ENDBRANCH   9   8
BRANCH   9  10
ATOM     10  C   UNL     1       6.051   5.153   4.984  0.00  0.00    +0.000 A 
ATOM     11  C   UNL     1       5.868   6.523   4.764  0.00  0.00    +0.000 A 
ATOM     12  C   UNL     1       6.623   7.449   5.474  0.00  0.00    +0.000 A 
ATOM     13  C   UNL     1       7.545   7.016   6.427  0.00  0.00    +0.000 A 
ATOM     14  C   UNL     1       7.763   5.653   6.678  0.00  0.00    +0.000 A 
ATOM     21  C   UNL     1       7.032   4.737   5.906  0.00  0.00    +0.000 A 
BRANCH  14  15
ATOM     15  N   UNL     1       8.605   5.227   7.684  0.00  0.00    +0.000 N 
ATOM     16  C   UNL     1       8.713   5.952   8.956  0.00  0.00    +0.000 C 
ATOM     17  C   UNL     1      10.172   6.382   9.212  0.00  0.00    +0.000 C 
ATOM     18  N   UNL     1      11.129   5.256   9.145  0.00  0.00    +0.000 NA
ATOM     19  C   UNL     1      10.994   4.603   7.822  0.00  0.00    +0.000 C 
ATOM     20  C   UNL     1       9.555   4.126   7.493  0.00  0.00    +0.000 C 
ATOM     27  H   UNL     1      10.860   4.576   9.857  0.00  0.00    +0.000 HD
ENDBRANCH  14  15
ENDBRANCH   9  10
TORSDOF 4
