REMARK  Name = 
REMARK  14 active torsions:
REMARK  status: ('A' for Active; 'I' for Inactive)
REMARK    1  A    between atoms: N_2  and  C_3
REMARK    2  A    between atoms: C_3  and  C_4
REMARK    3  A    between atoms: C_4  and  O_5
REMARK    4  A    between atoms: O_5  and  C_6
REMARK    5  A    between atoms: C_6  and  C_7
REMARK    6  A    between atoms: C_7  and  O_8
REMARK    7  A    between atoms: O_8  and  C_9
REMARK    8  A    between atoms: C_9  and  C_10
REMARK    9  A    between atoms: C_10  and  N_11
REMARK   10  A    between atoms: N_11  and  C_12
REMARK   11  A    between atoms: C_12  and  C_13
REMARK   12  A    between atoms: C_16  and  C_17
REMARK   13  A    between atoms: C_17  and  N_18
REMARK   14  A    between atoms: C_19  and  C_21
REMARK                            x       y       z     vdW  Elec       q    Type
REMARK                         _______ _______ _______ _____ _____    ______ ____
ROOT
ATOM      1 CL   UNL     1      -0.138  -2.175  -0.590  0.00  0.00    +0.000 Cl
ATOM      2  H   UNL     1       0.311  -1.923   0.685  0.00  0.00    +0.000 HD
ENDROOT
TORSDOF 0
REMARK  Name = 
REMARK  14 active torsions:
REMARK  status: ('A' for Active; 'I' for Inactive)
REMARK    1  A    between atoms: N_2  and  C_3
REMARK    2  A    between atoms: C_3  and  C_4
REMARK    3  A    between atoms: C_4  and  O_5
REMARK    4  A    between atoms: O_5  and  C_6
REMARK    5  A    between atoms: C_6  and  C_7
REMARK    6  A    between atoms: C_7  and  O_8
REMARK    7  A    between atoms: O_8  and  C_9
REMARK    8  A    between atoms: C_9  and  C_10
REMARK    9  A    between atoms: C_10  and  N_11
REMARK   10  A    between atoms: N_11  and  C_12
REMARK   11  A    between atoms: C_12  and  C_13
REMARK   12  A    between atoms: C_16  and  C_17
REMARK   13  A    between atoms: C_17  and  N_18
REMARK   14  A    between atoms: C_19  and  C_21
REMARK                            x       y       z     vdW  Elec       q    Type
REMARK                         _______ _______ _______ _____ _____    ______ ____
ROOT
ATOM     12  C   UNL     1      12.208  -6.855  -0.422  0.00  0.00    +0.000 A 
ATOM     13  C   UNL     1      12.882  -6.373   0.714  0.00  0.00    +0.000 A 
ATOM     14  C   UNL     1      14.279  -6.342   0.751  0.00  0.00    +0.000 A 
ATOM     15  C   UNL     1      15.028  -6.797  -0.346  0.00  0.00    +0.000 A 
ATOM     30  C   UNL     1      14.359  -7.290  -1.475  0.00  0.00    +0.000 A 
ATOM     31  C   UNL     1      12.961  -7.319  -1.514  0.00  0.00    +0.000 A 
ENDROOT
BRANCH  12  11
ATOM     11  C   UNL     1      10.697  -6.868  -0.464  0.00  0.00    +0.000 C 
BRANCH  11  10
ATOM     10  N   UNL     1      10.180  -5.499  -0.346  0.00  0.00    +0.000 NA
ATOM     34  H   UNL     1      10.472  -5.104   0.578  0.00  0.00    +0.000 HD
BRANCH  10   9
ATOM      9  C   UNL     1       8.715  -5.464  -0.408  0.00  0.00    +0.000 C 
BRANCH   9   8
ATOM      8  C   UNL     1       8.242  -4.016  -0.278  0.00  0.00    +0.000 C 
BRANCH   8   7
ATOM      7  O   UNL     1       6.833  -3.966  -0.335  0.00  0.00    +0.000 OA
BRANCH   7   6
ATOM      6  C   UNL     1       6.420  -2.622  -0.189  0.00  0.00    +0.000 C 
BRANCH   6   5
ATOM      5  C   UNL     1       4.900  -2.555  -0.208  0.00  0.00    +0.000 C 
BRANCH   5   4
ATOM      4  O   UNL     1       4.393  -3.317   0.866  0.00  0.00    +0.000 OA
BRANCH   4   3
ATOM      3  C   UNL     1       2.985  -3.245   0.861  0.00  0.00    +0.000 C 
BRANCH   3   2
ATOM      2  C   UNL     1       2.431  -4.096   2.001  0.00  0.00    +0.000 C 
BRANCH   2   1
ATOM      1  N   UNL     1       2.905  -3.600   3.289  0.00  0.00    +0.000 NA
ATOM     32  H   UNL     1       2.562  -4.243   4.039  0.00  0.00    +0.000 HD
ATOM     33  H   UNL     1       2.487  -2.657   3.464  0.00  0.00    +0.000 HD
ENDBRANCH   2   1
ENDBRANCH   3   2
ENDBRANCH   4   3
ENDBRANCH   5   4
ENDBRANCH   6   5
ENDBRANCH   7   6
ENDBRANCH   8   7
ENDBRANCH   9   8
ENDBRANCH  10   9
ENDBRANCH  11  10
ENDBRANCH  12  11
BRANCH  15  16
ATOM     16  C   UNL     1      16.534  -6.754  -0.303  0.00  0.00    +0.000 C 
BRANCH  16  17
ATOM     17  N   UNL     1      17.071  -7.978   0.264  0.00  0.00    +0.000 N 
ATOM     18  C   UNL     1      18.407  -8.138   0.494  0.00  0.00    +0.000 C 
ATOM     19  O   UNL     1      19.172  -7.227   0.221  0.00  0.00    +0.000 OA
ATOM     35  H   UNL     1      16.412  -8.722   0.534  0.00  0.00    +0.000 HD
BRANCH  18  20
ATOM     20  C   UNL     1      18.936  -9.404   1.095  0.00  0.00    +0.000 A 
ATOM     21  C   UNL     1      18.204 -10.603   1.048  0.00  0.00    +0.000 A 
ATOM     22  S   UNL     1      19.057 -11.845   1.801  0.00  0.00    +0.000 S 
ATOM     23  C   UNL     1      20.357 -10.885   2.212  0.00  0.00    +0.000 A 
ATOM     24  N   UNL     1      21.449 -11.289   2.905  0.00  0.00    +0.000 NA
ATOM     25  C   UNL     1      22.423 -10.387   3.191  0.00  0.00    +0.000 A 
ATOM     26  N   UNL     1      22.302  -9.090   2.786  0.00  0.00    +0.000 N 
ATOM     27  C   UNL     1      21.200  -8.657   2.081  0.00  0.00    +0.000 A 
ATOM     28  O   UNL     1      21.128  -7.488   1.756  0.00  0.00    +0.000 OA
ATOM     29  C   UNL     1      20.179  -9.580   1.772  0.00  0.00    +0.000 A 
ATOM     36  H   UNL     1      23.062  -8.414   3.028  0.00  0.00    +0.000 HD
ENDBRANCH  18  20
ENDBRANCH  16  17
ENDBRANCH  15  16
TORSDOF 14
