REMARK  Name = 
REMARK  4 active torsions:
REMARK  status: ('A' for Active; 'I' for Inactive)
REMARK    1  A    between atoms: C_2  and  C_4
REMARK    2  A    between atoms: N_8  and  C_9
REMARK    3  A    between atoms: C_9  and  C_10
REMARK    4  A    between atoms: C_14  and  N_15
REMARK                            x       y       z     vdW  Elec       q    Type
REMARK                         _______ _______ _______ _____ _____    ______ ____
ROOT
ATOM      9  C   UNL     1       5.159  -4.986  -3.263  0.00  0.00    +0.000 C 
ATOM     22  C   UNL     1       4.089  -4.359  -2.369  0.00  0.00    +0.000 C 
ATOM     23  C   UNL     1       5.470  -3.800  -2.365  0.00  0.00    +0.000 C 
ENDROOT
BRANCH   9   8
ATOM      4  C   UNL     1       7.434  -3.661  -7.773  0.00  0.00    +0.000 A 
ATOM      5  C   UNL     1       7.650  -3.139  -6.502  0.00  0.00    +0.000 A 
ATOM      6  C   UNL     1       6.831  -3.549  -5.446  0.00  0.00    +0.000 A 
ATOM      7  C   UNL     1       5.809  -4.463  -5.677  0.00  0.00    +0.000 A 
ATOM      8  N   UNL     1       4.896  -4.867  -4.703  0.00  0.00    +0.000 N 
ATOM     24  N   UNL     1       5.582  -4.960  -6.911  0.00  0.00    +0.000 NA
ATOM     25  C   UNL     1       6.386  -4.553  -7.930  0.00  0.00    +0.000 A 
ATOM     28  H   UNL     1       4.320  -5.590  -5.128  0.00  0.00    +0.000 HD
BRANCH   4   2
ATOM      1  N   UNL     1       9.528  -2.871  -8.715  0.00  0.00    +0.000 N 
ATOM      2  C   UNL     1       8.249  -3.295  -8.951  0.00  0.00    +0.000 C 
ATOM      3  O   UNL     1       7.815  -3.401 -10.093  0.00  0.00    +0.000 OA
ATOM     26  H   UNL     1      10.110  -2.723  -9.530  0.00  0.00    +0.000 HD
ATOM     27  H   UNL     1       9.995  -3.009  -7.830  0.00  0.00    +0.000 HD
ENDBRANCH   4   2
ENDBRANCH   9   8
BRANCH   9  10
ATOM     10  C   UNL     1       5.737  -6.332  -2.823  0.00  0.00    +0.000 A 
ATOM     11  C   UNL     1       7.119  -6.565  -2.827  0.00  0.00    +0.000 A 
ATOM     12  C   UNL     1       7.648  -7.733  -2.288  0.00  0.00    +0.000 A 
ATOM     13  C   UNL     1       6.798  -8.691  -1.729  0.00  0.00    +0.000 A 
ATOM     14  C   UNL     1       5.406  -8.531  -1.726  0.00  0.00    +0.000 A 
ATOM     21  C   UNL     1       4.907  -7.356  -2.312  0.00  0.00    +0.000 A 
BRANCH  14  15
ATOM     15  N   UNL     1       4.584  -9.489  -1.159  0.00  0.00    +0.000 N 
ATOM     16  C   UNL     1       3.202  -9.717  -1.606  0.00  0.00    +0.000 C 
ATOM     17  C   UNL     1       2.183  -9.378  -0.497  0.00  0.00    +0.000 C 
ATOM     18  N   UNL     1       2.459 -10.065   0.783  0.00  0.00    +0.000 NA
ATOM     19  C   UNL     1       3.830  -9.714   1.209  0.00  0.00    +0.000 C 
ATOM     20  C   UNL     1       4.922 -10.050   0.162  0.00  0.00    +0.000 C 
ATOM     29  H   UNL     1       2.435 -11.071   0.609  0.00  0.00    +0.000 HD
ENDBRANCH  14  15
ENDBRANCH   9  10
TORSDOF 4
