REMARK  Name = 
REMARK  3 active torsions:
REMARK  status: ('A' for Active; 'I' for Inactive)
REMARK    1  A    between atoms: C_2  and  C_4
REMARK    2  A    between atoms: N_8  and  C_9
REMARK    3  A    between atoms: C_9  and  C_10
REMARK                            x       y       z     vdW  Elec       q    Type
REMARK                         _______ _______ _______ _____ _____    ______ ____
ROOT
ATOM      4  C   UNL     1       3.354  -0.385   1.315  0.00  0.00    +0.000 A 
ATOM      5  C   UNL     1       3.777   0.864   1.759  0.00  0.00    +0.000 A 
ATOM      6  C   UNL     1       4.441   0.957   2.981  0.00  0.00    +0.000 A 
ATOM      7  C   UNL     1       4.639  -0.187   3.754  0.00  0.00    +0.000 A 
ATOM      8  N   UNL     1       5.233  -0.020   5.006  0.00  0.00    +0.000 N 
ATOM     16  N   UNL     1       4.227  -1.400   3.339  0.00  0.00    +0.000 NA
ATOM     17  C   UNL     1       3.597  -1.477   2.136  0.00  0.00    +0.000 A 
ATOM     20  H   UNL     1       6.178   0.335   4.911  0.00  0.00    +0.000 HD
ENDROOT
BRANCH   4   2
ATOM      1  N   UNL     1       2.812   0.352  -0.937  0.00  0.00    +0.000 N 
ATOM      2  C   UNL     1       2.637  -0.589   0.039  0.00  0.00    +0.000 C 
ATOM      3  O   UNL     1       1.936  -1.573  -0.149  0.00  0.00    +0.000 OA
ATOM     18  H   UNL     1       2.386   0.153  -1.835  0.00  0.00    +0.000 HD
ATOM     19  H   UNL     1       3.546   1.044  -0.911  0.00  0.00    +0.000 HD
ENDBRANCH   4   2
BRANCH   8   9
ATOM      9  C   UNL     1       5.152  -1.155   5.911  0.00  0.00    +0.000 C 
BRANCH   9  10
ATOM     10  C   UNL     1       5.452  -0.673   7.316  0.00  0.00    +0.000 A 
ATOM     11  C   UNL     1       4.764   0.433   7.846  0.00  0.00    +0.000 A 
ATOM     12  C   UNL     1       5.002   0.866   9.150  0.00  0.00    +0.000 A 
ATOM     13  C   UNL     1       5.921   0.193   9.946  0.00  0.00    +0.000 A 
ATOM     14  C   UNL     1       6.608  -0.911   9.438  0.00  0.00    +0.000 A 
ATOM     15  C   UNL     1       6.374  -1.343   8.130  0.00  0.00    +0.000 A 
ENDBRANCH   9  10
ENDBRANCH   8   9
TORSDOF 3
