REMARK  Name = 
REMARK  4 active torsions:
REMARK  status: ('A' for Active; 'I' for Inactive)
REMARK    1  A    between atoms: C_1  and  C_2
REMARK    2  A    between atoms: C_2  and  N_3
REMARK    3  A    between atoms: C_2  and  C_13
REMARK    4  A    between atoms: C_7  and  C_8
REMARK                            x       y       z     vdW  Elec       q    Type
REMARK                         _______ _______ _______ _____ _____    ______ ____
ROOT
ATOM      3  N   UNL     1       2.614  -0.904   1.168  0.00  0.00    +0.000 N 
ATOM      4  C   UNL     1       2.232  -0.466   2.437  0.00  0.00    +0.000 A 
ATOM      5  C   UNL     1       2.006  -1.442   3.406  0.00  0.00    +0.000 A 
ATOM      6  C   UNL     1       1.635  -1.065   4.694  0.00  0.00    +0.000 A 
ATOM      7  C   UNL     1       1.541   0.288   5.014  0.00  0.00    +0.000 A 
ATOM     11  C   UNL     1       1.813   1.193   3.997  0.00  0.00    +0.000 A 
ATOM     12  N   UNL     1       2.145   0.846   2.723  0.00  0.00    +0.000 NA
ATOM     19  H   UNL     1       3.596  -1.169   1.217  0.00  0.00    +0.000 HD
ENDROOT
BRANCH   7   8
ATOM      8  C   UNL     1       1.165   0.671   6.397  0.00  0.00    +0.000 C 
ATOM      9  N   UNL     1       1.122   1.996   6.736  0.00  0.00    +0.000 N 
ATOM     10  O   UNL     1       0.897  -0.178   7.238  0.00  0.00    +0.000 OA
ATOM     20  H   UNL     1       1.343   2.771   6.132  0.00  0.00    +0.000 HD
ATOM     21  H   UNL     1       0.868   2.204   7.692  0.00  0.00    +0.000 HD
ENDBRANCH   7   8
BRANCH   3   2
ATOM      1  C   UNL     1       0.863   0.179  -0.190  0.00  0.00    +0.000 C 
ATOM      2  C   UNL     1       2.369  -0.019   0.028  0.00  0.00    +0.000 C 
BRANCH   2  13
ATOM     13  C   UNL     1       2.948  -0.663  -1.233  0.00  0.00    +0.000 A 
ATOM     14  C   UNL     1       3.445   0.146  -2.269  0.00  0.00    +0.000 A 
ATOM     15  C   UNL     1       3.904  -0.424  -3.459  0.00  0.00    +0.000 A 
ATOM     16  C   UNL     1       3.880  -1.807  -3.630  0.00  0.00    +0.000 A 
ATOM     17  C   UNL     1       3.393  -2.623  -2.613  0.00  0.00    +0.000 A 
ATOM     18  C   UNL     1       2.923  -2.056  -1.428  0.00  0.00    +0.000 A 
ENDBRANCH   2  13
ENDBRANCH   3   2
TORSDOF 3
