REMARK  Name = 
REMARK  4 active torsions:
REMARK  status: ('A' for Active; 'I' for Inactive)
REMARK    1  A    between atoms: C_1  and  C_2
REMARK    2  A    between atoms: C_2  and  N_3
REMARK    3  A    between atoms: C_2  and  C_13
REMARK    4  A    between atoms: C_7  and  C_8
REMARK                            x       y       z     vdW  Elec       q    Type
REMARK                         _______ _______ _______ _____ _____    ______ ____
ROOT
ATOM      3  N   UNL     1       2.788   1.434  -0.132  0.00  0.00    +0.000 N 
ATOM      4  C   UNL     1       2.422   2.084  -1.313  0.00  0.00    +0.000 A 
ATOM      5  C   UNL     1       2.198   3.456  -1.254  0.00  0.00    +0.000 A 
ATOM      6  C   UNL     1       1.774   4.133  -2.397  0.00  0.00    +0.000 A 
ATOM      7  C   UNL     1       1.632   3.437  -3.596  0.00  0.00    +0.000 A 
ATOM     11  C   UNL     1       1.935   2.085  -3.577  0.00  0.00    +0.000 A 
ATOM     12  N   UNL     1       2.316   1.399  -2.467  0.00  0.00    +0.000 NA
ATOM     19  H   UNL     1       3.773   1.622   0.038  0.00  0.00    +0.000 HD
ENDROOT
BRANCH   7   8
ATOM      8  C   UNL     1       1.157   4.158  -4.802  0.00  0.00    +0.000 C 
ATOM      9  N   UNL     1       1.044   3.483  -5.982  0.00  0.00    +0.000 N 
ATOM     10  O   UNL     1       0.861   5.350  -4.750  0.00  0.00    +0.000 OA
ATOM     20  H   UNL     1       1.254   2.508  -6.138  0.00  0.00    +0.000 HD
ATOM     21  H   UNL     1       0.704   4.016  -6.774  0.00  0.00    +0.000 HD
ENDBRANCH   7   8
BRANCH   3   2
ATOM      1  C   UNL     1       0.986  -0.254  -0.061  0.00  0.00    +0.000 C 
ATOM      2  C   UNL     1       2.500  -0.001  -0.044  0.00  0.00    +0.000 C 
BRANCH   2  13
ATOM     13  C   UNL     1       3.093  -0.506   1.269  0.00  0.00    +0.000 A 
ATOM     14  C   UNL     1       4.022  -1.557   1.275  0.00  0.00    +0.000 A 
ATOM     15  C   UNL     1       4.594  -1.991   2.475  0.00  0.00    +0.000 A 
ATOM     16  C   UNL     1       4.242  -1.385   3.680  0.00  0.00    +0.000 A 
ATOM     17  C   UNL     1       3.306  -0.355   3.692  0.00  0.00    +0.000 A 
ATOM     18  C   UNL     1       2.734   0.080   2.496  0.00  0.00    +0.000 A 
ENDBRANCH   2  13
ENDBRANCH   3   2
TORSDOF 3
