REMARK  Name = 
REMARK  13 active torsions:
REMARK  status: ('A' for Active; 'I' for Inactive)
REMARK    1  A    between atoms: N_2  and  C_3
REMARK    2  A    between atoms: C_3  and  C_4
REMARK    3  A    between atoms: C_4  and  C_5
REMARK    4  A    between atoms: C_5  and  C_6
REMARK    5  A    between atoms: C_6  and  C_7
REMARK    6  A    between atoms: C_7  and  C_8
REMARK    7  A    between atoms: C_8  and  C_9
REMARK    8  A    between atoms: C_9  and  N_10
REMARK    9  A    between atoms: N_10  and  C_11
REMARK   10  A    between atoms: C_11  and  C_12
REMARK   11  A    between atoms: C_15  and  C_16
REMARK   12  A    between atoms: C_16  and  N_17
REMARK   13  A    between atoms: C_18  and  C_20
REMARK                            x       y       z     vdW  Elec       q    Type
REMARK                         _______ _______ _______ _____ _____    ______ ____
ROOT
ATOM      1 CL   UNL     1      -0.150  -2.413  -0.983  0.00  0.00    +0.000 Cl
ATOM      2  H   UNL     1       0.476  -1.436  -0.252  0.00  0.00    +0.000 HD
ENDROOT
TORSDOF 0
REMARK  Name = 
REMARK  13 active torsions:
REMARK  status: ('A' for Active; 'I' for Inactive)
REMARK    1  A    between atoms: N_2  and  C_3
REMARK    2  A    between atoms: C_3  and  C_4
REMARK    3  A    between atoms: C_4  and  C_5
REMARK    4  A    between atoms: C_5  and  C_6
REMARK    5  A    between atoms: C_6  and  C_7
REMARK    6  A    between atoms: C_7  and  C_8
REMARK    7  A    between atoms: C_8  and  C_9
REMARK    8  A    between atoms: C_9  and  N_10
REMARK    9  A    between atoms: N_10  and  C_11
REMARK   10  A    between atoms: C_11  and  C_12
REMARK   11  A    between atoms: C_15  and  C_16
REMARK   12  A    between atoms: C_16  and  N_17
REMARK   13  A    between atoms: C_18  and  C_20
REMARK                            x       y       z     vdW  Elec       q    Type
REMARK                         _______ _______ _______ _____ _____    ______ ____
ROOT
ATOM     11  C   UNL     1      11.043  -5.110   4.927  0.00  0.00    +0.000 A 
ATOM     12  C   UNL     1      10.708  -6.463   4.754  0.00  0.00    +0.000 A 
ATOM     13  C   UNL     1      11.120  -7.415   5.684  0.00  0.00    +0.000 A 
ATOM     14  C   UNL     1      11.879  -7.029   6.798  0.00  0.00    +0.000 A 
ATOM     29  C   UNL     1      12.227  -5.682   6.966  0.00  0.00    +0.000 A 
ATOM     30  C   UNL     1      11.809  -4.726   6.039  0.00  0.00    +0.000 A 
ENDROOT
BRANCH  11  10
ATOM     10  C   UNL     1      10.581  -4.088   3.929  0.00  0.00    +0.000 C 
BRANCH  10   9
ATOM      9  N   UNL     1       9.117  -4.069   3.888  0.00  0.00    +0.000 NA
ATOM     33  H   UNL     1       8.766  -5.010   3.597  0.00  0.00    +0.000 HD
BRANCH   9   8
ATOM      8  C   UNL     1       8.652  -3.099   2.902  0.00  0.00    +0.000 C 
BRANCH   8   7
ATOM      7  C   UNL     1       7.130  -3.127   2.849  0.00  0.00    +0.000 C 
BRANCH   7   6
ATOM      6  C   UNL     1       6.634  -2.125   1.818  0.00  0.00    +0.000 C 
BRANCH   6   5
ATOM      5  C   UNL     1       5.113  -2.127   1.766  0.00  0.00    +0.000 C 
BRANCH   5   4
ATOM      4  C   UNL     1       4.637  -1.092   0.751  0.00  0.00    +0.000 C 
BRANCH   4   3
ATOM      3  C   UNL     1       3.113  -1.018   0.663  0.00  0.00    +0.000 C 
BRANCH   3   2
ATOM      2  C   UNL     1       2.415  -0.619   1.981  0.00  0.00    +0.000 C 
BRANCH   2   1
ATOM      1  N   UNL     1       2.919   0.642   2.526  0.00  0.00    +0.000 NA
ATOM     31  H   UNL     1       3.821   0.478   3.029  0.00  0.00    +0.000 HD
ATOM     32  H   UNL     1       3.076   1.335   1.757  0.00  0.00    +0.000 HD
ENDBRANCH   2   1
ENDBRANCH   3   2
ENDBRANCH   4   3
ENDBRANCH   5   4
ENDBRANCH   6   5
ENDBRANCH   7   6
ENDBRANCH   8   7
ENDBRANCH   9   8
ENDBRANCH  10   9
ENDBRANCH  11  10
BRANCH  14  15
ATOM     15  C   UNL     1      12.344  -8.060   7.784  0.00  0.00    +0.000 C 
BRANCH  15  16
ATOM     16  N   UNL     1      13.637  -8.581   7.384  0.00  0.00    +0.000 N 
ATOM     17  C   UNL     1      14.244  -9.594   8.061  0.00  0.00    +0.000 C 
ATOM     18  O   UNL     1      13.688 -10.080   9.033  0.00  0.00    +0.000 OA
ATOM     34  H   UNL     1      14.078  -8.198   6.535  0.00  0.00    +0.000 HD
BRANCH  17  19
ATOM     19  C   UNL     1      15.564 -10.127   7.606  0.00  0.00    +0.000 A 
ATOM     20  C   UNL     1      16.429  -9.366   6.800  0.00  0.00    +0.000 A 
ATOM     21  S   UNL     1      17.829 -10.236   6.455  0.00  0.00    +0.000 S 
ATOM     22  C   UNL     1      17.356 -11.592   7.305  0.00  0.00    +0.000 A 
ATOM     23  N   UNL     1      18.059 -12.743   7.410  0.00  0.00    +0.000 NA
ATOM     24  C   UNL     1      17.532 -13.779   8.114  0.00  0.00    +0.000 A 
ATOM     25  N   UNL     1      16.313 -13.660   8.713  0.00  0.00    +0.000 N 
ATOM     26  C   UNL     1      15.581 -12.499   8.618  0.00  0.00    +0.000 A 
ATOM     27  O   UNL     1      14.486 -12.447   9.142  0.00  0.00    +0.000 OA
ATOM     28  C   UNL     1      16.112 -11.412   7.889  0.00  0.00    +0.000 A 
ATOM     35  H   UNL     1      15.925 -14.475   9.234  0.00  0.00    +0.000 HD
ENDBRANCH  17  19
ENDBRANCH  15  16
ENDBRANCH  14  15
TORSDOF 13
