REMARK  Name = 
REMARK  5 active torsions:
REMARK  status: ('A' for Active; 'I' for Inactive)
REMARK    1  A    between atoms: C_2  and  C_18
REMARK    2  A    between atoms: N_3  and  C_4
REMARK    3  A    between atoms: C_4  and  C_5
REMARK    4  A    between atoms: C_8  and  C_9
REMARK    5  A    between atoms: C_9  and  N_10
REMARK                            x       y       z     vdW  Elec       q    Type
REMARK                         _______ _______ _______ _____ _____    ______ ____
ROOT
ATOM      1  O   UNL     1       1.071  -0.640   0.034  0.00  0.00    +0.000 OA
ATOM      2  C   UNL     1       2.268  -0.370  -0.024  0.00  0.00    +0.000 C 
ATOM      3  N   UNL     1       2.962   0.107   1.060  0.00  0.00    +0.000 N 
ATOM     28  H   UNL     1       3.877   0.523   0.918  0.00  0.00    +0.000 HD
ENDROOT
BRANCH   2  18
ATOM     18  C   UNL     1       3.040  -0.582  -1.253  0.00  0.00    +0.000 A 
ATOM     19  C   UNL     1       2.611  -1.513  -2.188  0.00  0.00    +0.000 A 
ATOM     20  S   UNL     1       3.632  -1.637  -3.548  0.00  0.00    +0.000 S 
ATOM     21  C   UNL     1       4.658  -0.416  -2.957  0.00  0.00    +0.000 A 
ATOM     22  N   UNL     1       5.740   0.003  -3.676  0.00  0.00    +0.000 NA
ATOM     23  C   UNL     1       6.411   0.950  -3.116  0.00  0.00    +0.000 A 
ATOM     24  N   UNL     1       6.109   1.521  -1.911  0.00  0.00    +0.000 N 
ATOM     25  C   UNL     1       5.049   1.113  -1.137  0.00  0.00    +0.000 A 
ATOM     26  O   UNL     1       4.841   1.603  -0.032  0.00  0.00    +0.000 OA
ATOM     27  C   UNL     1       4.244   0.059  -1.724  0.00  0.00    +0.000 A 
ATOM     29  H   UNL     1       6.689   2.250  -1.526  0.00  0.00    +0.000 HD
ENDBRANCH   2  18
BRANCH   3   4
ATOM      4  C   UNL     1       2.277   0.451   2.278  0.00  0.00    +0.000 C 
BRANCH   4   5
ATOM      5  C   UNL     1       3.222   1.003   3.314  0.00  0.00    +0.000 A 
ATOM      6  C   UNL     1       3.480   2.379   3.359  0.00  0.00    +0.000 A 
ATOM      7  C   UNL     1       4.305   2.921   4.347  0.00  0.00    +0.000 A 
ATOM      8  C   UNL     1       4.900   2.103   5.315  0.00  0.00    +0.000 A 
ATOM     16  C   UNL     1       4.698   0.716   5.226  0.00  0.00    +0.000 A 
ATOM     17  C   UNL     1       3.871   0.170   4.234  0.00  0.00    +0.000 A 
BRANCH   8   9
ATOM      9  C   UNL     1       5.785   2.703   6.386  0.00  0.00    +0.000 C 
BRANCH   9  10
ATOM     10  N   UNL     1       5.174   3.184   7.626  0.00  0.00    +0.000 NA
ATOM     11  C   UNL     1       4.489   2.186   8.452  0.00  0.00    +0.000 C 
ATOM     12  C   UNL     1       2.992   2.036   8.144  0.00  0.00    +0.000 C 
ATOM     13  O   UNL     1       2.315   3.295   8.248  0.00  0.00    +0.000 OA
ATOM     14  C   UNL     1       2.883   4.257   7.352  0.00  0.00    +0.000 C 
ATOM     15  C   UNL     1       4.399   4.427   7.559  0.00  0.00    +0.000 C 
ENDBRANCH   9  10
ENDBRANCH   8   9
ENDBRANCH   4   5
ENDBRANCH   3   4
TORSDOF 5
