REMARK  Name = 
REMARK  9 active torsions:
REMARK  status: ('A' for Active; 'I' for Inactive)
REMARK    1  A    between atoms: C_1  and  C_2
REMARK    2  A    between atoms: C_2  and  N_3
REMARK    3  A    between atoms: N_3  and  C_4
REMARK    4  A    between atoms: N_3  and  C_11
REMARK    5  A    between atoms: C_4  and  C_5
REMARK    6  A    between atoms: C_11  and  C_12
REMARK    7  A    between atoms: C_15  and  C_16
REMARK    8  A    between atoms: C_16  and  N_17
REMARK    9  A    between atoms: C_18  and  C_20
REMARK                            x       y       z     vdW  Elec       q    Type
REMARK                         _______ _______ _______ _____ _____    ______ ____
ROOT
ATOM     12  C   UNL     1       5.079  -0.010  -2.683  0.00  0.00    +0.000 A 
ATOM     13  C   UNL     1       5.360   1.227  -3.278  0.00  0.00    +0.000 A 
ATOM     14  C   UNL     1       5.859   1.293  -4.584  0.00  0.00    +0.000 A 
ATOM     15  C   UNL     1       6.086   0.123  -5.321  0.00  0.00    +0.000 A 
ATOM     30  C   UNL     1       5.851  -1.115  -4.706  0.00  0.00    +0.000 A 
ATOM     31  C   UNL     1       5.344  -1.182  -3.405  0.00  0.00    +0.000 A 
ENDROOT
BRANCH  15  16
ATOM     16  C   UNL     1       6.597   0.175  -6.740  0.00  0.00    +0.000 C 
BRANCH  16  17
ATOM     17  N   UNL     1       8.036   0.152  -6.776  0.00  0.00    +0.000 N 
ATOM     18  C   UNL     1       8.734   0.229  -7.950  0.00  0.00    +0.000 C 
ATOM     19  O   UNL     1       8.185   0.355  -9.042  0.00  0.00    +0.000 OA
ATOM     32  H   UNL     1       8.497  -0.228  -5.956  0.00  0.00    +0.000 HD
BRANCH  18  20
ATOM     20  C   UNL     1      10.200   0.221  -7.823  0.00  0.00    +0.000 A 
ATOM     21  C   UNL     1      10.988   0.832  -8.790  0.00  0.00    +0.000 A 
ATOM     22  S   UNL     1      12.657   0.786  -8.436  0.00  0.00    +0.000 S 
ATOM     23  C   UNL     1      12.387  -0.109  -7.016  0.00  0.00    +0.000 A 
ATOM     24  N   UNL     1      13.424  -0.508  -6.230  0.00  0.00    +0.000 NA
ATOM     25  C   UNL     1      13.075  -1.196  -5.194  0.00  0.00    +0.000 A 
ATOM     26  N   UNL     1      11.785  -1.516  -4.868  0.00  0.00    +0.000 N 
ATOM     27  C   UNL     1      10.703  -1.110  -5.616  0.00  0.00    +0.000 A 
ATOM     28  O   UNL     1       9.559  -1.374  -5.271  0.00  0.00    +0.000 OA
ATOM     29  C   UNL     1      11.042  -0.345  -6.796  0.00  0.00    +0.000 A 
ATOM     33  H   UNL     1      11.577  -2.046  -4.038  0.00  0.00    +0.000 HD
ENDBRANCH  18  20
ENDBRANCH  16  17
ENDBRANCH  15  16
BRANCH  12  11
ATOM     11  C   UNL     1       4.462  -0.080  -1.297  0.00  0.00    +0.000 C 
BRANCH  11   3
ATOM      3  N   UNL     1       3.143   0.598  -1.196  0.00  0.00    +0.000 NA
BRANCH   3   2
ATOM      1  C   UNL     1       0.771   0.481  -2.185  0.00  0.00    +0.000 C 
ATOM      2  C   UNL     1       2.189  -0.078  -2.113  0.00  0.00    +0.000 C 
ENDBRANCH   3   2
BRANCH   3   4
ATOM      4  C   UNL     1       2.670   0.558   0.204  0.00  0.00    +0.000 C 
BRANCH   4   5
ATOM      5  C   UNL     1       3.543   1.277   1.224  0.00  0.00    +0.000 A 
ATOM      6  C   UNL     1       3.805   2.651   1.120  0.00  0.00    +0.000 A 
ATOM      7  C   UNL     1       4.456   3.333   2.154  0.00  0.00    +0.000 A 
ATOM      8  C   UNL     1       4.872   2.647   3.295  0.00  0.00    +0.000 A 
ATOM      9  C   UNL     1       4.676   1.272   3.384  0.00  0.00    +0.000 A 
ATOM     10  C   UNL     1       4.019   0.591   2.355  0.00  0.00    +0.000 A 
ENDBRANCH   4   5
ENDBRANCH   3   4
ENDBRANCH  11   3
ENDBRANCH  12  11
TORSDOF 8
