REMARK  Name = 
REMARK  4 active torsions:
REMARK  status: ('A' for Active; 'I' for Inactive)
REMARK    1  A    between atoms: C_1  and  C_2
REMARK    2  A    between atoms: C_2  and  N_3
REMARK    3  A    between atoms: C_2  and  C_13
REMARK    4  A    between atoms: C_7  and  C_8
REMARK                            x       y       z     vdW  Elec       q    Type
REMARK                         _______ _______ _______ _____ _____    ______ ____
ROOT
ATOM      3  N   UNL     1       0.950  -0.355   0.354  0.00  0.00    +0.000 N 
ATOM      4  C   UNL     1      -0.055   0.356  -0.304  0.00  0.00    +0.000 A 
ATOM      5  C   UNL     1      -1.304  -0.260  -0.391  0.00  0.00    +0.000 A 
ATOM      6  C   UNL     1      -2.355   0.380  -1.046  0.00  0.00    +0.000 A 
ATOM      7  C   UNL     1      -2.169   1.658  -1.567  0.00  0.00    +0.000 A 
ATOM     11  C   UNL     1      -0.912   2.221  -1.400  0.00  0.00    +0.000 A 
ATOM     12  N   UNL     1       0.145   1.591  -0.800  0.00  0.00    +0.000 NA
ATOM     19  H   UNL     1       0.721  -0.406   1.340  0.00  0.00    +0.000 HD
ENDROOT
BRANCH   7   8
ATOM      8  C   UNL     1      -3.305   2.304  -2.270  0.00  0.00    +0.000 C 
ATOM      9  N   UNL     1      -3.179   3.593  -2.711  0.00  0.00    +0.000 N 
ATOM     10  O   UNL     1      -4.355   1.700  -2.463  0.00  0.00    +0.000 OA
ATOM     20  H   UNL     1      -2.388   4.194  -2.571  0.00  0.00    +0.000 HD
ATOM     21  H   UNL     1      -3.990   3.984  -3.180  0.00  0.00    +0.000 HD
ENDBRANCH   7   8
BRANCH   3   2
ATOM      1  C   UNL     1       2.817   1.177   0.929  0.00  0.00    +0.000 C 
ATOM      2  C   UNL     1       2.350  -0.023   0.104  0.00  0.00    +0.000 C 
BRANCH   2  13
ATOM     13  C   UNL     1       3.243  -1.212   0.483  0.00  0.00    +0.000 A 
ATOM     14  C   UNL     1       4.399  -1.475  -0.274  0.00  0.00    +0.000 A 
ATOM     15  C   UNL     1       5.339  -2.417   0.154  0.00  0.00    +0.000 A 
ATOM     16  C   UNL     1       5.134  -3.121   1.338  0.00  0.00    +0.000 A 
ATOM     17  C   UNL     1       3.972  -2.912   2.075  0.00  0.00    +0.000 A 
ATOM     18  C   UNL     1       3.032  -1.968   1.650  0.00  0.00    +0.000 A 
ENDBRANCH   2  13
ENDBRANCH   3   2
TORSDOF 3
