REMARK  Name = 
REMARK  6 active torsions:
REMARK  status: ('A' for Active; 'I' for Inactive)
REMARK    1  A    between atoms: C_2  and  C_23
REMARK    2  A    between atoms: N_3  and  C_4
REMARK    3  A    between atoms: C_4  and  C_5
REMARK    4  A    between atoms: C_8  and  C_9
REMARK    5  A    between atoms: C_9  and  N_10
REMARK    6  A    between atoms: N_10  and  C_11
REMARK                            x       y       z     vdW  Elec       q    Type
REMARK                         _______ _______ _______ _____ _____    ______ ____
ROOT
ATOM      5  C   UNL     1       3.219   0.070  -3.463  0.00  0.00    +0.000 A 
ATOM      6  C   UNL     1       3.676   1.275  -4.014  0.00  0.00    +0.000 A 
ATOM      7  C   UNL     1       4.610   1.271  -5.051  0.00  0.00    +0.000 A 
ATOM      8  C   UNL     1       5.093   0.061  -5.562  0.00  0.00    +0.000 A 
ATOM     21  C   UNL     1       4.614  -1.144  -5.028  0.00  0.00    +0.000 A 
ATOM     22  C   UNL     1       3.679  -1.141  -3.994  0.00  0.00    +0.000 A 
ENDROOT
BRANCH   5   4
ATOM      4  C   UNL     1       2.211   0.078  -2.346  0.00  0.00    +0.000 C 
BRANCH   4   3
ATOM      1  O   UNL     1       0.590   2.345  -2.701  0.00  0.00    +0.000 OA
ATOM      2  C   UNL     1       0.171   1.250  -3.068  0.00  0.00    +0.000 C 
ATOM      3  N   UNL     1       0.868   0.088  -2.865  0.00  0.00    +0.000 N 
ATOM     33  H   UNL     1       0.575  -0.754  -3.347  0.00  0.00    +0.000 HD
BRANCH   2  23
ATOM     23  C   UNL     1      -1.144   1.111  -3.707  0.00  0.00    +0.000 A 
ATOM     24  C   UNL     1      -2.103   2.096  -3.523  0.00  0.00    +0.000 A 
ATOM     25  S   UNL     1      -3.571   1.777  -4.329  0.00  0.00    +0.000 S 
ATOM     26  C   UNL     1      -2.956   0.338  -4.997  0.00  0.00    +0.000 A 
ATOM     27  N   UNL     1      -3.708  -0.419  -5.838  0.00  0.00    +0.000 NA
ATOM     28  C   UNL     1      -3.102  -1.455  -6.311  0.00  0.00    +0.000 A 
ATOM     29  N   UNL     1      -1.814  -1.815  -6.003  0.00  0.00    +0.000 N 
ATOM     30  C   UNL     1      -1.051  -1.130  -5.089  0.00  0.00    +0.000 A 
ATOM     31  O   UNL     1       0.036  -1.568  -4.720  0.00  0.00    +0.000 OA
ATOM     32  C   UNL     1      -1.662   0.082  -4.578  0.00  0.00    +0.000 A 
ATOM     35  H   UNL     1      -1.411  -2.660  -6.379  0.00  0.00    +0.000 HD
ENDBRANCH   2  23
ENDBRANCH   4   3
ENDBRANCH   5   4
BRANCH   8   9
ATOM      9  C   UNL     1       6.028   0.038  -6.743  0.00  0.00    +0.000 C 
BRANCH   9  10
ATOM     10  N   UNL     1       7.320   0.681  -6.481  0.00  0.00    +0.000 NA
ATOM     34  H   UNL     1       7.731   0.256  -5.650  0.00  0.00    +0.000 HD
BRANCH  10  11
ATOM     11  C   UNL     1       8.268   0.597  -7.610  0.00  0.00    +0.000 C 
ATOM     12  C   UNL     1       7.718   1.336  -8.859  0.00  0.00    +0.000 C 
ATOM     13  C   UNL     1       8.720   1.266 -10.020  0.00  0.00    +0.000 C 
ATOM     14  C   UNL     1      10.029   1.947  -9.600  0.00  0.00    +0.000 C 
ATOM     15  C   UNL     1      10.618   1.236  -8.371  0.00  0.00    +0.000 C 
ATOM     16  C   UNL     1      10.904  -0.230  -8.733  0.00  0.00    +0.000 C 
ATOM     17  C   UNL     1       9.603  -0.929  -9.147  0.00  0.00    +0.000 C 
ATOM     18  C   UNL     1       8.991  -0.209 -10.360  0.00  0.00    +0.000 C 
ATOM     19  C   UNL     1       8.608  -0.873  -7.979  0.00  0.00    +0.000 C 
ATOM     20  C   UNL     1       9.602   1.292  -7.209  0.00  0.00    +0.000 C 
ENDBRANCH  10  11
ENDBRANCH   9  10
ENDBRANCH   8   9
TORSDOF 6
