REMARK  Name = 
REMARK  7 active torsions:
REMARK  status: ('A' for Active; 'I' for Inactive)
REMARK    1  A    between atoms: C_1  and  O_2
REMARK    2  A    between atoms: O_2  and  C_3
REMARK    3  A    between atoms: C_10  and  C_11
REMARK    4  A    between atoms: N_13  and  C_14
REMARK    5  A    between atoms: C_14  and  C_15
REMARK    6  A    between atoms: C_18  and  C_19
REMARK    7  A    between atoms: C_19  and  N_20
REMARK                            x       y       z     vdW  Elec       q    Type
REMARK                         _______ _______ _______ _____ _____    ______ ____
ROOT
ATOM     11  C   UNL     1       3.300  -3.032  -4.193  0.00  0.00    +0.000 C 
ATOM     12  O   UNL     1       4.323  -2.344  -4.198  0.00  0.00    +0.000 OA
ATOM     13  N   UNL     1       2.540  -3.176  -3.067  0.00  0.00    +0.000 N 
ATOM     29  H   UNL     1       1.700  -3.746  -3.085  0.00  0.00    +0.000 HD
ENDROOT
BRANCH  11  10
ATOM      3  C   UNL     1       0.587  -5.050  -4.895  0.00  0.00    +0.000 A 
ATOM      4  N   UNL     1      -0.347  -5.857  -5.440  0.00  0.00    +0.000 NA
ATOM      5  C   UNL     1      -0.235  -6.177  -6.728  0.00  0.00    +0.000 A 
ATOM      6  N   UNL     1       0.722  -5.785  -7.565  0.00  0.00    +0.000 NA
ATOM      7  C   UNL     1       1.637  -4.993  -6.985  0.00  0.00    +0.000 A 
ATOM      8  S   UNL     1       2.925  -4.398  -7.915  0.00  0.00    +0.000 S 
ATOM      9  C   UNL     1       3.559  -3.555  -6.586  0.00  0.00    +0.000 A 
ATOM     10  C   UNL     1       2.827  -3.709  -5.416  0.00  0.00    +0.000 A 
ATOM     28  C   UNL     1       1.667  -4.571  -5.657  0.00  0.00    +0.000 A 
BRANCH   3   2
ATOM      1  C   UNL     1      -0.921  -4.816  -3.134  0.00  0.00    +0.000 C 
ATOM      2  O   UNL     1       0.441  -4.727  -3.559  0.00  0.00    +0.000 OA
ENDBRANCH   3   2
ENDBRANCH  11  10
BRANCH  13  14
ATOM     14  C   UNL     1       2.901  -2.579  -1.801  0.00  0.00    +0.000 C 
BRANCH  14  15
ATOM     15  C   UNL     1       1.946  -2.954  -0.688  0.00  0.00    +0.000 A 
ATOM     16  C   UNL     1       2.115  -4.139   0.045  0.00  0.00    +0.000 A 
ATOM     17  C   UNL     1       1.241  -4.488   1.098  0.00  0.00    +0.000 A 
ATOM     18  C   UNL     1       0.140  -3.684   1.432  0.00  0.00    +0.000 A 
ATOM     26  C   UNL     1      -0.028  -2.502   0.690  0.00  0.00    +0.000 A 
ATOM     27  C   UNL     1       0.852  -2.147  -0.356  0.00  0.00    +0.000 A 
BRANCH  18  19
ATOM     19  C   UNL     1      -0.937  -4.173   2.417  0.00  0.00    +0.000 C 
BRANCH  19  20
ATOM     20  N   UNL     1      -0.880  -3.769   3.843  0.00  0.00    +0.000 NA
ATOM     21  C   UNL     1      -2.068  -4.288   4.598  0.00  0.00    +0.000 C 
ATOM     22  C   UNL     1      -3.406  -3.616   4.215  0.00  0.00    +0.000 C 
ATOM     23  O   UNL     1      -3.331  -2.196   4.390  0.00  0.00    +0.000 OA
ATOM     24  C   UNL     1      -2.219  -1.643   3.673  0.00  0.00    +0.000 C 
ATOM     25  C   UNL     1      -0.888  -2.309   4.066  0.00  0.00    +0.000 C 
ENDBRANCH  19  20
ENDBRANCH  18  19
ENDBRANCH  14  15
ENDBRANCH  13  14
TORSDOF 6
