REMARK  Name = 
REMARK  5 active torsions:
REMARK  status: ('A' for Active; 'I' for Inactive)
REMARK    1  A    between atoms: N_1  and  C_2
REMARK    2  A    between atoms: C_2  and  C_3
REMARK    3  A    between atoms: C_7  and  C_8
REMARK    4  A    between atoms: C_8  and  N_9
REMARK    5  A    between atoms: C_13  and  C_14
REMARK                            x       y       z     vdW  Elec       q    Type
REMARK                         _______ _______ _______ _____ _____    ______ ____
ROOT
ATOM      9  N   UNL     1       2.940  -4.517   4.297  0.00  0.00    +0.000 N 
ATOM     10  C   UNL     1       2.600  -5.856   4.556  0.00  0.00    +0.000 A 
ATOM     11  C   UNL     1       2.749  -6.344   5.852  0.00  0.00    +0.000 A 
ATOM     12  C   UNL     1       2.425  -7.675   6.128  0.00  0.00    +0.000 A 
ATOM     13  C   UNL     1       1.961  -8.502   5.106  0.00  0.00    +0.000 A 
ATOM     17  C   UNL     1       1.865  -7.941   3.844  0.00  0.00    +0.000 A 
ATOM     18  N   UNL     1       2.177  -6.653   3.555  0.00  0.00    +0.000 NA
ATOM     22  H   UNL     1       2.440  -3.910   4.939  0.00  0.00    +0.000 HD
ENDROOT
BRANCH  13  14
ATOM     14  C   UNL     1       1.591  -9.905   5.410  0.00  0.00    +0.000 C 
ATOM     15  N   UNL     1       1.104 -10.700   4.409  0.00  0.00    +0.000 N 
ATOM     16  O   UNL     1       1.705 -10.355   6.545  0.00  0.00    +0.000 OA
ATOM     23  H   UNL     1       0.955 -10.430   3.450  0.00  0.00    +0.000 HD
ATOM     24  H   UNL     1       0.847 -11.644   4.670  0.00  0.00    +0.000 HD
ENDBRANCH  13  14
BRANCH   9   8
ATOM      8  C   UNL     1       2.709  -4.127   2.909  0.00  0.00    +0.000 C 
BRANCH   8   7
ATOM      3  C   UNL     1       4.742  -0.896   2.626  0.00  0.00    +0.000 A 
ATOM      4  C   UNL     1       3.768  -0.019   2.131  0.00  0.00    +0.000 A 
ATOM      5  C   UNL     1       2.456  -0.449   1.936  0.00  0.00    +0.000 A 
ATOM      6  C   UNL     1       2.105  -1.769   2.217  0.00  0.00    +0.000 A 
ATOM      7  C   UNL     1       3.062  -2.672   2.700  0.00  0.00    +0.000 A 
ATOM     19  C   UNL     1       4.376  -2.221   2.911  0.00  0.00    +0.000 A 
BRANCH   3   2
ATOM      2  C   UNL     1       6.171  -0.445   2.793  0.00  0.00    +0.000 C 
BRANCH   2   1
ATOM      1  N   UNL     1       6.275   0.725   3.658  0.00  0.00    +0.000 NA
ATOM     20  H   UNL     1       7.258   0.909   3.846  0.00  0.00    +0.000 HD
ATOM     21  H   UNL     1       5.847   0.501   4.556  0.00  0.00    +0.000 HD
ENDBRANCH   2   1
ENDBRANCH   3   2
ENDBRANCH   8   7
ENDBRANCH   9   8
TORSDOF 5
