REMARK  Name = 
REMARK  3 active torsions:
REMARK  status: ('A' for Active; 'I' for Inactive)
REMARK    1  A    between atoms: C_2  and  C_4
REMARK    2  A    between atoms: N_8  and  C_9
REMARK    3  A    between atoms: C_9  and  C_10
REMARK                            x       y       z     vdW  Elec       q    Type
REMARK                         _______ _______ _______ _____ _____    ______ ____
ROOT
ATOM      4  C   UNL     1       3.343  -2.645   1.984  0.00  0.00    +0.000 A 
ATOM      5  C   UNL     1       2.632  -3.387   1.050  0.00  0.00    +0.000 A 
ATOM      6  C   UNL     1       3.313  -3.984  -0.017  0.00  0.00    +0.000 A 
ATOM      7  C   UNL     1       4.689  -3.820  -0.135  0.00  0.00    +0.000 A 
ATOM      8  N   UNL     1       5.436  -4.302  -1.210  0.00  0.00    +0.000 N 
ATOM     18  N   UNL     1       5.387  -3.090   0.760  0.00  0.00    +0.000 NA
ATOM     19  C   UNL     1       4.712  -2.515   1.790  0.00  0.00    +0.000 A 
ATOM     22  H   UNL     1       6.410  -4.103  -0.996  0.00  0.00    +0.000 HD
ENDROOT
BRANCH   4   2
ATOM      1  N   UNL     1       1.542  -2.495   3.600  0.00  0.00    +0.000 N 
ATOM      2  C   UNL     1       2.713  -1.964   3.133  0.00  0.00    +0.000 C 
ATOM      3  O   UNL     1       3.228  -0.988   3.667  0.00  0.00    +0.000 OA
ATOM     20  H   UNL     1       1.164  -2.080   4.444  0.00  0.00    +0.000 HD
ATOM     21  H   UNL     1       1.225  -3.420   3.354  0.00  0.00    +0.000 HD
ENDBRANCH   4   2
BRANCH   8   9
ATOM      9  C   UNL     1       5.160  -5.517  -1.988  0.00  0.00    +0.000 C 
ATOM     16  C   UNL     1       5.223  -5.314  -3.501  0.00  0.00    +0.000 C 
ATOM     17  C   UNL     1       3.934  -5.707  -2.866  0.00  0.00    +0.000 C 
BRANCH   9  10
ATOM     10  C   UNL     1       5.770  -6.795  -1.413  0.00  0.00    +0.000 A 
ATOM     11  C   UNL     1       5.068  -7.576  -0.477  0.00  0.00    +0.000 A 
ATOM     12  C   UNL     1       5.552  -8.816  -0.051  0.00  0.00    +0.000 A 
ATOM     13  C   UNL     1       6.762  -9.297  -0.543  0.00  0.00    +0.000 A 
ATOM     14  C   UNL     1       7.504  -8.523  -1.429  0.00  0.00    +0.000 A 
ATOM     15  C   UNL     1       7.018  -7.280  -1.846  0.00  0.00    +0.000 A 
ENDBRANCH   9  10
ENDBRANCH   8   9
TORSDOF 3
