REMARK  Name = 
REMARK  5 active torsions:
REMARK  status: ('A' for Active; 'I' for Inactive)
REMARK    1  A    between atoms: N_1  and  C_2
REMARK    2  A    between atoms: C_2  and  C_3
REMARK    3  A    between atoms: C_6  and  C_7
REMARK    4  A    between atoms: C_7  and  N_8
REMARK    5  A    between atoms: C_13  and  C_14
REMARK                            x       y       z     vdW  Elec       q    Type
REMARK                         _______ _______ _______ _____ _____    ______ ____
ROOT
ATOM      8  N   UNL     1       4.925   0.808  -5.895  0.00  0.00    +0.000 N 
ATOM      9  C   UNL     1       6.112   1.504  -5.803  0.00  0.00    +0.000 A 
ATOM     10  C   UNL     1       6.031   2.611  -6.619  0.00  0.00    +0.000 A 
ATOM     11  C   UNL     1       4.764   2.575  -7.259  0.00  0.00    +0.000 A 
ATOM     12  C   UNL     1       4.122   3.374  -8.219  0.00  0.00    +0.000 A 
ATOM     13  C   UNL     1       2.854   2.986  -8.661  0.00  0.00    +0.000 A 
ATOM     17  C   UNL     1       2.291   1.839  -8.103  0.00  0.00    +0.000 A 
ATOM     18  N   UNL     1       2.856   1.044  -7.150  0.00  0.00    +0.000 NA
ATOM     19  C   UNL     1       4.091   1.449  -6.786  0.00  0.00    +0.000 A 
ENDROOT
BRANCH  13  14
ATOM     14  C   UNL     1       2.098   3.727  -9.697  0.00  0.00    +0.000 C 
ATOM     15  N   UNL     1       2.658   4.840 -10.253  0.00  0.00    +0.000 N 
ATOM     16  O   UNL     1       0.980   3.355 -10.059  0.00  0.00    +0.000 OA
ATOM     24  H   UNL     1       3.550   5.237  -9.992  0.00  0.00    +0.000 HD
ATOM     25  H   UNL     1       2.113   5.338 -10.942  0.00  0.00    +0.000 HD
ENDBRANCH  13  14
BRANCH   8   7
ATOM      7  C   UNL     1       4.650  -0.462  -5.227  0.00  0.00    +0.000 C 
BRANCH   7   6
ATOM      3  C   UNL     1       2.936  -0.022  -1.257  0.00  0.00    +0.000 A 
ATOM      4  C   UNL     1       2.241   0.438  -2.379  0.00  0.00    +0.000 A 
ATOM      5  C   UNL     1       2.769   0.280  -3.664  0.00  0.00    +0.000 A 
ATOM      6  C   UNL     1       4.026  -0.312  -3.857  0.00  0.00    +0.000 A 
ATOM     20  C   UNL     1       4.700  -0.809  -2.732  0.00  0.00    +0.000 A 
ATOM     21  C   UNL     1       4.165  -0.667  -1.447  0.00  0.00    +0.000 A 
BRANCH   3   2
ATOM      2  C   UNL     1       2.361   0.185   0.119  0.00  0.00    +0.000 C 
BRANCH   2   1
ATOM      1  N   UNL     1       1.073  -0.480   0.254  0.00  0.00    +0.000 NA
ATOM     22  H   UNL     1       0.728  -0.361   1.203  0.00  0.00    +0.000 HD
ATOM     23  H   UNL     1       1.199  -1.480   0.106  0.00  0.00    +0.000 HD
ENDBRANCH   2   1
ENDBRANCH   3   2
ENDBRANCH   7   6
ENDBRANCH   8   7
TORSDOF 5
