REMARK  Name = 
REMARK  5 active torsions:
REMARK  status: ('A' for Active; 'I' for Inactive)
REMARK    1  A    between atoms: N_1  and  C_2
REMARK    2  A    between atoms: C_2  and  C_3
REMARK    3  A    between atoms: C_6  and  C_7
REMARK    4  A    between atoms: C_7  and  N_8
REMARK    5  A    between atoms: C_13  and  C_14
REMARK                            x       y       z     vdW  Elec       q    Type
REMARK                         _______ _______ _______ _____ _____    ______ ____
ROOT
ATOM      8  N   UNL     1       4.886  -6.057   2.421  0.00  0.00    +0.000 N 
ATOM      9  C   UNL     1       5.634  -6.816   1.547  0.00  0.00    +0.000 A 
ATOM     10  C   UNL     1       6.686  -7.361   2.241  0.00  0.00    +0.000 A 
ATOM     11  C   UNL     1       6.408  -7.163   3.615  0.00  0.00    +0.000 A 
ATOM     12  C   UNL     1       6.911  -7.752   4.785  0.00  0.00    +0.000 A 
ATOM     13  C   UNL     1       6.388  -7.369   6.029  0.00  0.00    +0.000 A 
ATOM     17  C   UNL     1       5.501  -6.290   6.106  0.00  0.00    +0.000 A 
ATOM     18  C   UNL     1       4.988  -5.688   4.946  0.00  0.00    +0.000 A 
ATOM     19  C   UNL     1       5.380  -6.221   3.706  0.00  0.00    +0.000 A 
ENDROOT
BRANCH  13  14
ATOM     14  C   UNL     1       6.757  -8.219   7.200  0.00  0.00    +0.000 C 
ATOM     15  N   UNL     1       6.223  -7.933   8.421  0.00  0.00    +0.000 N 
ATOM     16  O   UNL     1       7.479  -9.201   7.076  0.00  0.00    +0.000 OA
ATOM     24  H   UNL     1       5.565  -7.198   8.613  0.00  0.00    +0.000 HD
ATOM     25  H   UNL     1       6.417  -8.597   9.163  0.00  0.00    +0.000 HD
ENDBRANCH  13  14
BRANCH   8   7
ATOM      7  C   UNL     1       3.579  -5.505   2.063  0.00  0.00    +0.000 C 
BRANCH   7   6
ATOM      3  C   UNL     1       3.468  -1.268   1.120  0.00  0.00    +0.000 A 
ATOM      4  C   UNL     1       4.209  -2.152   0.319  0.00  0.00    +0.000 A 
ATOM      5  C   UNL     1       4.273  -3.515   0.627  0.00  0.00    +0.000 A 
ATOM      6  C   UNL     1       3.593  -4.031   1.743  0.00  0.00    +0.000 A 
ATOM     20  C   UNL     1       2.832  -3.144   2.524  0.00  0.00    +0.000 A 
ATOM     21  C   UNL     1       2.773  -1.789   2.216  0.00  0.00    +0.000 A 
BRANCH   3   2
ATOM      2  C   UNL     1       3.447   0.217   0.835  0.00  0.00    +0.000 C 
BRANCH   2   1
ATOM      1  N   UNL     1       2.864   0.531  -0.463  0.00  0.00    +0.000 NA
ATOM     22  H   UNL     1       2.794   1.545  -0.560  0.00  0.00    +0.000 HD
ATOM     23  H   UNL     1       1.913   0.168  -0.481  0.00  0.00    +0.000 HD
ENDBRANCH   2   1
ENDBRANCH   3   2
ENDBRANCH   7   6
ENDBRANCH   8   7
TORSDOF 5
