MODEL 1
REMARK VINA RESULT:    -8.984      0.000      0.000
REMARK INTER + INTRA:         -13.935
REMARK INTER:                 -12.398
REMARK INTRA:                  -1.537
REMARK UNBOUND:                -1.537
REMARK  Name = 
REMARK  7 active torsions:
REMARK  status: ('A' for Active; 'I' for Inactive)
REMARK    1  A    between atoms: N_1  and  C_2
REMARK    2  A    between atoms: C_2  and  C_3
REMARK    3  A    between atoms: C_2  and  C_24
REMARK    4  A    between atoms: C_3  and  C_4
REMARK    5  A    between atoms: C_7  and  C_8
REMARK    6  A    between atoms: C_8  and  N_9
REMARK    7  A    between atoms: C_10  and  C_12
REMARK                            x       y       z     vdW  Elec       q    Type
REMARK                         _______ _______ _______ _____ _____    ______ ____
ROOT
ATOM      1  C   UNL     1      44.727   5.646  13.161  0.00  0.00    +0.000 A 
ATOM      2  C   UNL     1      45.654   4.720  13.633  0.00  0.00    +0.000 A 
ATOM      3  C   UNL     1      46.978   5.115  13.802  0.00  0.00    +0.000 A 
ATOM      4  C   UNL     1      47.357   6.424  13.502  0.00  0.00    +0.000 A 
ATOM      5  C   UNL     1      46.366   7.284  13.048  0.00  0.00    +0.000 A 
ATOM      6  N   UNL     1      45.071   6.925  12.857  0.00  0.00    +0.000 NA
ENDROOT
BRANCH   1   7
ATOM      7  C   UNL     1      43.271   5.240  13.040  0.00  0.00    +0.000 C 
BRANCH   7   8
ATOM      8  C   UNL     1      42.680   5.189  11.620  0.00  0.00    +0.000 C 
BRANCH   8   9
ATOM      9  C   UNL     1      43.439   4.171  10.748  0.00  0.00    +0.000 C 
ATOM     10  O   UNL     1      43.393   2.976  11.038  0.00  0.00    +0.000 OA
ATOM     11  N   UNL     1      44.179   4.730   9.737  0.00  0.00    +0.000 N 
ATOM     12  C   UNL     1      44.977   4.025   8.854  0.00  0.00    +0.000 A 
ATOM     13  N   UNL     1      44.860   2.696   8.736  0.00  0.00    +0.000 NA
ATOM     14  C   UNL     1      45.733   2.065   7.925  0.00  0.00    +0.000 A 
ATOM     15  C   UNL     1      46.711   2.718   7.220  0.00  0.00    +0.000 A 
ATOM     16 CL   UNL     1      47.840   1.890   6.242  0.00  0.00    +0.000 Cl
ATOM     17  C   UNL     1      46.724   4.085   7.369  0.00  0.00    +0.000 A 
ATOM     18  N   UNL     1      45.865   4.764   8.167  0.00  0.00    +0.000 NA
ATOM     19  H   UNL     1      44.362   5.728   9.763  0.00  0.00    +0.000 HD
ENDBRANCH   8   9
BRANCH   8  20
ATOM     20  N   UNL     1      42.574   6.515  10.969  0.00  0.00    +0.000 NA
ATOM     21  H   UNL     1      42.368   7.221  11.675  0.00  0.00    +0.000 HD
ATOM     22  H   UNL     1      41.785   6.492  10.316  0.00  0.00    +0.000 HD
ENDBRANCH   8  20
ENDBRANCH   7   8
ENDBRANCH   1   7
BRANCH   4  23
ATOM     23  C   UNL     1      48.763   6.898  13.718  0.00  0.00    +0.000 C 
BRANCH  23  24
ATOM     24  N   UNL     1      49.173   6.709  15.086  0.00  0.00    +0.000 N 
ATOM     25  C   UNL     1      48.918   7.666  16.037  0.00  0.00    +0.000 C 
ATOM     26  O   UNL     1      48.304   8.695  15.766  0.00  0.00    +0.000 OA
ATOM     27  H   UNL     1      49.866   5.992  15.277  0.00  0.00    +0.000 HD
BRANCH  25  28
ATOM     28  C   UNL     1      49.355   7.372  17.407  0.00  0.00    +0.000 A 
ATOM     29  C   UNL     1      50.251   8.226  18.034  0.00  0.00    +0.000 A 
ATOM     30  S   UNL     1      50.618   7.780  19.637  0.00  0.00    +0.000 S 
ATOM     31  C   UNL     1      49.632   6.396  19.534  0.00  0.00    +0.000 A 
ATOM     32  N   UNL     1      49.518   5.542  20.585  0.00  0.00    +0.000 NA
ATOM     33  C   UNL     1      48.769   4.514  20.359  0.00  0.00    +0.000 A 
ATOM     34  N   UNL     1      48.119   4.268  19.176  0.00  0.00    +0.000 N 
ATOM     35  C   UNL     1      48.174   5.123  18.102  0.00  0.00    +0.000 A 
ATOM     36  O   UNL     1      47.539   4.901  17.074  0.00  0.00    +0.000 OA
ATOM     37  C   UNL     1      49.017   6.286  18.299  0.00  0.00    +0.000 A 
ATOM     38  H   UNL     1      47.540   3.449  19.070  0.00  0.00    +0.000 HD
ENDBRANCH  25  28
ENDBRANCH  23  24
ENDBRANCH   4  23
TORSDOF 7
ENDMDL
MODEL 2
REMARK VINA RESULT:    -8.297      2.148      2.679
REMARK INTER + INTRA:         -12.987
REMARK INTER:                 -11.661
REMARK INTRA:                  -1.326
REMARK UNBOUND:                -1.537
REMARK  Name = 
REMARK  7 active torsions:
REMARK  status: ('A' for Active; 'I' for Inactive)
REMARK    1  A    between atoms: N_1  and  C_2
REMARK    2  A    between atoms: C_2  and  C_3
REMARK    3  A    between atoms: C_2  and  C_24
REMARK    4  A    between atoms: C_3  and  C_4
REMARK    5  A    between atoms: C_7  and  C_8
REMARK    6  A    between atoms: C_8  and  N_9
REMARK    7  A    between atoms: C_10  and  C_12
REMARK                            x       y       z     vdW  Elec       q    Type
REMARK                         _______ _______ _______ _____ _____    ______ ____
ROOT
ATOM      1  C   UNL     1      44.822   5.828  13.108  0.00  0.00    +0.000 A 
ATOM      2  C   UNL     1      45.871   5.046  13.583  0.00  0.00    +0.000 A 
ATOM      3  C   UNL     1      47.137   5.612  13.705  0.00  0.00    +0.000 A 
ATOM      4  C   UNL     1      47.338   6.948  13.355  0.00  0.00    +0.000 A 
ATOM      5  C   UNL     1      46.234   7.658  12.901  0.00  0.00    +0.000 A 
ATOM      6  N   UNL     1      44.992   7.131  12.756  0.00  0.00    +0.000 NA
ENDROOT
BRANCH   1   7
ATOM      7  C   UNL     1      43.429   5.236  13.037  0.00  0.00    +0.000 C 
BRANCH   7   8
ATOM      8  C   UNL     1      42.778   5.152  11.645  0.00  0.00    +0.000 C 
BRANCH   8   9
ATOM      9  C   UNL     1      43.532   4.151  10.750  0.00  0.00    +0.000 C 
ATOM     10  O   UNL     1      43.489   2.951  11.017  0.00  0.00    +0.000 OA
ATOM     11  N   UNL     1      44.265   4.731   9.744  0.00  0.00    +0.000 N 
ATOM     12  C   UNL     1      45.058   4.042   8.843  0.00  0.00    +0.000 A 
ATOM     13  N   UNL     1      44.941   2.716   8.700  0.00  0.00    +0.000 NA
ATOM     14  C   UNL     1      45.809   2.101   7.871  0.00  0.00    +0.000 A 
ATOM     15  C   UNL     1      46.782   2.769   7.172  0.00  0.00    +0.000 A 
ATOM     16 CL   UNL     1      47.905   1.961   6.171  0.00  0.00    +0.000 Cl
ATOM     17  C   UNL     1      46.794   4.133   7.346  0.00  0.00    +0.000 A 
ATOM     18  N   UNL     1      45.940   4.795   8.163  0.00  0.00    +0.000 NA
ATOM     19  H   UNL     1      44.447   5.728   9.787  0.00  0.00    +0.000 HD
ENDBRANCH   8   9
BRANCH   8  20
ATOM     20  N   UNL     1      42.600   6.468  10.989  0.00  0.00    +0.000 NA
ATOM     21  H   UNL     1      41.795   6.941  11.397  0.00  0.00    +0.000 HD
ATOM     22  H   UNL     1      42.394   6.309   9.998  0.00  0.00    +0.000 HD
ENDBRANCH   8  20
ENDBRANCH   7   8
ENDBRANCH   1   7
BRANCH   4  23
ATOM     23  C   UNL     1      48.675   7.604  13.519  0.00  0.00    +0.000 C 
BRANCH  23  24
ATOM     24  N   UNL     1      49.521   6.850  14.408  0.00  0.00    +0.000 N 
ATOM     25  C   UNL     1      49.499   7.074  15.762  0.00  0.00    +0.000 C 
ATOM     26  O   UNL     1      48.736   7.896  16.266  0.00  0.00    +0.000 OA
ATOM     27  H   UNL     1      50.303   6.344  14.002  0.00  0.00    +0.000 HD
BRANCH  25  28
ATOM     28  C   UNL     1      50.381   6.240  16.587  0.00  0.00    +0.000 A 
ATOM     29  C   UNL     1      49.826   5.384  17.528  0.00  0.00    +0.000 A 
ATOM     30  S   UNL     1      50.976   4.446  18.365  0.00  0.00    +0.000 S 
ATOM     31  C   UNL     1      52.264   5.189  17.536  0.00  0.00    +0.000 A 
ATOM     32  N   UNL     1      53.553   4.848  17.803  0.00  0.00    +0.000 NA
ATOM     33  C   UNL     1      54.431   5.515  17.131  0.00  0.00    +0.000 A 
ATOM     34  N   UNL     1      54.135   6.487  16.209  0.00  0.00    +0.000 N 
ATOM     35  C   UNL     1      52.847   6.835  15.880  0.00  0.00    +0.000 A 
ATOM     36  O   UNL     1      52.613   7.673  15.012  0.00  0.00    +0.000 OA
ATOM     37  C   UNL     1      51.821   6.127  16.621  0.00  0.00    +0.000 A 
ATOM     38  H   UNL     1      54.871   6.963  15.710  0.00  0.00    +0.000 HD
ENDBRANCH  25  28
ENDBRANCH  23  24
ENDBRANCH   4  23
TORSDOF 7
ENDMDL
MODEL 3
REMARK VINA RESULT:    -8.221      1.276      1.497
REMARK INTER + INTRA:         -12.882
REMARK INTER:                 -11.755
REMARK INTRA:                  -1.127
REMARK UNBOUND:                -1.537
REMARK  Name = 
REMARK  7 active torsions:
REMARK  status: ('A' for Active; 'I' for Inactive)
REMARK    1  A    between atoms: N_1  and  C_2
REMARK    2  A    between atoms: C_2  and  C_3
REMARK    3  A    between atoms: C_2  and  C_24
REMARK    4  A    between atoms: C_3  and  C_4
REMARK    5  A    between atoms: C_7  and  C_8
REMARK    6  A    between atoms: C_8  and  N_9
REMARK    7  A    between atoms: C_10  and  C_12
REMARK                            x       y       z     vdW  Elec       q    Type
REMARK                         _______ _______ _______ _____ _____    ______ ____
ROOT
ATOM      1  C   UNL     1      44.963   5.993  12.977  0.00  0.00    +0.000 A 
ATOM      2  C   UNL     1      45.242   7.309  12.621  0.00  0.00    +0.000 A 
ATOM      3  C   UNL     1      46.569   7.721  12.537  0.00  0.00    +0.000 A 
ATOM      4  C   UNL     1      47.597   6.816  12.804  0.00  0.00    +0.000 A 
ATOM      5  C   UNL     1      47.229   5.520  13.141  0.00  0.00    +0.000 A 
ATOM      6  N   UNL     1      45.946   5.092  13.248  0.00  0.00    +0.000 NA
ENDROOT
BRANCH   1   7
ATOM      7  C   UNL     1      43.523   5.522  13.005  0.00  0.00    +0.000 C 
BRANCH   7   8
ATOM      8  C   UNL     1      42.853   5.252  11.646  0.00  0.00    +0.000 C 
BRANCH   8   9
ATOM      9  C   UNL     1      43.639   4.192  10.851  0.00  0.00    +0.000 C 
ATOM     10  O   UNL     1      43.700   3.040  11.279  0.00  0.00    +0.000 OA
ATOM     11  N   UNL     1      44.279   4.677   9.738  0.00  0.00    +0.000 N 
ATOM     12  C   UNL     1      45.080   3.929   8.895  0.00  0.00    +0.000 A 
ATOM     13  N   UNL     1      45.058   2.590   8.937  0.00  0.00    +0.000 NA
ATOM     14  C   UNL     1      45.931   1.929   8.151  0.00  0.00    +0.000 A 
ATOM     15  C   UNL     1      46.818   2.560   7.316  0.00  0.00    +0.000 A 
ATOM     16 CL   UNL     1      47.952   1.701   6.371  0.00  0.00    +0.000 Cl
ATOM     17  C   UNL     1      46.734   3.932   7.306  0.00  0.00    +0.000 A 
ATOM     18  N   UNL     1      45.871   4.640   8.073  0.00  0.00    +0.000 NA
ATOM     19  H   UNL     1      44.388   5.681   9.638  0.00  0.00    +0.000 HD
ENDBRANCH   8   9
BRANCH   8  20
ATOM     20  N   UNL     1      42.601   6.475  10.850  0.00  0.00    +0.000 NA
ATOM     21  H   UNL     1      42.951   7.286  11.360  0.00  0.00    +0.000 HD
ATOM     22  H   UNL     1      41.588   6.590  10.747  0.00  0.00    +0.000 HD
ENDBRANCH   8  20
ENDBRANCH   7   8
ENDBRANCH   1   7
BRANCH   4  23
ATOM     23  C   UNL     1      49.037   7.210  12.676  0.00  0.00    +0.000 C 
BRANCH  23  24
ATOM     24  N   UNL     1      49.749   6.992  13.910  0.00  0.00    +0.000 N 
ATOM     25  C   UNL     1      49.801   7.966  14.876  0.00  0.00    +0.000 C 
ATOM     26  O   UNL     1      49.217   9.039  14.740  0.00  0.00    +0.000 OA
ATOM     27  H   UNL     1      50.414   6.224  13.943  0.00  0.00    +0.000 HD
BRANCH  25  28
ATOM     28  C   UNL     1      50.533   7.641  16.106  0.00  0.00    +0.000 A 
ATOM     29  C   UNL     1      51.566   8.469  16.524  0.00  0.00    +0.000 A 
ATOM     30  S   UNL     1      52.278   7.988  17.995  0.00  0.00    +0.000 S 
ATOM     31  C   UNL     1      51.266   6.624  18.101  0.00  0.00    +0.000 A 
ATOM     32  N   UNL     1      51.375   5.754  19.141  0.00  0.00    +0.000 NA
ATOM     33  C   UNL     1      50.573   4.744  19.077  0.00  0.00    +0.000 A 
ATOM     34  N   UNL     1      49.666   4.530  18.071  0.00  0.00    +0.000 N 
ATOM     35  C   UNL     1      49.493   5.402  17.023  0.00  0.00    +0.000 A 
ATOM     36  O   UNL     1      48.636   5.209  16.165  0.00  0.00    +0.000 OA
ATOM     37  C   UNL     1      50.384   6.546  17.038  0.00  0.00    +0.000 A 
ATOM     38  H   UNL     1      49.060   3.723  18.089  0.00  0.00    +0.000 HD
ENDBRANCH  25  28
ENDBRANCH  23  24
ENDBRANCH   4  23
TORSDOF 7
ENDMDL
MODEL 4
REMARK VINA RESULT:    -7.646      1.773      2.356
REMARK INTER + INTRA:         -12.088
REMARK INTER:                 -11.450
REMARK INTRA:                  -0.638
REMARK UNBOUND:                -1.537
REMARK  Name = 
REMARK  7 active torsions:
REMARK  status: ('A' for Active; 'I' for Inactive)
REMARK    1  A    between atoms: N_1  and  C_2
REMARK    2  A    between atoms: C_2  and  C_3
REMARK    3  A    between atoms: C_2  and  C_24
REMARK    4  A    between atoms: C_3  and  C_4
REMARK    5  A    between atoms: C_7  and  C_8
REMARK    6  A    between atoms: C_8  and  N_9
REMARK    7  A    between atoms: C_10  and  C_12
REMARK                            x       y       z     vdW  Elec       q    Type
REMARK                         _______ _______ _______ _____ _____    ______ ____
ROOT
ATOM      1  C   UNL     1      45.986   7.571  12.163  0.00  0.00    +0.000 A 
ATOM      2  C   UNL     1      47.040   6.747  11.776  0.00  0.00    +0.000 A 
ATOM      3  C   UNL     1      48.238   6.805  12.483  0.00  0.00    +0.000 A 
ATOM      4  C   UNL     1      48.367   7.678  13.563  0.00  0.00    +0.000 A 
ATOM      5  C   UNL     1      47.263   8.455  13.887  0.00  0.00    +0.000 A 
ATOM      6  N   UNL     1      46.088   8.434  13.209  0.00  0.00    +0.000 NA
ENDROOT
BRANCH   1   7
ATOM      7  C   UNL     1      44.658   7.464  11.439  0.00  0.00    +0.000 C 
BRANCH   7   8
ATOM      8  C   UNL     1      43.748   6.285  11.827  0.00  0.00    +0.000 C 
BRANCH   8   9
ATOM      9  C   UNL     1      44.224   4.984  11.153  0.00  0.00    +0.000 C 
ATOM     10  O   UNL     1      44.214   3.934  11.793  0.00  0.00    +0.000 OA
ATOM     11  N   UNL     1      44.697   5.149   9.875  0.00  0.00    +0.000 N 
ATOM     12  C   UNL     1      45.217   4.138   9.086  0.00  0.00    +0.000 A 
ATOM     13  N   UNL     1      45.030   2.852   9.407  0.00  0.00    +0.000 NA
ATOM     14  C   UNL     1      45.643   1.925   8.644  0.00  0.00    +0.000 A 
ATOM     15  C   UNL     1      46.428   2.239   7.565  0.00  0.00    +0.000 A 
ATOM     16 CL   UNL     1      47.239   1.050   6.647  0.00  0.00    +0.000 Cl
ATOM     17  C   UNL     1      46.524   3.582   7.284  0.00  0.00    +0.000 A 
ATOM     18  N   UNL     1      45.923   4.550   8.018  0.00  0.00    +0.000 NA
ATOM     19  H   UNL     1      44.914   6.086   9.553  0.00  0.00    +0.000 HD
ENDBRANCH   8   9
BRANCH   8  20
ATOM     20  N   UNL     1      42.308   6.541  11.598  0.00  0.00    +0.000 NA
ATOM     21  H   UNL     1      42.200   7.145  10.784  0.00  0.00    +0.000 HD
ATOM     22  H   UNL     1      41.936   7.046  12.407  0.00  0.00    +0.000 HD
ENDBRANCH   8  20
ENDBRANCH   7   8
ENDBRANCH   1   7
BRANCH   4  23
ATOM     23  C   UNL     1      49.625   7.732  14.377  0.00  0.00    +0.000 C 
BRANCH  23  24
ATOM     24  N   UNL     1      49.342   7.601  15.783  0.00  0.00    +0.000 N 
ATOM     25  C   UNL     1      48.883   6.416  16.303  0.00  0.00    +0.000 C 
ATOM     26  O   UNL     1      48.731   5.421  15.599  0.00  0.00    +0.000 OA
ATOM     27  H   UNL     1      49.241   8.453  16.327  0.00  0.00    +0.000 HD
BRANCH  25  28
ATOM     28  C   UNL     1      48.645   6.375  17.750  0.00  0.00    +0.000 A 
ATOM     29  C   UNL     1      48.900   5.205  18.451  0.00  0.00    +0.000 A 
ATOM     30  S   UNL     1      48.626   5.334  20.128  0.00  0.00    +0.000 S 
ATOM     31  C   UNL     1      48.104   6.947  19.972  0.00  0.00    +0.000 A 
ATOM     32  N   UNL     1      47.694   7.654  21.058  0.00  0.00    +0.000 NA
ATOM     33  C   UNL     1      47.290   8.851  20.793  0.00  0.00    +0.000 A 
ATOM     34  N   UNL     1      47.265   9.407  19.539  0.00  0.00    +0.000 N 
ATOM     35  C   UNL     1      47.706   8.743  18.420  0.00  0.00    +0.000 A 
ATOM     36  O   UNL     1      47.720   9.286  17.318  0.00  0.00    +0.000 OA
ATOM     37  C   UNL     1      48.156   7.386  18.661  0.00  0.00    +0.000 A 
ATOM     38  H   UNL     1      46.945  10.354  19.404  0.00  0.00    +0.000 HD
ENDBRANCH  25  28
ENDBRANCH  23  24
ENDBRANCH   4  23
TORSDOF 7
ENDMDL
MODEL 5
REMARK VINA RESULT:    -7.305      4.219      8.781
REMARK INTER + INTRA:         -11.617
REMARK INTER:                 -10.481
REMARK INTRA:                  -1.136
REMARK UNBOUND:                -1.537
REMARK  Name = 
REMARK  7 active torsions:
REMARK  status: ('A' for Active; 'I' for Inactive)
REMARK    1  A    between atoms: N_1  and  C_2
REMARK    2  A    between atoms: C_2  and  C_3
REMARK    3  A    between atoms: C_2  and  C_24
REMARK    4  A    between atoms: C_3  and  C_4
REMARK    5  A    between atoms: C_7  and  C_8
REMARK    6  A    between atoms: C_8  and  N_9
REMARK    7  A    between atoms: C_10  and  C_12
REMARK                            x       y       z     vdW  Elec       q    Type
REMARK                         _______ _______ _______ _____ _____    ______ ____
ROOT
ATOM      1  C   UNL     1      48.781   6.840  16.778  0.00  0.00    +0.000 A 
ATOM      2  C   UNL     1      48.906   8.165  16.368  0.00  0.00    +0.000 A 
ATOM      3  C   UNL     1      48.751   8.474  15.020  0.00  0.00    +0.000 A 
ATOM      4  C   UNL     1      48.469   7.461  14.102  0.00  0.00    +0.000 A 
ATOM      5  C   UNL     1      48.349   6.170  14.598  0.00  0.00    +0.000 A 
ATOM      6  N   UNL     1      48.511   5.835  15.903  0.00  0.00    +0.000 NA
ENDROOT
BRANCH   1   7
ATOM      7  C   UNL     1      48.882   6.509  18.253  0.00  0.00    +0.000 C 
BRANCH   7   8
ATOM      8  C   UNL     1      48.159   5.238  18.732  0.00  0.00    +0.000 C 
BRANCH   8   9
ATOM      9  C   UNL     1      48.964   3.978  18.359  0.00  0.00    +0.000 C 
ATOM     10  O   UNL     1      48.377   2.906  18.224  0.00  0.00    +0.000 OA
ATOM     11  N   UNL     1      50.320   4.175  18.282  0.00  0.00    +0.000 N 
ATOM     12  C   UNL     1      51.250   3.188  18.007  0.00  0.00    +0.000 A 
ATOM     13  N   UNL     1      50.868   2.007  17.504  0.00  0.00    +0.000 NA
ATOM     14  C   UNL     1      51.817   1.062  17.348  0.00  0.00    +0.000 A 
ATOM     15  C   UNL     1      53.136   1.261  17.669  0.00  0.00    +0.000 A 
ATOM     16 CL   UNL     1      54.309   0.030  17.514  0.00  0.00    +0.000 Cl
ATOM     17  C   UNL     1      53.440   2.518  18.134  0.00  0.00    +0.000 A 
ATOM     18  N   UNL     1      52.524   3.502  18.302  0.00  0.00    +0.000 NA
ATOM     19  H   UNL     1      50.713   5.023  18.679  0.00  0.00    +0.000 HD
ENDBRANCH   8   9
BRANCH   8  20
ATOM     20  N   UNL     1      46.748   5.151  18.292  0.00  0.00    +0.000 NA
ATOM     21  H   UNL     1      46.597   5.799  17.518  0.00  0.00    +0.000 HD
ATOM     22  H   UNL     1      46.148   5.452  19.066  0.00  0.00    +0.000 HD
ENDBRANCH   8  20
ENDBRANCH   7   8
ENDBRANCH   1   7
BRANCH   4  23
ATOM     23  C   UNL     1      48.247   7.763  12.651  0.00  0.00    +0.000 C 
BRANCH  23  24
ATOM     24  N   UNL     1      47.543   6.690  11.996  0.00  0.00    +0.000 N 
ATOM     25  C   UNL     1      46.252   6.854  11.563  0.00  0.00    +0.000 C 
ATOM     26  O   UNL     1      45.664   7.927  11.684  0.00  0.00    +0.000 OA
ATOM     27  H   UNL     1      47.919   5.750  12.093  0.00  0.00    +0.000 HD
BRANCH  25  28
ATOM     28  C   UNL     1      45.627   5.710  10.889  0.00  0.00    +0.000 A 
ATOM     29  C   UNL     1      45.766   5.568   9.515  0.00  0.00    +0.000 A 
ATOM     30  S   UNL     1      45.033   4.163   8.892  0.00  0.00    +0.000 S 
ATOM     31  C   UNL     1      44.455   3.718  10.430  0.00  0.00    +0.000 A 
ATOM     32  N   UNL     1      43.710   2.592  10.596  0.00  0.00    +0.000 NA
ATOM     33  C   UNL     1      43.306   2.394  11.806  0.00  0.00    +0.000 A 
ATOM     34  N   UNL     1      43.586   3.217  12.867  0.00  0.00    +0.000 N 
ATOM     35  C   UNL     1      44.367   4.342  12.753  0.00  0.00    +0.000 A 
ATOM     36  O   UNL     1      44.643   5.031  13.732  0.00  0.00    +0.000 OA
ATOM     37  C   UNL     1      44.833   4.620  11.409  0.00  0.00    +0.000 A 
ATOM     38  H   UNL     1      43.246   2.997  13.791  0.00  0.00    +0.000 HD
ENDBRANCH  25  28
ENDBRANCH  23  24
ENDBRANCH   4  23
TORSDOF 7
ENDMDL
MODEL 6
REMARK VINA RESULT:    -7.303      2.480      3.554
REMARK INTER + INTRA:         -11.615
REMARK INTER:                 -10.351
REMARK INTRA:                  -1.264
REMARK UNBOUND:                -1.537
REMARK  Name = 
REMARK  7 active torsions:
REMARK  status: ('A' for Active; 'I' for Inactive)
REMARK    1  A    between atoms: N_1  and  C_2
REMARK    2  A    between atoms: C_2  and  C_3
REMARK    3  A    between atoms: C_2  and  C_24
REMARK    4  A    between atoms: C_3  and  C_4
REMARK    5  A    between atoms: C_7  and  C_8
REMARK    6  A    between atoms: C_8  and  N_9
REMARK    7  A    between atoms: C_10  and  C_12
REMARK                            x       y       z     vdW  Elec       q    Type
REMARK                         _______ _______ _______ _____ _____    ______ ____
ROOT
ATOM      1  C   UNL     1      45.160   4.751  12.972  0.00  0.00    +0.000 A 
ATOM      2  C   UNL     1      46.466   4.435  13.336  0.00  0.00    +0.000 A 
ATOM      3  C   UNL     1      47.395   5.461  13.485  0.00  0.00    +0.000 A 
ATOM      4  C   UNL     1      47.008   6.786  13.274  0.00  0.00    +0.000 A 
ATOM      5  C   UNL     1      45.684   7.012  12.925  0.00  0.00    +0.000 A 
ATOM      6  N   UNL     1      44.759   6.032  12.756  0.00  0.00    +0.000 NA
ENDROOT
BRANCH   1   7
ATOM      7  C   UNL     1      44.130   3.644  12.874  0.00  0.00    +0.000 C 
BRANCH   7   8
ATOM      8  C   UNL     1      43.206   3.660  11.643  0.00  0.00    +0.000 C 
BRANCH   8   9
ATOM      9  C   UNL     1      44.023   3.855  10.352  0.00  0.00    +0.000 C 
ATOM     10  O   UNL     1      43.850   4.869   9.676  0.00  0.00    +0.000 OA
ATOM     11  N   UNL     1      44.844   2.802  10.035  0.00  0.00    +0.000 N 
ATOM     12  C   UNL     1      45.638   2.727   8.905  0.00  0.00    +0.000 A 
ATOM     13  N   UNL     1      45.889   3.818   8.170  0.00  0.00    +0.000 NA
ATOM     14  C   UNL     1      46.594   3.653   7.032  0.00  0.00    +0.000 A 
ATOM     15  C   UNL     1      47.066   2.436   6.610  0.00  0.00    +0.000 A 
ATOM     16 CL   UNL     1      47.909   2.243   5.138  0.00  0.00    +0.000 Cl
ATOM     17  C   UNL     1      46.799   1.383   7.453  0.00  0.00    +0.000 A 
ATOM     18  N   UNL     1      46.100   1.500   8.608  0.00  0.00    +0.000 NA
ATOM     19  H   UNL     1      44.702   1.915  10.507  0.00  0.00    +0.000 HD
ENDBRANCH   8   9
BRANCH   8  20
ATOM     20  N   UNL     1      42.086   4.622  11.748  0.00  0.00    +0.000 NA
ATOM     21  H   UNL     1      41.364   4.232  12.353  0.00  0.00    +0.000 HD
ATOM     22  H   UNL     1      41.676   4.743  10.818  0.00  0.00    +0.000 HD
ENDBRANCH   8  20
ENDBRANCH   7   8
ENDBRANCH   1   7
BRANCH   4  23
ATOM     23  C   UNL     1      47.967   7.920  13.472  0.00  0.00    +0.000 C 
BRANCH  23  24
ATOM     24  N   UNL     1      49.217   7.456  14.019  0.00  0.00    +0.000 N 
ATOM     25  C   UNL     1      49.520   7.644  15.345  0.00  0.00    +0.000 C 
ATOM     26  O   UNL     1      48.727   8.181  16.116  0.00  0.00    +0.000 OA
ATOM     27  H   UNL     1      49.962   7.225  13.368  0.00  0.00    +0.000 HD
BRANCH  25  28
ATOM     28  C   UNL     1      50.807   7.117  15.812  0.00  0.00    +0.000 A 
ATOM     29  C   UNL     1      50.829   6.172  16.828  0.00  0.00    +0.000 A 
ATOM     30  S   UNL     1      52.393   5.620  17.219  0.00  0.00    +0.000 S 
ATOM     31  C   UNL     1      53.104   6.665  16.080  0.00  0.00    +0.000 A 
ATOM     32  N   UNL     1      54.454   6.707  15.920  0.00  0.00    +0.000 NA
ATOM     33  C   UNL     1      54.862   7.569  15.050  0.00  0.00    +0.000 A 
ATOM     34  N   UNL     1      54.040   8.389  14.320  0.00  0.00    +0.000 N 
ATOM     35  C   UNL     1      52.670   8.353  14.419  0.00  0.00    +0.000 A 
ATOM     36  O   UNL     1      51.958   9.063  13.714  0.00  0.00    +0.000 OA
ATOM     37  C   UNL     1      52.160   7.412  15.397  0.00  0.00    +0.000 A 
ATOM     38  H   UNL     1      54.425   9.035  13.647  0.00  0.00    +0.000 HD
ENDBRANCH  25  28
ENDBRANCH  23  24
ENDBRANCH   4  23
TORSDOF 7
ENDMDL
MODEL 7
REMARK VINA RESULT:    -7.160      6.758      8.448
REMARK INTER + INTRA:         -11.418
REMARK INTER:                 -10.215
REMARK INTRA:                  -1.203
REMARK UNBOUND:                -1.537
REMARK  Name = 
REMARK  7 active torsions:
REMARK  status: ('A' for Active; 'I' for Inactive)
REMARK    1  A    between atoms: N_1  and  C_2
REMARK    2  A    between atoms: C_2  and  C_3
REMARK    3  A    between atoms: C_2  and  C_24
REMARK    4  A    between atoms: C_3  and  C_4
REMARK    5  A    between atoms: C_7  and  C_8
REMARK    6  A    between atoms: C_8  and  N_9
REMARK    7  A    between atoms: C_10  and  C_12
REMARK                            x       y       z     vdW  Elec       q    Type
REMARK                         _______ _______ _______ _____ _____    ______ ____
ROOT
ATOM      1  C   UNL     1      49.636   3.359  17.578  0.00  0.00    +0.000 A 
ATOM      2  C   UNL     1      49.987   2.080  17.154  0.00  0.00    +0.000 A 
ATOM      3  C   UNL     1      51.294   1.641  17.339  0.00  0.00    +0.000 A 
ATOM      4  C   UNL     1      52.230   2.479  17.947  0.00  0.00    +0.000 A 
ATOM      5  C   UNL     1      51.792   3.733  18.348  0.00  0.00    +0.000 A 
ATOM      6  N   UNL     1      50.530   4.197  18.167  0.00  0.00    +0.000 NA
ENDROOT
BRANCH   1   7
ATOM      7  C   UNL     1      48.197   3.817  17.439  0.00  0.00    +0.000 C 
BRANCH   7   8
ATOM      8  C   UNL     1      47.911   4.902  16.386  0.00  0.00    +0.000 C 
BRANCH   8   9
ATOM      9  C   UNL     1      47.259   4.288  15.132  0.00  0.00    +0.000 C 
ATOM     10  O   UNL     1      47.507   3.120  14.835  0.00  0.00    +0.000 OA
ATOM     11  N   UNL     1      46.493   5.164  14.405  0.00  0.00    +0.000 N 
ATOM     12  C   UNL     1      45.846   4.857  13.221  0.00  0.00    +0.000 A 
ATOM     13  N   UNL     1      45.679   3.584  12.841  0.00  0.00    +0.000 NA
ATOM     14  C   UNL     1      45.121   3.364  11.633  0.00  0.00    +0.000 A 
ATOM     15  C   UNL     1      44.716   4.373  10.797  0.00  0.00    +0.000 A 
ATOM     16 CL   UNL     1      44.063   4.070   9.249  0.00  0.00    +0.000 Cl
ATOM     17  C   UNL     1      44.884   5.644  11.293  0.00  0.00    +0.000 A 
ATOM     18  N   UNL     1      45.433   5.915  12.501  0.00  0.00    +0.000 NA
ATOM     19  H   UNL     1      46.583   6.158  14.588  0.00  0.00    +0.000 HD
ENDBRANCH   8   9
BRANCH   8  20
ATOM     20  N   UNL     1      49.088   5.737  16.052  0.00  0.00    +0.000 NA
ATOM     21  H   UNL     1      48.792   6.517  15.467  0.00  0.00    +0.000 HD
ATOM     22  H   UNL     1      49.741   5.170  15.503  0.00  0.00    +0.000 HD
ENDBRANCH   8  20
ENDBRANCH   7   8
ENDBRANCH   1   7
BRANCH   4  23
ATOM     23  C   UNL     1      53.634   2.022  18.206  0.00  0.00    +0.000 C 
BRANCH  23  24
ATOM     24  N   UNL     1      53.804   0.635  17.857  0.00  0.00    +0.000 N 
ATOM     25  C   UNL     1      54.427  -0.237  18.714  0.00  0.00    +0.000 C 
ATOM     26  O   UNL     1      54.830   0.122  19.818  0.00  0.00    +0.000 OA
ATOM     27  H   UNL     1      53.690   0.376  16.881  0.00  0.00    +0.000 HD
BRANCH  25  28
ATOM     28  C   UNL     1      54.533  -1.635  18.277  0.00  0.00    +0.000 A 
ATOM     29  C   UNL     1      54.205  -2.652  19.162  0.00  0.00    +0.000 A 
ATOM     30  S   UNL     1      54.326  -4.213  18.488  0.00  0.00    +0.000 S 
ATOM     31  C   UNL     1      54.875  -3.588  17.003  0.00  0.00    +0.000 A 
ATOM     32  N   UNL     1      55.191  -4.416  15.973  0.00  0.00    +0.000 NA
ATOM     33  C   UNL     1      55.629  -3.813  14.919  0.00  0.00    +0.000 A 
ATOM     34  N   UNL     1      55.772  -2.454  14.800  0.00  0.00    +0.000 N 
ATOM     35  C   UNL     1      55.429  -1.577  15.801  0.00  0.00    +0.000 A 
ATOM     36  O   UNL     1      55.520  -0.362  15.646  0.00  0.00    +0.000 OA
ATOM     37  C   UNL     1      54.947  -2.206  17.015  0.00  0.00    +0.000 A 
ATOM     38  H   UNL     1      56.112  -2.046  13.942  0.00  0.00    +0.000 HD
ENDBRANCH  25  28
ENDBRANCH  23  24
ENDBRANCH   4  23
TORSDOF 7
ENDMDL
MODEL 8
REMARK VINA RESULT:    -7.113      3.882      9.116
REMARK INTER + INTRA:         -11.353
REMARK INTER:                  -9.899
REMARK INTRA:                  -1.454
REMARK UNBOUND:                -1.537
REMARK  Name = 
REMARK  7 active torsions:
REMARK  status: ('A' for Active; 'I' for Inactive)
REMARK    1  A    between atoms: N_1  and  C_2
REMARK    2  A    between atoms: C_2  and  C_3
REMARK    3  A    between atoms: C_2  and  C_24
REMARK    4  A    between atoms: C_3  and  C_4
REMARK    5  A    between atoms: C_7  and  C_8
REMARK    6  A    between atoms: C_8  and  N_9
REMARK    7  A    between atoms: C_10  and  C_12
REMARK                            x       y       z     vdW  Elec       q    Type
REMARK                         _______ _______ _______ _____ _____    ______ ____
ROOT
ATOM      1  C   UNL     1      49.212   8.396  15.765  0.00  0.00    +0.000 A 
ATOM      2  C   UNL     1      48.650   9.496  15.122  0.00  0.00    +0.000 A 
ATOM      3  C   UNL     1      48.208   9.360  13.809  0.00  0.00    +0.000 A 
ATOM      4  C   UNL     1      48.329   8.131  13.158  0.00  0.00    +0.000 A 
ATOM      5  C   UNL     1      48.891   7.085  13.877  0.00  0.00    +0.000 A 
ATOM      6  N   UNL     1      49.345   7.190  15.152  0.00  0.00    +0.000 NA
ENDROOT
BRANCH   1   7
ATOM      7  C   UNL     1      49.632   8.521  17.216  0.00  0.00    +0.000 C 
BRANCH   7   8
ATOM      8  C   UNL     1      49.176   7.403  18.171  0.00  0.00    +0.000 C 
BRANCH   8   9
ATOM      9  C   UNL     1      50.255   6.309  18.284  0.00  0.00    +0.000 C 
ATOM     10  O   UNL     1      51.388   6.614  18.651  0.00  0.00    +0.000 OA
ATOM     11  N   UNL     1      49.843   5.064  17.877  0.00  0.00    +0.000 N 
ATOM     12  C   UNL     1      50.643   3.936  17.844  0.00  0.00    +0.000 A 
ATOM     13  N   UNL     1      51.816   3.908  18.490  0.00  0.00    +0.000 NA
ATOM     14  C   UNL     1      52.584   2.810  18.338  0.00  0.00    +0.000 A 
ATOM     15  C   UNL     1      52.214   1.734  17.572  0.00  0.00    +0.000 A 
ATOM     16 CL   UNL     1      53.227   0.378  17.351  0.00  0.00    +0.000 Cl
ATOM     17  C   UNL     1      50.973   1.834  16.987  0.00  0.00    +0.000 A 
ATOM     18  N   UNL     1      50.165   2.913  17.114  0.00  0.00    +0.000 NA
ATOM     19  H   UNL     1      48.986   4.986  17.339  0.00  0.00    +0.000 HD
ENDBRANCH   8   9
BRANCH   8  20
ATOM     20  N   UNL     1      47.844   6.846  17.845  0.00  0.00    +0.000 NA
ATOM     21  H   UNL     1      47.151   7.593  17.873  0.00  0.00    +0.000 HD
ATOM     22  H   UNL     1      47.593   6.166  18.569  0.00  0.00    +0.000 HD
ENDBRANCH   8  20
ENDBRANCH   7   8
ENDBRANCH   1   7
BRANCH   4  23
ATOM     23  C   UNL     1      47.820   7.935  11.762  0.00  0.00    +0.000 C 
BRANCH  23  24
ATOM     24  N   UNL     1      47.089   6.699  11.643  0.00  0.00    +0.000 N 
ATOM     25  C   UNL     1      45.727   6.668  11.803  0.00  0.00    +0.000 C 
ATOM     26  O   UNL     1      45.080   7.691  12.018  0.00  0.00    +0.000 OA
ATOM     27  H   UNL     1      47.616   5.831  11.695  0.00  0.00    +0.000 HD
BRANCH  25  28
ATOM     28  C   UNL     1      45.070   5.365  11.641  0.00  0.00    +0.000 A 
ATOM     29  C   UNL     1      44.392   4.805  12.715  0.00  0.00    +0.000 A 
ATOM     30  S   UNL     1      43.638   3.321  12.352  0.00  0.00    +0.000 S 
ATOM     31  C   UNL     1      44.237   3.345  10.759  0.00  0.00    +0.000 A 
ATOM     32  N   UNL     1      43.970   2.326   9.898  0.00  0.00    +0.000 NA
ATOM     33  C   UNL     1      44.516   2.454   8.736  0.00  0.00    +0.000 A 
ATOM     34  N   UNL     1      45.300   3.513   8.353  0.00  0.00    +0.000 N 
ATOM     35  C   UNL     1      45.563   4.582   9.176  0.00  0.00    +0.000 A 
ATOM     36  O   UNL     1      46.226   5.541   8.787  0.00  0.00    +0.000 OA
ATOM     37  C   UNL     1      44.986   4.480  10.502  0.00  0.00    +0.000 A 
ATOM     38  H   UNL     1      45.688   3.555   7.423  0.00  0.00    +0.000 HD
ENDBRANCH  25  28
ENDBRANCH  23  24
ENDBRANCH   4  23
TORSDOF 7
ENDMDL
MODEL 9
REMARK VINA RESULT:    -6.990      6.612      8.291
REMARK INTER + INTRA:         -11.183
REMARK INTER:                  -9.961
REMARK INTRA:                  -1.222
REMARK UNBOUND:                -1.537
REMARK  Name = 
REMARK  7 active torsions:
REMARK  status: ('A' for Active; 'I' for Inactive)
REMARK    1  A    between atoms: N_1  and  C_2
REMARK    2  A    between atoms: C_2  and  C_3
REMARK    3  A    between atoms: C_2  and  C_24
REMARK    4  A    between atoms: C_3  and  C_4
REMARK    5  A    between atoms: C_7  and  C_8
REMARK    6  A    between atoms: C_8  and  N_9
REMARK    7  A    between atoms: C_10  and  C_12
REMARK                            x       y       z     vdW  Elec       q    Type
REMARK                         _______ _______ _______ _____ _____    ______ ____
ROOT
ATOM      1  C   UNL     1      49.615   3.336  17.621  0.00  0.00    +0.000 A 
ATOM      2  C   UNL     1      50.033   2.096  17.146  0.00  0.00    +0.000 A 
ATOM      3  C   UNL     1      51.345   1.690  17.375  0.00  0.00    +0.000 A 
ATOM      4  C   UNL     1      52.218   2.523  18.075  0.00  0.00    +0.000 A 
ATOM      5  C   UNL     1      51.716   3.738  18.522  0.00  0.00    +0.000 A 
ATOM      6  N   UNL     1      50.448   4.169  18.301  0.00  0.00    +0.000 NA
ENDROOT
BRANCH   1   7
ATOM      7  C   UNL     1      48.170   3.753  17.433  0.00  0.00    +0.000 C 
BRANCH   7   8
ATOM      8  C   UNL     1      47.894   4.855  16.394  0.00  0.00    +0.000 C 
BRANCH   8   9
ATOM      9  C   UNL     1      47.260   4.259  15.123  0.00  0.00    +0.000 C 
ATOM     10  O   UNL     1      47.540   3.108  14.791  0.00  0.00    +0.000 OA
ATOM     11  N   UNL     1      46.470   5.134  14.420  0.00  0.00    +0.000 N 
ATOM     12  C   UNL     1      45.833   4.844  13.226  0.00  0.00    +0.000 A 
ATOM     13  N   UNL     1      45.702   3.579  12.809  0.00  0.00    +0.000 NA
ATOM     14  C   UNL     1      45.152   3.378  11.594  0.00  0.00    +0.000 A 
ATOM     15  C   UNL     1      44.719   4.400  10.787  0.00  0.00    +0.000 A 
ATOM     16 CL   UNL     1      44.077   4.124   9.230  0.00  0.00    +0.000 Cl
ATOM     17  C   UNL     1      44.851   5.660  11.320  0.00  0.00    +0.000 A 
ATOM     18  N   UNL     1      45.392   5.911  12.537  0.00  0.00    +0.000 NA
ATOM     19  H   UNL     1      46.532   6.125  14.632  0.00  0.00    +0.000 HD
ENDBRANCH   8   9
BRANCH   8  20
ATOM     20  N   UNL     1      49.071   5.699  16.091  0.00  0.00    +0.000 NA
ATOM     21  H   UNL     1      49.920   5.199  16.353  0.00  0.00    +0.000 HD
ATOM     22  H   UNL     1      49.021   6.544  16.668  0.00  0.00    +0.000 HD
ENDBRANCH   8  20
ENDBRANCH   7   8
ENDBRANCH   1   7
BRANCH   4  23
ATOM     23  C   UNL     1      53.622   2.099  18.383  0.00  0.00    +0.000 C 
BRANCH  23  24
ATOM     24  N   UNL     1      53.768   0.669  18.286  0.00  0.00    +0.000 N 
ATOM     25  C   UNL     1      54.761   0.112  17.520  0.00  0.00    +0.000 C 
ATOM     26  O   UNL     1      55.579   0.807  16.920  0.00  0.00    +0.000 OA
ATOM     27  H   UNL     1      52.983   0.093  18.577  0.00  0.00    +0.000 HD
BRANCH  25  28
ATOM     28  C   UNL     1      54.841  -1.354  17.502  0.00  0.00    +0.000 A 
ATOM     29  C   UNL     1      54.949  -2.016  16.287  0.00  0.00    +0.000 A 
ATOM     30  S   UNL     1      55.087  -3.708  16.437  0.00  0.00    +0.000 S 
ATOM     31  C   UNL     1      54.954  -3.622  18.132  0.00  0.00    +0.000 A 
ATOM     32  N   UNL     1      54.976  -4.750  18.891  0.00  0.00    +0.000 NA
ATOM     33  C   UNL     1      54.829  -4.544  20.157  0.00  0.00    +0.000 A 
ATOM     34  N   UNL     1      54.667  -3.309  20.733  0.00  0.00    +0.000 N 
ATOM     35  C   UNL     1      54.678  -2.141  20.010  0.00  0.00    +0.000 A 
ATOM     36  O   UNL     1      54.584  -1.047  20.560  0.00  0.00    +0.000 OA
ATOM     37  C   UNL     1      54.824  -2.318  18.578  0.00  0.00    +0.000 A 
ATOM     38  H   UNL     1      54.567  -3.219  21.733  0.00  0.00    +0.000 HD
ENDBRANCH  25  28
ENDBRANCH  23  24
ENDBRANCH   4  23
TORSDOF 7
ENDMDL
