MODEL 1
REMARK VINA RESULT:    -9.240      0.000      0.000
REMARK INTER + INTRA:         -12.176
REMARK INTER:                 -12.211
REMARK INTRA:                   0.035
REMARK UNBOUND:                 0.035
REMARK  Name = 
REMARK  6 active torsions:
REMARK  status: ('A' for Active; 'I' for Inactive)
REMARK    1  A    between atoms: N_1  and  C_2
REMARK    2  A    between atoms: C_5  and  C_6
REMARK    3  A    between atoms: C_6  and  C_7
REMARK    4  A    between atoms: C_10  and  C_11
REMARK    5  A    between atoms: C_11  and  N_12
REMARK    6  A    between atoms: C_13  and  C_15
REMARK                            x       y       z     vdW  Elec       q    Type
REMARK                         _______ _______ _______ _____ _____    ______ ____
ROOT
ATOM      1  C   UNL     1      44.963   4.031  10.353  0.00  0.00    +0.000 A 
ATOM      2  C   UNL     1      45.218   3.790  11.701  0.00  0.00    +0.000 A 
ATOM      3  C   UNL     1      45.729   4.820  12.492  0.00  0.00    +0.000 A 
ATOM      4  C   UNL     1      45.992   6.066  11.925  0.00  0.00    +0.000 A 
ATOM      5  C   UNL     1      45.707   6.218  10.573  0.00  0.00    +0.000 A 
ATOM      6  N   UNL     1      45.201   5.238   9.783  0.00  0.00    +0.000 NA
ENDROOT
BRANCH   1   7
ATOM      7  C   UNL     1      44.363   2.947   9.482  0.00  0.00    +0.000 C 
BRANCH   7  11
ATOM      8  C   UNL     1      47.752   2.185   6.755  0.00  0.00    +0.000 C 
ATOM      9  C   UNL     1      46.859   3.406   6.520  0.00  0.00    +0.000 C 
ATOM     10  C   UNL     1      46.082   3.774   7.784  0.00  0.00    +0.000 C 
ATOM     11  C   UNL     1      45.217   2.592   8.249  0.00  0.00    +0.000 C 
ATOM     12  C   UNL     1      46.127   1.383   8.536  0.00  0.00    +0.000 C 
ATOM     13  C   UNL     1      46.949   0.997   7.302  0.00  0.00    +0.000 C 
BRANCH   8  14
ATOM     14  N   UNL     1      48.423   1.804   5.512  0.00  0.00    +0.000 NA
ATOM     15  H   UNL     1      48.828   2.633   5.076  0.00  0.00    +0.000 HD
ATOM     16  H   UNL     1      47.734   1.454   4.845  0.00  0.00    +0.000 HD
ENDBRANCH   8  14
ENDBRANCH   7  11
ENDBRANCH   1   7
BRANCH   4  17
ATOM     17  C   UNL     1      46.514   7.205  12.751  0.00  0.00    +0.000 C 
BRANCH  17  18
ATOM     18  N   UNL     1      46.942   6.763  14.057  0.00  0.00    +0.000 N 
ATOM     19  C   UNL     1      48.274   6.604  14.347  0.00  0.00    +0.000 C 
ATOM     20  O   UNL     1      49.149   6.855  13.521  0.00  0.00    +0.000 OA
ATOM     21  H   UNL     1      46.245   6.337  14.662  0.00  0.00    +0.000 HD
BRANCH  19  22
ATOM     22  C   UNL     1      48.612   6.179  15.713  0.00  0.00    +0.000 A 
ATOM     23  C   UNL     1      49.423   6.986  16.500  0.00  0.00    +0.000 A 
ATOM     24  S   UNL     1      49.678   6.379  18.072  0.00  0.00    +0.000 S 
ATOM     25  C   UNL     1      48.758   4.988  17.744  0.00  0.00    +0.000 A 
ATOM     26  N   UNL     1      48.595   4.019  18.684  0.00  0.00    +0.000 NA
ATOM     27  C   UNL     1      47.897   3.006  18.292  0.00  0.00    +0.000 A 
ATOM     28  N   UNL     1      47.343   2.876  17.046  0.00  0.00    +0.000 N 
ATOM     29  C   UNL     1      47.458   3.842  16.072  0.00  0.00    +0.000 A 
ATOM     30  O   UNL     1      46.917   3.716  14.980  0.00  0.00    +0.000 OA
ATOM     31  C   UNL     1      48.244   4.997  16.458  0.00  0.00    +0.000 A 
ATOM     32  H   UNL     1      46.799   2.061  16.805  0.00  0.00    +0.000 HD
ENDBRANCH  19  22
ENDBRANCH  17  18
ENDBRANCH   4  17
TORSDOF 6
ENDMDL
MODEL 2
REMARK VINA RESULT:    -8.916      1.658      2.312
REMARK INTER + INTRA:         -11.748
REMARK INTER:                 -11.578
REMARK INTRA:                  -0.170
REMARK UNBOUND:                 0.035
REMARK  Name = 
REMARK  6 active torsions:
REMARK  status: ('A' for Active; 'I' for Inactive)
REMARK    1  A    between atoms: N_1  and  C_2
REMARK    2  A    between atoms: C_5  and  C_6
REMARK    3  A    between atoms: C_6  and  C_7
REMARK    4  A    between atoms: C_10  and  C_11
REMARK    5  A    between atoms: C_11  and  N_12
REMARK    6  A    between atoms: C_13  and  C_15
REMARK                            x       y       z     vdW  Elec       q    Type
REMARK                         _______ _______ _______ _____ _____    ______ ____
ROOT
ATOM      1  C   UNL     1      44.928   4.206  10.438  0.00  0.00    +0.000 A 
ATOM      2  C   UNL     1      45.304   5.502  10.092  0.00  0.00    +0.000 A 
ATOM      3  C   UNL     1      45.996   6.280  11.021  0.00  0.00    +0.000 A 
ATOM      4  C   UNL     1      46.287   5.763  12.282  0.00  0.00    +0.000 A 
ATOM      5  C   UNL     1      45.875   4.461  12.541  0.00  0.00    +0.000 A 
ATOM      6  N   UNL     1      45.209   3.678  11.654  0.00  0.00    +0.000 NA
ENDROOT
BRANCH   1   7
ATOM      7  C   UNL     1      44.219   3.321   9.433  0.00  0.00    +0.000 C 
BRANCH   7  11
ATOM      8  C   UNL     1      47.690   2.273   6.912  0.00  0.00    +0.000 C 
ATOM      9  C   UNL     1      46.869   3.522   6.579  0.00  0.00    +0.000 C 
ATOM     10  C   UNL     1      46.054   3.985   7.785  0.00  0.00    +0.000 C 
ATOM     11  C   UNL     1      45.111   2.869   8.261  0.00  0.00    +0.000 C 
ATOM     12  C   UNL     1      45.946   1.633   8.646  0.00  0.00    +0.000 C 
ATOM     13  C   UNL     1      46.805   1.152   7.472  0.00  0.00    +0.000 C 
BRANCH   8  14
ATOM     14  N   UNL     1      48.399   1.802   5.721  0.00  0.00    +0.000 NA
ATOM     15  H   UNL     1      49.385   2.053   5.791  0.00  0.00    +0.000 HD
ATOM     16  H   UNL     1      48.050   2.294   4.899  0.00  0.00    +0.000 HD
ENDBRANCH   8  14
ENDBRANCH   7  11
ENDBRANCH   1   7
BRANCH   4  17
ATOM     17  C   UNL     1      47.054   6.561  13.295  0.00  0.00    +0.000 C 
BRANCH  17  18
ATOM     18  N   UNL     1      47.151   5.867  14.557  0.00  0.00    +0.000 N 
ATOM     19  C   UNL     1      48.306   5.909  15.299  0.00  0.00    +0.000 C 
ATOM     20  O   UNL     1      49.285   6.554  14.933  0.00  0.00    +0.000 OA
ATOM     21  H   UNL     1      46.455   5.155  14.757  0.00  0.00    +0.000 HD
BRANCH  19  22
ATOM     22  C   UNL     1      48.297   5.195  16.584  0.00  0.00    +0.000 A 
ATOM     23  C   UNL     1      48.232   3.808  16.596  0.00  0.00    +0.000 A 
ATOM     24  S   UNL     1      48.284   3.131  18.159  0.00  0.00    +0.000 S 
ATOM     25  C   UNL     1      48.342   4.668  18.883  0.00  0.00    +0.000 A 
ATOM     26  N   UNL     1      48.375   4.804  20.236  0.00  0.00    +0.000 NA
ATOM     27  C   UNL     1      48.389   6.027  20.650  0.00  0.00    +0.000 A 
ATOM     28  N   UNL     1      48.378   7.127  19.833  0.00  0.00    +0.000 N 
ATOM     29  C   UNL     1      48.372   7.038  18.460  0.00  0.00    +0.000 A 
ATOM     30  O   UNL     1      48.404   8.040  17.755  0.00  0.00    +0.000 OA
ATOM     31  C   UNL     1      48.344   5.685  17.942  0.00  0.00    +0.000 A 
ATOM     32  H   UNL     1      48.400   8.058  20.221  0.00  0.00    +0.000 HD
ENDBRANCH  19  22
ENDBRANCH  17  18
ENDBRANCH   4  17
TORSDOF 6
ENDMDL
MODEL 3
REMARK VINA RESULT:    -8.800      2.546      4.271
REMARK INTER + INTRA:         -11.595
REMARK INTER:                 -10.813
REMARK INTRA:                  -0.783
REMARK UNBOUND:                 0.035
REMARK  Name = 
REMARK  6 active torsions:
REMARK  status: ('A' for Active; 'I' for Inactive)
REMARK    1  A    between atoms: N_1  and  C_2
REMARK    2  A    between atoms: C_5  and  C_6
REMARK    3  A    between atoms: C_6  and  C_7
REMARK    4  A    between atoms: C_10  and  C_11
REMARK    5  A    between atoms: C_11  and  N_12
REMARK    6  A    between atoms: C_13  and  C_15
REMARK                            x       y       z     vdW  Elec       q    Type
REMARK                         _______ _______ _______ _____ _____    ______ ____
ROOT
ATOM      1  C   UNL     1      44.845   4.264  10.543  0.00  0.00    +0.000 A 
ATOM      2  C   UNL     1      45.475   5.503  10.628  0.00  0.00    +0.000 A 
ATOM      3  C   UNL     1      46.178   5.831  11.788  0.00  0.00    +0.000 A 
ATOM      4  C   UNL     1      46.229   4.928  12.849  0.00  0.00    +0.000 A 
ATOM      5  C   UNL     1      45.572   3.715  12.677  0.00  0.00    +0.000 A 
ATOM      6  N   UNL     1      44.889   3.366  11.557  0.00  0.00    +0.000 NA
ENDROOT
BRANCH   1   7
ATOM      7  C   UNL     1      44.116   3.862   9.278  0.00  0.00    +0.000 C 
BRANCH   7  11
ATOM      8  C   UNL     1      47.614   2.315   7.068  0.00  0.00    +0.000 C 
ATOM      9  C   UNL     1      46.897   3.569   6.559  0.00  0.00    +0.000 C 
ATOM     10  C   UNL     1      46.063   4.216   7.663  0.00  0.00    +0.000 C 
ATOM     11  C   UNL     1      45.025   3.224   8.210  0.00  0.00    +0.000 C 
ATOM     12  C   UNL     1      45.756   1.989   8.770  0.00  0.00    +0.000 C 
ATOM     13  C   UNL     1      46.630   1.323   7.702  0.00  0.00    +0.000 C 
BRANCH   8  14
ATOM     14  N   UNL     1      48.340   1.669   5.975  0.00  0.00    +0.000 NA
ATOM     15  H   UNL     1      47.677   1.197   5.359  0.00  0.00    +0.000 HD
ATOM     16  H   UNL     1      48.937   0.931   6.349  0.00  0.00    +0.000 HD
ENDBRANCH   8  14
ENDBRANCH   7  11
ENDBRANCH   1   7
BRANCH   4  17
ATOM     17  C   UNL     1      46.999   5.235  14.100  0.00  0.00    +0.000 C 
BRANCH  17  18
ATOM     18  N   UNL     1      47.459   6.603  14.120  0.00  0.00    +0.000 N 
ATOM     19  C   UNL     1      48.563   6.966  14.850  0.00  0.00    +0.000 C 
ATOM     20  O   UNL     1      49.214   6.142  15.489  0.00  0.00    +0.000 OA
ATOM     21  H   UNL     1      46.815   7.321  13.798  0.00  0.00    +0.000 HD
BRANCH  19  22
ATOM     22  C   UNL     1      48.971   8.377  14.784  0.00  0.00    +0.000 A 
ATOM     23  C   UNL     1      49.062   9.118  15.954  0.00  0.00    +0.000 A 
ATOM     24  S   UNL     1      49.597  10.719  15.714  0.00  0.00    +0.000 S 
ATOM     25  C   UNL     1      49.675  10.498  14.030  0.00  0.00    +0.000 A 
ATOM     26  N   UNL     1      50.048  11.516  13.208  0.00  0.00    +0.000 NA
ATOM     27  C   UNL     1      50.037  11.218  11.952  0.00  0.00    +0.000 A 
ATOM     28  N   UNL     1      49.693   9.994  11.443  0.00  0.00    +0.000 N 
ATOM     29  C   UNL     1      49.336   8.928  12.237  0.00  0.00    +0.000 A 
ATOM     30  O   UNL     1      49.072   7.833  11.755  0.00  0.00    +0.000 OA
ATOM     31  C   UNL     1      49.320   9.213  13.658  0.00  0.00    +0.000 A 
ATOM     32  H   UNL     1      49.714   9.823  10.449  0.00  0.00    +0.000 HD
ENDBRANCH  19  22
ENDBRANCH  17  18
ENDBRANCH   4  17
TORSDOF 6
ENDMDL
MODEL 4
REMARK VINA RESULT:    -8.266      3.150      4.026
REMARK INTER + INTRA:         -10.889
REMARK INTER:                 -10.284
REMARK INTRA:                  -0.605
REMARK UNBOUND:                 0.035
REMARK  Name = 
REMARK  6 active torsions:
REMARK  status: ('A' for Active; 'I' for Inactive)
REMARK    1  A    between atoms: N_1  and  C_2
REMARK    2  A    between atoms: C_5  and  C_6
REMARK    3  A    between atoms: C_6  and  C_7
REMARK    4  A    between atoms: C_10  and  C_11
REMARK    5  A    between atoms: C_11  and  N_12
REMARK    6  A    between atoms: C_13  and  C_15
REMARK                            x       y       z     vdW  Elec       q    Type
REMARK                         _______ _______ _______ _____ _____    ______ ____
ROOT
ATOM      1  C   UNL     1      44.582   3.539  10.377  0.00  0.00    +0.000 A 
ATOM      2  C   UNL     1      45.351   3.271  11.507  0.00  0.00    +0.000 A 
ATOM      3  C   UNL     1      45.657   4.312  12.385  0.00  0.00    +0.000 A 
ATOM      4  C   UNL     1      45.207   5.603  12.115  0.00  0.00    +0.000 A 
ATOM      5  C   UNL     1      44.446   5.780  10.966  0.00  0.00    +0.000 A 
ATOM      6  N   UNL     1      44.125   4.784  10.100  0.00  0.00    +0.000 NA
ENDROOT
BRANCH   1   7
ATOM      7  C   UNL     1      44.194   2.420   9.433  0.00  0.00    +0.000 C 
BRANCH   7  11
ATOM      8  C   UNL     1      47.714   2.327   6.767  0.00  0.00    +0.000 C 
ATOM      9  C   UNL     1      46.695   3.461   6.627  0.00  0.00    +0.000 C 
ATOM     10  C   UNL     1      45.850   3.606   7.893  0.00  0.00    +0.000 C 
ATOM     11  C   UNL     1      45.112   2.294   8.202  0.00  0.00    +0.000 C 
ATOM     12  C   UNL     1      46.145   1.168   8.395  0.00  0.00    +0.000 C 
ATOM     13  C   UNL     1      47.035   1.008   7.159  0.00  0.00    +0.000 C 
BRANCH   8  14
ATOM     14  N   UNL     1      48.453   2.156   5.516  0.00  0.00    +0.000 NA
ATOM     15  H   UNL     1      47.873   2.460   4.734  0.00  0.00    +0.000 HD
ATOM     16  H   UNL     1      48.629   1.164   5.356  0.00  0.00    +0.000 HD
ENDBRANCH   8  14
ENDBRANCH   7  11
ENDBRANCH   1   7
BRANCH   4  17
ATOM     17  C   UNL     1      45.493   6.741  13.051  0.00  0.00    +0.000 C 
BRANCH  17  18
ATOM     18  N   UNL     1      46.805   7.299  12.826  0.00  0.00    +0.000 N 
ATOM     19  C   UNL     1      46.971   8.641  12.590  0.00  0.00    +0.000 C 
ATOM     20  O   UNL     1      46.019   9.418  12.585  0.00  0.00    +0.000 OA
ATOM     21  H   UNL     1      47.557   6.655  12.598  0.00  0.00    +0.000 HD
BRANCH  19  22
ATOM     22  C   UNL     1      48.348   9.118  12.402  0.00  0.00    +0.000 A 
ATOM     23  C   UNL     1      48.608  10.105  11.460  0.00  0.00    +0.000 A 
ATOM     24  S   UNL     1      50.242  10.586  11.401  0.00  0.00    +0.000 S 
ATOM     25  C   UNL     1      50.675   9.455  12.595  0.00  0.00    +0.000 A 
ATOM     26  N   UNL     1      51.967   9.326  13.002  0.00  0.00    +0.000 NA
ATOM     27  C   UNL     1      52.158   8.412  13.892  0.00  0.00    +0.000 A 
ATOM     28  N   UNL     1      51.173   7.617  14.418  0.00  0.00    +0.000 N 
ATOM     29  C   UNL     1      49.850   7.730  14.057  0.00  0.00    +0.000 A 
ATOM     30  O   UNL     1      48.985   7.032  14.574  0.00  0.00    +0.000 OA
ATOM     31  C   UNL     1      49.583   8.736  13.049  0.00  0.00    +0.000 A 
ATOM     32  H   UNL     1      51.388   6.925  15.120  0.00  0.00    +0.000 HD
ENDBRANCH  19  22
ENDBRANCH  17  18
ENDBRANCH   4  17
TORSDOF 6
ENDMDL
MODEL 5
REMARK VINA RESULT:    -8.241      1.229      1.723
REMARK INTER + INTRA:         -10.856
REMARK INTER:                 -10.174
REMARK INTRA:                  -0.681
REMARK UNBOUND:                 0.035
REMARK  Name = 
REMARK  6 active torsions:
REMARK  status: ('A' for Active; 'I' for Inactive)
REMARK    1  A    between atoms: N_1  and  C_2
REMARK    2  A    between atoms: C_5  and  C_6
REMARK    3  A    between atoms: C_6  and  C_7
REMARK    4  A    between atoms: C_10  and  C_11
REMARK    5  A    between atoms: C_11  and  N_12
REMARK    6  A    between atoms: C_13  and  C_15
REMARK                            x       y       z     vdW  Elec       q    Type
REMARK                         _______ _______ _______ _____ _____    ______ ____
ROOT
ATOM      1  C   UNL     1      44.562   5.591  11.381  0.00  0.00    +0.000 A 
ATOM      2  C   UNL     1      44.428   6.973  11.275  0.00  0.00    +0.000 A 
ATOM      3  C   UNL     1      45.347   7.798  11.924  0.00  0.00    +0.000 A 
ATOM      4  C   UNL     1      46.374   7.235  12.680  0.00  0.00    +0.000 A 
ATOM      5  C   UNL     1      46.433   5.847  12.730  0.00  0.00    +0.000 A 
ATOM      6  N   UNL     1      45.559   5.020  12.101  0.00  0.00    +0.000 NA
ENDROOT
BRANCH   1   7
ATOM      7  C   UNL     1      43.609   4.671  10.647  0.00  0.00    +0.000 C 
BRANCH   7  11
ATOM      8  C   UNL     1      46.449   2.472   8.077  0.00  0.00    +0.000 C 
ATOM      9  C   UNL     1      46.040   3.898   7.697  0.00  0.00    +0.000 C 
ATOM     10  C   UNL     1      45.472   4.650   8.900  0.00  0.00    +0.000 C 
ATOM     11  C   UNL     1      44.254   3.908   9.475  0.00  0.00    +0.000 C 
ATOM     12  C   UNL     1      44.683   2.493   9.904  0.00  0.00    +0.000 C 
ATOM     13  C   UNL     1      45.289   1.712   8.733  0.00  0.00    +0.000 C 
BRANCH   8  14
ATOM     14  N   UNL     1      46.914   1.749   6.893  0.00  0.00    +0.000 NA
ATOM     15  H   UNL     1      46.550   0.796   6.913  0.00  0.00    +0.000 HD
ATOM     16  H   UNL     1      47.929   1.654   6.927  0.00  0.00    +0.000 HD
ENDBRANCH   8  14
ENDBRANCH   7  11
ENDBRANCH   1   7
BRANCH   4  17
ATOM     17  C   UNL     1      47.397   8.090  13.368  0.00  0.00    +0.000 C 
BRANCH  17  18
ATOM     18  N   UNL     1      47.646   7.643  14.717  0.00  0.00    +0.000 N 
ATOM     19  C   UNL     1      48.813   6.999  15.044  0.00  0.00    +0.000 C 
ATOM     20  O   UNL     1      49.697   6.803  14.212  0.00  0.00    +0.000 OA
ATOM     21  H   UNL     1      46.851   7.586  15.348  0.00  0.00    +0.000 HD
BRANCH  19  22
ATOM     22  C   UNL     1      48.987   6.607  16.450  0.00  0.00    +0.000 A 
ATOM     23  C   UNL     1      49.518   7.519  17.353  0.00  0.00    +0.000 A 
ATOM     24  S   UNL     1      49.606   6.931  18.951  0.00  0.00    +0.000 S 
ATOM     25  C   UNL     1      48.988   5.417  18.486  0.00  0.00    +0.000 A 
ATOM     26  N   UNL     1      48.831   4.416  19.394  0.00  0.00    +0.000 NA
ATOM     27  C   UNL     1      48.379   3.312  18.900  0.00  0.00    +0.000 A 
ATOM     28  N   UNL     1      48.065   3.119  17.581  0.00  0.00    +0.000 N 
ATOM     29  C   UNL     1      48.181   4.110  16.632  0.00  0.00    +0.000 A 
ATOM     30  O   UNL     1      47.854   3.919  15.466  0.00  0.00    +0.000 OA
ATOM     31  C   UNL     1      48.697   5.368  17.133  0.00  0.00    +0.000 A 
ATOM     32  H   UNL     1      47.706   2.232  17.260  0.00  0.00    +0.000 HD
ENDBRANCH  19  22
ENDBRANCH  17  18
ENDBRANCH   4  17
TORSDOF 6
ENDMDL
MODEL 6
REMARK VINA RESULT:    -7.571      2.528      3.454
REMARK INTER + INTRA:          -9.970
REMARK INTER:                  -9.284
REMARK INTRA:                  -0.685
REMARK UNBOUND:                 0.035
REMARK  Name = 
REMARK  6 active torsions:
REMARK  status: ('A' for Active; 'I' for Inactive)
REMARK    1  A    between atoms: N_1  and  C_2
REMARK    2  A    between atoms: C_5  and  C_6
REMARK    3  A    between atoms: C_6  and  C_7
REMARK    4  A    between atoms: C_10  and  C_11
REMARK    5  A    between atoms: C_11  and  N_12
REMARK    6  A    between atoms: C_13  and  C_15
REMARK                            x       y       z     vdW  Elec       q    Type
REMARK                         _______ _______ _______ _____ _____    ______ ____
ROOT
ATOM      1  C   UNL     1      44.933   5.770  11.705  0.00  0.00    +0.000 A 
ATOM      2  C   UNL     1      45.200   7.137  11.679  0.00  0.00    +0.000 A 
ATOM      3  C   UNL     1      46.275   7.635  12.417  0.00  0.00    +0.000 A 
ATOM      4  C   UNL     1      47.056   6.768  13.179  0.00  0.00    +0.000 A 
ATOM      5  C   UNL     1      46.719   5.420  13.145  0.00  0.00    +0.000 A 
ATOM      6  N   UNL     1      45.685   4.907  12.430  0.00  0.00    +0.000 NA
ENDROOT
BRANCH   1   7
ATOM      7  C   UNL     1      43.804   5.196  10.876  0.00  0.00    +0.000 C 
BRANCH   7  11
ATOM      8  C   UNL     1      46.155   2.467   8.319  0.00  0.00    +0.000 C 
ATOM      9  C   UNL     1      45.969   3.926   7.891  0.00  0.00    +0.000 C 
ATOM     10  C   UNL     1      45.574   4.804   9.077  0.00  0.00    +0.000 C 
ATOM     11  C   UNL     1      44.274   4.294   9.719  0.00  0.00    +0.000 C 
ATOM     12  C   UNL     1      44.484   2.844  10.196  0.00  0.00    +0.000 C 
ATOM     13  C   UNL     1      44.912   1.932   9.042  0.00  0.00    +0.000 C 
BRANCH   8  14
ATOM     14  N   UNL     1      46.453   1.633   7.155  0.00  0.00    +0.000 NA
ATOM     15  H   UNL     1      45.819   0.834   7.138  0.00  0.00    +0.000 HD
ATOM     16  H   UNL     1      47.389   1.238   7.248  0.00  0.00    +0.000 HD
ENDBRANCH   8  14
ENDBRANCH   7  11
ENDBRANCH   1   7
BRANCH   4  17
ATOM     17  C   UNL     1      48.237   7.264  13.961  0.00  0.00    +0.000 C 
BRANCH  17  18
ATOM     18  N   UNL     1      48.007   7.178  15.383  0.00  0.00    +0.000 N 
ATOM     19  C   UNL     1      48.949   6.630  16.219  0.00  0.00    +0.000 C 
ATOM     20  O   UNL     1      50.026   6.218  15.795  0.00  0.00    +0.000 OA
ATOM     21  H   UNL     1      47.054   7.294  15.714  0.00  0.00    +0.000 HD
BRANCH  19  22
ATOM     22  C   UNL     1      48.636   6.614  17.655  0.00  0.00    +0.000 A 
ATOM     23  C   UNL     1      48.806   5.441  18.379  0.00  0.00    +0.000 A 
ATOM     24  S   UNL     1      48.451   5.600  20.039  0.00  0.00    +0.000 S 
ATOM     25  C   UNL     1      48.006   7.229  19.843  0.00  0.00    +0.000 A 
ATOM     26  N   UNL     1      47.565   7.966  20.898  0.00  0.00    +0.000 NA
ATOM     27  C   UNL     1      47.234   9.178  20.603  0.00  0.00    +0.000 A 
ATOM     28  N   UNL     1      47.309   9.723  19.348  0.00  0.00    +0.000 N 
ATOM     29  C   UNL     1      47.774   9.025  18.256  0.00  0.00    +0.000 A 
ATOM     30  O   UNL     1      47.867   9.552  17.154  0.00  0.00    +0.000 OA
ATOM     31  C   UNL     1      48.147   7.653  18.532  0.00  0.00    +0.000 A 
ATOM     32  H   UNL     1      47.043  10.683  19.185  0.00  0.00    +0.000 HD
ENDBRANCH  19  22
ENDBRANCH  17  18
ENDBRANCH   4  17
TORSDOF 6
ENDMDL
MODEL 7
REMARK VINA RESULT:    -7.478      3.098      9.025
REMARK INTER + INTRA:          -9.848
REMARK INTER:                  -8.871
REMARK INTRA:                  -0.977
REMARK UNBOUND:                 0.035
REMARK  Name = 
REMARK  6 active torsions:
REMARK  status: ('A' for Active; 'I' for Inactive)
REMARK    1  A    between atoms: N_1  and  C_2
REMARK    2  A    between atoms: C_5  and  C_6
REMARK    3  A    between atoms: C_6  and  C_7
REMARK    4  A    between atoms: C_10  and  C_11
REMARK    5  A    between atoms: C_11  and  N_12
REMARK    6  A    between atoms: C_13  and  C_15
REMARK                            x       y       z     vdW  Elec       q    Type
REMARK                         _______ _______ _______ _____ _____    ______ ____
ROOT
ATOM      1  C   UNL     1      49.277   7.849  15.605  0.00  0.00    +0.000 A 
ATOM      2  C   UNL     1      48.276   8.786  15.357  0.00  0.00    +0.000 A 
ATOM      3  C   UNL     1      47.657   8.805  14.106  0.00  0.00    +0.000 A 
ATOM      4  C   UNL     1      48.054   7.903  13.120  0.00  0.00    +0.000 A 
ATOM      5  C   UNL     1      49.059   7.003  13.454  0.00  0.00    +0.000 A 
ATOM      6  N   UNL     1      49.672   6.956  14.665  0.00  0.00    +0.000 NA
ENDROOT
BRANCH   1   7
ATOM      7  C   UNL     1      49.933   7.773  16.967  0.00  0.00    +0.000 C 
BRANCH   7  11
ATOM      8  C   UNL     1      49.154   5.056  20.361  0.00  0.00    +0.000 C 
ATOM      9  C   UNL     1      49.612   4.473  19.022  0.00  0.00    +0.000 C 
ATOM     10  C   UNL     1      50.281   5.539  18.155  0.00  0.00    +0.000 C 
ATOM     11  C   UNL     1      49.319   6.709  17.898  0.00  0.00    +0.000 C 
ATOM     12  C   UNL     1      48.903   7.325  19.246  0.00  0.00    +0.000 C 
ATOM     13  C   UNL     1      48.254   6.282  20.162  0.00  0.00    +0.000 C 
BRANCH   8  14
ATOM     14  N   UNL     1      48.446   4.038  21.139  0.00  0.00    +0.000 NA
ATOM     15  H   UNL     1      47.952   4.484  21.912  0.00  0.00    +0.000 HD
ATOM     16  H   UNL     1      49.121   3.409  21.574  0.00  0.00    +0.000 HD
ENDBRANCH   8  14
ENDBRANCH   7  11
ENDBRANCH   1   7
BRANCH   4  17
ATOM     17  C   UNL     1      47.390   7.876  11.774  0.00  0.00    +0.000 C 
BRANCH  17  18
ATOM     18  N   UNL     1      46.752   6.607  11.521  0.00  0.00    +0.000 N 
ATOM     19  C   UNL     1      45.423   6.415  11.808  0.00  0.00    +0.000 C 
ATOM     20  O   UNL     1      44.725   7.317  12.265  0.00  0.00    +0.000 OA
ATOM     21  H   UNL     1      47.351   5.801  11.368  0.00  0.00    +0.000 HD
BRANCH  19  22
ATOM     22  C   UNL     1      44.856   5.098  11.488  0.00  0.00    +0.000 A 
ATOM     23  C   UNL     1      44.132   4.410  12.453  0.00  0.00    +0.000 A 
ATOM     24  S   UNL     1      43.498   2.925  11.910  0.00  0.00    +0.000 S 
ATOM     25  C   UNL     1      44.211   3.118  10.379  0.00  0.00    +0.000 A 
ATOM     26  N   UNL     1      44.076   2.164   9.418  0.00  0.00    +0.000 NA
ATOM     27  C   UNL     1      44.691   2.427   8.314  0.00  0.00    +0.000 A 
ATOM     28  N   UNL     1      45.426   3.559   8.081  0.00  0.00    +0.000 N 
ATOM     29  C   UNL     1      45.569   4.563   9.012  0.00  0.00    +0.000 A 
ATOM     30  O   UNL     1      46.199   5.583   8.760  0.00  0.00    +0.000 OA
ATOM     31  C   UNL     1      44.906   4.311  10.276  0.00  0.00    +0.000 A 
ATOM     32  H   UNL     1      45.876   3.709   7.190  0.00  0.00    +0.000 HD
ENDBRANCH  19  22
ENDBRANCH  17  18
ENDBRANCH   4  17
TORSDOF 6
ENDMDL
MODEL 8
REMARK VINA RESULT:    -7.403      3.300      4.928
REMARK INTER + INTRA:          -9.748
REMARK INTER:                  -8.667
REMARK INTRA:                  -1.081
REMARK UNBOUND:                 0.035
REMARK  Name = 
REMARK  6 active torsions:
REMARK  status: ('A' for Active; 'I' for Inactive)
REMARK    1  A    between atoms: N_1  and  C_2
REMARK    2  A    between atoms: C_5  and  C_6
REMARK    3  A    between atoms: C_6  and  C_7
REMARK    4  A    between atoms: C_10  and  C_11
REMARK    5  A    between atoms: C_11  and  N_12
REMARK    6  A    between atoms: C_13  and  C_15
REMARK                            x       y       z     vdW  Elec       q    Type
REMARK                         _______ _______ _______ _____ _____    ______ ____
ROOT
ATOM      1  C   UNL     1      47.018   7.253  13.181  0.00  0.00    +0.000 A 
ATOM      2  C   UNL     1      47.772   6.191  13.675  0.00  0.00    +0.000 A 
ATOM      3  C   UNL     1      48.662   6.419  14.726  0.00  0.00    +0.000 A 
ATOM      4  C   UNL     1      48.798   7.701  15.256  0.00  0.00    +0.000 A 
ATOM      5  C   UNL     1      48.006   8.701  14.703  0.00  0.00    +0.000 A 
ATOM      6  N   UNL     1      47.126   8.506  13.688  0.00  0.00    +0.000 NA
ENDROOT
BRANCH   1   7
ATOM      7  C   UNL     1      46.010   7.026  12.074  0.00  0.00    +0.000 C 
BRANCH   7  11
ATOM      8  C   UNL     1      43.333   3.557  11.517  0.00  0.00    +0.000 C 
ATOM      9  C   UNL     1      43.668   4.028  12.935  0.00  0.00    +0.000 C 
ATOM     10  C   UNL     1      44.176   5.469  12.934  0.00  0.00    +0.000 C 
ATOM     11  C   UNL     1      45.424   5.601  12.046  0.00  0.00    +0.000 C 
ATOM     12  C   UNL     1      45.067   5.177  10.609  0.00  0.00    +0.000 C 
ATOM     13  C   UNL     1      44.522   3.746  10.567  0.00  0.00    +0.000 C 
BRANCH   8  14
ATOM     14  N   UNL     1      42.925   2.152  11.535  0.00  0.00    +0.000 NA
ATOM     15  H   UNL     1      43.583   1.615  12.100  0.00  0.00    +0.000 HD
ATOM     16  H   UNL     1      42.993   1.765  10.594  0.00  0.00    +0.000 HD
ENDBRANCH   8  14
ENDBRANCH   7  11
ENDBRANCH   1   7
BRANCH   4  17
ATOM     17  C   UNL     1      49.723   7.977  16.405  0.00  0.00    +0.000 C 
BRANCH  17  18
ATOM     18  N   UNL     1      50.589   6.854  16.673  0.00  0.00    +0.000 N 
ATOM     19  C   UNL     1      50.813   6.427  17.958  0.00  0.00    +0.000 C 
ATOM     20  O   UNL     1      50.270   6.964  18.921  0.00  0.00    +0.000 OA
ATOM     21  H   UNL     1      51.214   6.554  15.931  0.00  0.00    +0.000 HD
BRANCH  19  22
ATOM     22  C   UNL     1      51.687   5.257  18.128  0.00  0.00    +0.000 A 
ATOM     23  C   UNL     1      52.959   5.424  18.660  0.00  0.00    +0.000 A 
ATOM     24  S   UNL     1      53.824   3.966  18.841  0.00  0.00    +0.000 S 
ATOM     25  C   UNL     1      52.552   3.063  18.165  0.00  0.00    +0.000 A 
ATOM     26  N   UNL     1      52.659   1.717  18.003  0.00  0.00    +0.000 NA
ATOM     27  C   UNL     1      51.632   1.161  17.453  0.00  0.00    +0.000 A 
ATOM     28  N   UNL     1      50.504   1.829  17.055  0.00  0.00    +0.000 N 
ATOM     29  C   UNL     1      50.340   3.185  17.224  0.00  0.00    +0.000 A 
ATOM     30  O   UNL     1      49.303   3.749  16.894  0.00  0.00    +0.000 OA
ATOM     31  C   UNL     1      51.472   3.860  17.827  0.00  0.00    +0.000 A 
ATOM     32  H   UNL     1      49.730   1.333  16.639  0.00  0.00    +0.000 HD
ENDBRANCH  19  22
ENDBRANCH  17  18
ENDBRANCH   4  17
TORSDOF 6
ENDMDL
MODEL 9
REMARK VINA RESULT:    -7.295      2.540      3.589
REMARK INTER + INTRA:          -9.605
REMARK INTER:                  -8.687
REMARK INTRA:                  -0.918
REMARK UNBOUND:                 0.035
REMARK  Name = 
REMARK  6 active torsions:
REMARK  status: ('A' for Active; 'I' for Inactive)
REMARK    1  A    between atoms: N_1  and  C_2
REMARK    2  A    between atoms: C_5  and  C_6
REMARK    3  A    between atoms: C_6  and  C_7
REMARK    4  A    between atoms: C_10  and  C_11
REMARK    5  A    between atoms: C_11  and  N_12
REMARK    6  A    between atoms: C_13  and  C_15
REMARK                            x       y       z     vdW  Elec       q    Type
REMARK                         _______ _______ _______ _____ _____    ______ ____
ROOT
ATOM      1  C   UNL     1      44.956   5.453  11.155  0.00  0.00    +0.000 A 
ATOM      2  C   UNL     1      44.436   6.743  11.203  0.00  0.00    +0.000 A 
ATOM      3  C   UNL     1      45.035   7.689  12.037  0.00  0.00    +0.000 A 
ATOM      4  C   UNL     1      46.132   7.329  12.819  0.00  0.00    +0.000 A 
ATOM      5  C   UNL     1      46.585   6.020  12.707  0.00  0.00    +0.000 A 
ATOM      6  N   UNL     1      46.028   5.083  11.898  0.00  0.00    +0.000 NA
ENDROOT
BRANCH   1   7
ATOM      7  C   UNL     1      44.356   4.420  10.223  0.00  0.00    +0.000 C 
BRANCH   7  11
ATOM      8  C   UNL     1      46.415   2.136   7.053  0.00  0.00    +0.000 C 
ATOM      9  C   UNL     1      46.008   1.426   8.347  0.00  0.00    +0.000 C 
ATOM     10  C   UNL     1      44.920   2.204   9.086  0.00  0.00    +0.000 C 
ATOM     11  C   UNL     1      45.401   3.626   9.415  0.00  0.00    +0.000 C 
ATOM     12  C   UNL     1      45.758   4.353   8.105  0.00  0.00    +0.000 C 
ATOM     13  C   UNL     1      46.826   3.591   7.315  0.00  0.00    +0.000 C 
BRANCH   8  14
ATOM     14  N   UNL     1      47.513   1.416   6.406  0.00  0.00    +0.000 NA
ATOM     15  H   UNL     1      48.319   2.034   6.317  0.00  0.00    +0.000 HD
ATOM     16  H   UNL     1      47.247   1.175   5.451  0.00  0.00    +0.000 HD
ENDBRANCH   8  14
ENDBRANCH   7  11
ENDBRANCH   1   7
BRANCH   4  17
ATOM     17  C   UNL     1      46.819   8.326  13.705  0.00  0.00    +0.000 C 
BRANCH  17  18
ATOM     18  N   UNL     1      47.982   7.759  14.344  0.00  0.00    +0.000 N 
ATOM     19  C   UNL     1      48.441   8.250  15.541  0.00  0.00    +0.000 C 
ATOM     20  O   UNL     1      47.869   9.169  16.123  0.00  0.00    +0.000 OA
ATOM     21  H   UNL     1      48.590   7.172  13.780  0.00  0.00    +0.000 HD
BRANCH  19  22
ATOM     22  C   UNL     1      49.614   7.587  16.127  0.00  0.00    +0.000 A 
ATOM     23  C   UNL     1      49.491   6.928  17.343  0.00  0.00    +0.000 A 
ATOM     24  S   UNL     1      50.925   6.167  17.862  0.00  0.00    +0.000 S 
ATOM     25  C   UNL     1      51.781   6.735  16.507  0.00  0.00    +0.000 A 
ATOM     26  N   UNL     1      53.103   6.457  16.346  0.00  0.00    +0.000 NA
ATOM     27  C   UNL     1      53.633   6.973  15.289  0.00  0.00    +0.000 A 
ATOM     28  N   UNL     1      52.960   7.739  14.374  0.00  0.00    +0.000 N 
ATOM     29  C   UNL     1      51.618   8.024  14.480  0.00  0.00    +0.000 A 
ATOM     30  O   UNL     1      51.034   8.678  13.623  0.00  0.00    +0.000 OA
ATOM     31  C   UNL     1      50.976   7.477  15.658  0.00  0.00    +0.000 A 
ATOM     32  H   UNL     1      53.433   8.106  13.561  0.00  0.00    +0.000 HD
ENDBRANCH  19  22
ENDBRANCH  17  18
ENDBRANCH   4  17
TORSDOF 6
ENDMDL
