MODEL 1
REMARK VINA RESULT:    -6.778      0.000      0.000
REMARK INTER + INTRA:         -11.538
REMARK INTER:                 -10.146
REMARK INTRA:                  -1.393
REMARK UNBOUND:                -1.393
REMARK  Name = 
REMARK  11 active torsions:
REMARK  status: ('A' for Active; 'I' for Inactive)
REMARK    1  A    between atoms: C_1  and  O_2
REMARK    2  A    between atoms: O_2  and  C_3
REMARK    3  A    between atoms: C_10  and  C_11
REMARK    4  A    between atoms: N_13  and  C_14
REMARK    5  A    between atoms: C_14  and  C_15
REMARK    6  A    between atoms: C_18  and  N_19
REMARK    7  A    between atoms: N_19  and  C_20
REMARK    8  A    between atoms: C_20  and  C_21
REMARK    9  A    between atoms: N_24  and  C_25
REMARK   10  A    between atoms: C_27  and  C_28
REMARK   11  A    between atoms: C_28  and  O_30
REMARK                            x       y       z     vdW  Elec       q    Type
REMARK                         _______ _______ _______ _____ _____    ______ ____
ROOT
ATOM      1  C   UNL     1      48.632   6.057  15.541  0.00  0.00    +0.000 A 
ATOM      2  C   UNL     1      47.934   5.044  16.206  0.00  0.00    +0.000 A 
ATOM      3  C   UNL     1      46.861   4.394  15.585  0.00  0.00    +0.000 A 
ATOM      4  C   UNL     1      46.434   4.757  14.302  0.00  0.00    +0.000 A 
ATOM      5  C   UNL     1      47.172   5.744  13.632  0.00  0.00    +0.000 A 
ATOM      6  C   UNL     1      48.252   6.391  14.242  0.00  0.00    +0.000 A 
ENDROOT
BRANCH   4   7
ATOM      7  N   UNL     1      45.420   4.095  13.601  0.00  0.00    +0.000 N 
ATOM      8  H   UNL     1      45.026   3.341  14.158  0.00  0.00    +0.000 HD
BRANCH   7   9
ATOM      9  C   UNL     1      45.629   3.685  12.215  0.00  0.00    +0.000 C 
BRANCH   9  10
ATOM     10  C   UNL     1      44.299   3.759  11.428  0.00  0.00    +0.000 C 
ATOM     11  C   UNL     1      44.077   2.539  10.511  0.00  0.00    +0.000 C 
ATOM     12  C   UNL     1      45.099   2.489   9.374  0.00  0.00    +0.000 C 
ATOM     13  N   UNL     1      45.073   3.720   8.572  0.00  0.00    +0.000 NA
ATOM     14  C   UNL     1      46.108   3.663   7.535  0.00  0.00    +0.000 C 
ATOM     15  C   UNL     1      45.242   4.939   9.382  0.00  0.00    +0.000 C 
ATOM     16  C   UNL     1      44.230   5.013  10.535  0.00  0.00    +0.000 C 
BRANCH  16  17
ATOM     17  C   UNL     1      44.454   6.280  11.341  0.00  0.00    +0.000 C 
ATOM     18  O   UNL     1      45.301   7.119  11.082  0.00  0.00    +0.000 OA
BRANCH  17  19
ATOM     19  O   UNL     1      43.656   6.377  12.425  0.00  0.00    +0.000 OA
ATOM     20  H   UNL     1      43.233   7.250  12.542  0.00  0.00    +0.000 HD
ENDBRANCH  17  19
ENDBRANCH  16  17
ENDBRANCH   9  10
ENDBRANCH   7   9
ENDBRANCH   4   7
BRANCH   1  21
ATOM     21  C   UNL     1      49.809   6.731  16.196  0.00  0.00    +0.000 C 
BRANCH  21  24
ATOM     22  C   UNL     1      50.875   5.515  18.036  0.00  0.00    +0.000 C 
ATOM     23  O   UNL     1      50.144   6.076  18.850  0.00  0.00    +0.000 OA
ATOM     24  N   UNL     1      50.752   5.759  16.695  0.00  0.00    +0.000 N 
ATOM     25  H   UNL     1      51.409   5.355  16.040  0.00  0.00    +0.000 HD
BRANCH  22  33
ATOM     26  C   UNL     1      51.515   2.180  17.372  0.00  0.00    +0.000 A 
ATOM     27  N   UNL     1      51.996   0.920  17.309  0.00  0.00    +0.000 NA
ATOM     28  C   UNL     1      53.090   0.623  18.012  0.00  0.00    +0.000 A 
ATOM     29  N   UNL     1      53.784   1.446  18.791  0.00  0.00    +0.000 NA
ATOM     30  C   UNL     1      53.269   2.686  18.837  0.00  0.00    +0.000 A 
ATOM     31  S   UNL     1      54.037   3.866  19.784  0.00  0.00    +0.000 S 
ATOM     32  C   UNL     1      52.890   5.033  19.343  0.00  0.00    +0.000 A 
ATOM     33  C   UNL     1      51.908   4.564  18.476  0.00  0.00    +0.000 A 
ATOM     34  C   UNL     1      52.137   3.154  18.172  0.00  0.00    +0.000 A 
BRANCH  26  36
ATOM     35  C   UNL     1      49.180   2.132  17.320  0.00  0.00    +0.000 C 
ATOM     36  O   UNL     1      50.385   2.479  16.636  0.00  0.00    +0.000 OA
ENDBRANCH  26  36
ENDBRANCH  22  33
ENDBRANCH  21  24
ENDBRANCH   1  21
TORSDOF 9
ENDMDL
MODEL 2
REMARK VINA RESULT:    -6.652      3.033      4.022
REMARK INTER + INTRA:         -11.349
REMARK INTER:                 -10.609
REMARK INTRA:                  -0.740
REMARK UNBOUND:                -1.393
REMARK  Name = 
REMARK  11 active torsions:
REMARK  status: ('A' for Active; 'I' for Inactive)
REMARK    1  A    between atoms: C_1  and  O_2
REMARK    2  A    between atoms: O_2  and  C_3
REMARK    3  A    between atoms: C_10  and  C_11
REMARK    4  A    between atoms: N_13  and  C_14
REMARK    5  A    between atoms: C_14  and  C_15
REMARK    6  A    between atoms: C_18  and  N_19
REMARK    7  A    between atoms: N_19  and  C_20
REMARK    8  A    between atoms: C_20  and  C_21
REMARK    9  A    between atoms: N_24  and  C_25
REMARK   10  A    between atoms: C_27  and  C_28
REMARK   11  A    between atoms: C_28  and  O_30
REMARK                            x       y       z     vdW  Elec       q    Type
REMARK                         _______ _______ _______ _____ _____    ______ ____
ROOT
ATOM      1  C   UNL     1      46.490   8.408  13.216  0.00  0.00    +0.000 A 
ATOM      2  C   UNL     1      45.960   7.166  13.581  0.00  0.00    +0.000 A 
ATOM      3  C   UNL     1      44.888   6.613  12.870  0.00  0.00    +0.000 A 
ATOM      4  C   UNL     1      44.295   7.294  11.801  0.00  0.00    +0.000 A 
ATOM      5  C   UNL     1      44.866   8.518  11.420  0.00  0.00    +0.000 A 
ATOM      6  C   UNL     1      45.943   9.072  12.119  0.00  0.00    +0.000 A 
ENDROOT
BRANCH   4   7
ATOM      7  N   UNL     1      43.275   6.762  11.006  0.00  0.00    +0.000 N 
ATOM      8  H   UNL     1      42.366   6.897  11.443  0.00  0.00    +0.000 HD
BRANCH   7   9
ATOM      9  C   UNL     1      43.404   5.421  10.441  0.00  0.00    +0.000 C 
BRANCH   9  10
ATOM     10  C   UNL     1      44.791   4.826  10.785  0.00  0.00    +0.000 C 
ATOM     11  C   UNL     1      45.862   5.152   9.724  0.00  0.00    +0.000 C 
ATOM     12  C   UNL     1      45.565   4.472   8.388  0.00  0.00    +0.000 C 
ATOM     13  N   UNL     1      45.447   3.015   8.539  0.00  0.00    +0.000 NA
ATOM     14  C   UNL     1      45.097   2.405   7.253  0.00  0.00    +0.000 C 
ATOM     15  C   UNL     1      44.466   2.619   9.564  0.00  0.00    +0.000 C 
ATOM     16  C   UNL     1      44.740   3.292  10.917  0.00  0.00    +0.000 C 
BRANCH  16  17
ATOM     17  C   UNL     1      43.697   2.858  11.933  0.00  0.00    +0.000 C 
ATOM     18  O   UNL     1      43.624   3.293  13.071  0.00  0.00    +0.000 OA
BRANCH  17  19
ATOM     19  O   UNL     1      42.873   1.891  11.480  0.00  0.00    +0.000 OA
ATOM     20  H   UNL     1      41.986   1.885  11.892  0.00  0.00    +0.000 HD
ENDBRANCH  17  19
ENDBRANCH  16  17
ENDBRANCH   9  10
ENDBRANCH   7   9
ENDBRANCH   4   7
BRANCH   1  21
ATOM     21  C   UNL     1      47.665   8.986  13.959  0.00  0.00    +0.000 C 
BRANCH  21  24
ATOM     22  C   UNL     1      48.856   7.121  15.009  0.00  0.00    +0.000 C 
ATOM     23  O   UNL     1      49.414   6.858  13.945  0.00  0.00    +0.000 OA
ATOM     24  N   UNL     1      47.998   8.182  15.110  0.00  0.00    +0.000 N 
ATOM     25  H   UNL     1      47.483   8.343  15.967  0.00  0.00    +0.000 HD
BRANCH  22  33
ATOM     26  C   UNL     1      47.395   4.258  16.293  0.00  0.00    +0.000 A 
ATOM     27  N   UNL     1      47.027   3.182  17.021  0.00  0.00    +0.000 NA
ATOM     28  C   UNL     1      47.692   2.921  18.148  0.00  0.00    +0.000 A 
ATOM     29  N   UNL     1      48.705   3.615  18.654  0.00  0.00    +0.000 NA
ATOM     30  C   UNL     1      49.036   4.682  17.908  0.00  0.00    +0.000 A 
ATOM     31  S   UNL     1      50.315   5.678  18.410  0.00  0.00    +0.000 S 
ATOM     32  C   UNL     1      50.118   6.689  17.064  0.00  0.00    +0.000 A 
ATOM     33  C   UNL     1      49.091   6.302  16.209  0.00  0.00    +0.000 A 
ATOM     34  C   UNL     1      48.442   5.096  16.718  0.00  0.00    +0.000 A 
BRANCH  26  36
ATOM     35  C   UNL     1      47.085   3.642  14.062  0.00  0.00    +0.000 C 
ATOM     36  O   UNL     1      46.705   4.517  15.125  0.00  0.00    +0.000 OA
ENDBRANCH  26  36
ENDBRANCH  22  33
ENDBRANCH  21  24
ENDBRANCH   1  21
TORSDOF 9
ENDMDL
MODEL 3
REMARK VINA RESULT:    -6.471      1.902      2.619
REMARK INTER + INTRA:         -11.078
REMARK INTER:                  -9.966
REMARK INTRA:                  -1.113
REMARK UNBOUND:                -1.393
REMARK  Name = 
REMARK  11 active torsions:
REMARK  status: ('A' for Active; 'I' for Inactive)
REMARK    1  A    between atoms: C_1  and  O_2
REMARK    2  A    between atoms: O_2  and  C_3
REMARK    3  A    between atoms: C_10  and  C_11
REMARK    4  A    between atoms: N_13  and  C_14
REMARK    5  A    between atoms: C_14  and  C_15
REMARK    6  A    between atoms: C_18  and  N_19
REMARK    7  A    between atoms: N_19  and  C_20
REMARK    8  A    between atoms: C_20  and  C_21
REMARK    9  A    between atoms: N_24  and  C_25
REMARK   10  A    between atoms: C_27  and  C_28
REMARK   11  A    between atoms: C_28  and  O_30
REMARK                            x       y       z     vdW  Elec       q    Type
REMARK                         _______ _______ _______ _____ _____    ______ ____
ROOT
ATOM      1  C   UNL     1      48.388   7.505  14.945  0.00  0.00    +0.000 A 
ATOM      2  C   UNL     1      48.216   6.207  14.455  0.00  0.00    +0.000 A 
ATOM      3  C   UNL     1      47.417   5.971  13.330  0.00  0.00    +0.000 A 
ATOM      4  C   UNL     1      46.744   7.013  12.684  0.00  0.00    +0.000 A 
ATOM      5  C   UNL     1      46.962   8.315  13.161  0.00  0.00    +0.000 A 
ATOM      6  C   UNL     1      47.766   8.560  14.279  0.00  0.00    +0.000 A 
ENDROOT
BRANCH   4   7
ATOM      7  N   UNL     1      45.996   6.852  11.513  0.00  0.00    +0.000 N 
ATOM      8  H   UNL     1      45.075   7.273  11.610  0.00  0.00    +0.000 HD
BRANCH   7   9
ATOM      9  C   UNL     1      45.924   5.549  10.857  0.00  0.00    +0.000 C 
BRANCH   9  10
ATOM     10  C   UNL     1      44.599   5.418  10.069  0.00  0.00    +0.000 C 
ATOM     11  C   UNL     1      43.354   5.456  10.977  0.00  0.00    +0.000 C 
ATOM     12  C   UNL     1      43.282   4.235  11.895  0.00  0.00    +0.000 C 
ATOM     13  N   UNL     1      43.293   2.983  11.126  0.00  0.00    +0.000 NA
ATOM     14  C   UNL     1      43.289   1.835  12.039  0.00  0.00    +0.000 C 
ATOM     15  C   UNL     1      44.437   2.884  10.202  0.00  0.00    +0.000 C 
ATOM     16  C   UNL     1      44.535   4.101   9.271  0.00  0.00    +0.000 C 
BRANCH  16  17
ATOM     17  C   UNL     1      45.733   3.953   8.349  0.00  0.00    +0.000 C 
ATOM     18  O   UNL     1      46.350   4.890   7.869  0.00  0.00    +0.000 OA
BRANCH  17  19
ATOM     19  O   UNL     1      46.031   2.671   8.054  0.00  0.00    +0.000 OA
ATOM     20  H   UNL     1      46.683   2.256   8.652  0.00  0.00    +0.000 HD
ENDBRANCH  17  19
ENDBRANCH  16  17
ENDBRANCH   9  10
ENDBRANCH   7   9
ENDBRANCH   4   7
BRANCH   1  21
ATOM     21  C   UNL     1      49.275   7.763  16.135  0.00  0.00    +0.000 C 
BRANCH  21  24
ATOM     22  C   UNL     1      50.541   6.350  17.684  0.00  0.00    +0.000 C 
ATOM     23  O   UNL     1      50.176   7.039  18.635  0.00  0.00    +0.000 OA
ATOM     24  N   UNL     1      50.113   6.621  16.413  0.00  0.00    +0.000 N 
ATOM     25  H   UNL     1      50.481   6.099  15.628  0.00  0.00    +0.000 HD
BRANCH  22  33
ATOM     26  C   UNL     1      50.286   2.941  17.144  0.00  0.00    +0.000 A 
ATOM     27  N   UNL     1      50.470   1.607  17.049  0.00  0.00    +0.000 NA
ATOM     28  C   UNL     1      51.646   1.100  17.423  0.00  0.00    +0.000 A 
ATOM     29  N   UNL     1      52.690   1.774  17.893  0.00  0.00    +0.000 NA
ATOM     30  C   UNL     1      52.465   3.096  17.983  0.00  0.00    +0.000 A 
ATOM     31  S   UNL     1      53.699   4.106  18.562  0.00  0.00    +0.000 S 
ATOM     32  C   UNL     1      52.723   5.480  18.379  0.00  0.00    +0.000 A 
ATOM     33  C   UNL     1      51.453   5.211  17.881  0.00  0.00    +0.000 A 
ATOM     34  C   UNL     1      51.300   3.778  17.643  0.00  0.00    +0.000 A 
BRANCH  26  36
ATOM     35  C   UNL     1      48.085   3.392  17.784  0.00  0.00    +0.000 C 
ATOM     36  O   UNL     1      49.067   3.456  16.748  0.00  0.00    +0.000 OA
ENDBRANCH  26  36
ENDBRANCH  22  33
ENDBRANCH  21  24
ENDBRANCH   1  21
TORSDOF 9
ENDMDL
MODEL 4
REMARK VINA RESULT:    -6.190      3.142      8.967
REMARK INTER + INTRA:         -10.658
REMARK INTER:                  -9.069
REMARK INTRA:                  -1.589
REMARK UNBOUND:                -1.393
REMARK  Name = 
REMARK  11 active torsions:
REMARK  status: ('A' for Active; 'I' for Inactive)
REMARK    1  A    between atoms: C_1  and  O_2
REMARK    2  A    between atoms: O_2  and  C_3
REMARK    3  A    between atoms: C_10  and  C_11
REMARK    4  A    between atoms: N_13  and  C_14
REMARK    5  A    between atoms: C_14  and  C_15
REMARK    6  A    between atoms: C_18  and  N_19
REMARK    7  A    between atoms: N_19  and  C_20
REMARK    8  A    between atoms: C_20  and  C_21
REMARK    9  A    between atoms: N_24  and  C_25
REMARK   10  A    between atoms: C_27  and  C_28
REMARK   11  A    between atoms: C_28  and  O_30
REMARK                            x       y       z     vdW  Elec       q    Type
REMARK                         _______ _______ _______ _____ _____    ______ ____
ROOT
ATOM      1  C   UNL     1      49.236   8.069  15.536  0.00  0.00    +0.000 A 
ATOM      2  C   UNL     1      48.930   7.350  16.695  0.00  0.00    +0.000 A 
ATOM      3  C   UNL     1      49.908   6.577  17.333  0.00  0.00    +0.000 A 
ATOM      4  C   UNL     1      51.204   6.473  16.816  0.00  0.00    +0.000 A 
ATOM      5  C   UNL     1      51.507   7.235  15.676  0.00  0.00    +0.000 A 
ATOM      6  C   UNL     1      50.538   8.017  15.040  0.00  0.00    +0.000 A 
ENDROOT
BRANCH   4   7
ATOM      7  N   UNL     1      52.243   5.781  17.447  0.00  0.00    +0.000 N 
ATOM      8  H   UNL     1      53.124   6.281  17.349  0.00  0.00    +0.000 HD
BRANCH   7   9
ATOM      9  C   UNL     1      52.413   4.347  17.228  0.00  0.00    +0.000 C 
BRANCH   9  10
ATOM     10  C   UNL     1      52.014   3.560  18.500  0.00  0.00    +0.000 C 
ATOM     11  C   UNL     1      53.225   3.192  19.381  0.00  0.00    +0.000 C 
ATOM     12  C   UNL     1      54.152   2.194  18.687  0.00  0.00    +0.000 C 
ATOM     13  N   UNL     1      53.434   0.972  18.299  0.00  0.00    +0.000 NA
ATOM     14  C   UNL     1      54.336   0.068  17.580  0.00  0.00    +0.000 C 
ATOM     15  C   UNL     1      52.237   1.240  17.483  0.00  0.00    +0.000 C 
ATOM     16  C   UNL     1      51.290   2.244  18.156  0.00  0.00    +0.000 C 
BRANCH  16  17
ATOM     17  C   UNL     1      50.082   2.492  17.270  0.00  0.00    +0.000 C 
ATOM     18  O   UNL     1      49.147   3.217  17.570  0.00  0.00    +0.000 OA
BRANCH  17  19
ATOM     19  O   UNL     1      50.101   1.784  16.122  0.00  0.00    +0.000 OA
ATOM     20  H   UNL     1      50.208   2.324  15.313  0.00  0.00    +0.000 HD
ENDBRANCH  17  19
ENDBRANCH  16  17
ENDBRANCH   9  10
ENDBRANCH   7   9
ENDBRANCH   4   7
BRANCH   1  21
ATOM     21  C   UNL     1      48.193   8.928  14.871  0.00  0.00    +0.000 C 
BRANCH  21  24
ATOM     22  C   UNL     1      47.140   7.775  12.983  0.00  0.00    +0.000 C 
ATOM     23  O   UNL     1      48.072   8.097  12.247  0.00  0.00    +0.000 OA
ATOM     24  N   UNL     1      47.138   8.120  14.307  0.00  0.00    +0.000 N 
ATOM     25  H   UNL     1      46.331   7.921  14.885  0.00  0.00    +0.000 HD
BRANCH  22  33
ATOM     26  C   UNL     1      46.224   4.440  13.090  0.00  0.00    +0.000 A 
ATOM     27  N   UNL     1      45.628   3.234  12.965  0.00  0.00    +0.000 NA
ATOM     28  C   UNL     1      44.469   3.165  12.308  0.00  0.00    +0.000 A 
ATOM     29  N   UNL     1      43.810   4.172  11.746  0.00  0.00    +0.000 NA
ATOM     30  C   UNL     1      44.439   5.352  11.882  0.00  0.00    +0.000 A 
ATOM     31  S   UNL     1      43.730   6.746  11.224  0.00  0.00    +0.000 S 
ATOM     32  C   UNL     1      45.010   7.713  11.774  0.00  0.00    +0.000 A 
ATOM     33  C   UNL     1      45.994   7.011  12.463  0.00  0.00    +0.000 A 
ATOM     34  C   UNL     1      45.649   5.593  12.528  0.00  0.00    +0.000 A 
BRANCH  26  36
ATOM     35  C   UNL     1      47.240   4.467  15.192  0.00  0.00    +0.000 C 
ATOM     36  O   UNL     1      47.421   4.502  13.776  0.00  0.00    +0.000 OA
ENDBRANCH  26  36
ENDBRANCH  22  33
ENDBRANCH  21  24
ENDBRANCH   1  21
TORSDOF 9
ENDMDL
MODEL 5
REMARK VINA RESULT:    -5.963      2.932      9.254
REMARK INTER + INTRA:         -10.319
REMARK INTER:                  -8.898
REMARK INTRA:                  -1.421
REMARK UNBOUND:                -1.393
REMARK  Name = 
REMARK  11 active torsions:
REMARK  status: ('A' for Active; 'I' for Inactive)
REMARK    1  A    between atoms: C_1  and  O_2
REMARK    2  A    between atoms: O_2  and  C_3
REMARK    3  A    between atoms: C_10  and  C_11
REMARK    4  A    between atoms: N_13  and  C_14
REMARK    5  A    between atoms: C_14  and  C_15
REMARK    6  A    between atoms: C_18  and  N_19
REMARK    7  A    between atoms: N_19  and  C_20
REMARK    8  A    between atoms: C_20  and  C_21
REMARK    9  A    between atoms: N_24  and  C_25
REMARK   10  A    between atoms: C_27  and  C_28
REMARK   11  A    between atoms: C_28  and  O_30
REMARK                            x       y       z     vdW  Elec       q    Type
REMARK                         _______ _______ _______ _____ _____    ______ ____
ROOT
ATOM      1  C   UNL     1      48.493   7.563  13.557  0.00  0.00    +0.000 A 
ATOM      2  C   UNL     1      49.813   7.947  13.814  0.00  0.00    +0.000 A 
ATOM      3  C   UNL     1      50.469   7.507  14.970  0.00  0.00    +0.000 A 
ATOM      4  C   UNL     1      49.822   6.702  15.913  0.00  0.00    +0.000 A 
ATOM      5  C   UNL     1      48.513   6.289  15.618  0.00  0.00    +0.000 A 
ATOM      6  C   UNL     1      47.854   6.717  14.462  0.00  0.00    +0.000 A 
ENDROOT
BRANCH   4   7
ATOM      7  N   UNL     1      50.447   6.168  17.045  0.00  0.00    +0.000 N 
ATOM      8  H   UNL     1      51.055   6.857  17.482  0.00  0.00    +0.000 HD
BRANCH   7   9
ATOM      9  C   UNL     1      51.080   4.854  16.987  0.00  0.00    +0.000 C 
BRANCH   9  10
ATOM     10  C   UNL     1      50.727   4.032  18.251  0.00  0.00    +0.000 C 
ATOM     11  C   UNL     1      51.899   3.934  19.248  0.00  0.00    +0.000 C 
ATOM     12  C   UNL     1      53.065   3.125  18.678  0.00  0.00    +0.000 C 
ATOM     13  N   UNL     1      52.640   1.776  18.280  0.00  0.00    +0.000 NA
ATOM     14  C   UNL     1      53.766   1.054  17.679  0.00  0.00    +0.000 C 
ATOM     15  C   UNL     1      51.496   1.781  17.352  0.00  0.00    +0.000 C 
ATOM     16  C   UNL     1      50.312   2.591  17.899  0.00  0.00    +0.000 C 
BRANCH  16  17
ATOM     17  C   UNL     1      49.166   2.572  16.903  0.00  0.00    +0.000 C 
ATOM     18  O   UNL     1      48.092   3.123  17.081  0.00  0.00    +0.000 OA
BRANCH  17  19
ATOM     19  O   UNL     1      49.419   1.832  15.804  0.00  0.00    +0.000 OA
ATOM     20  H   UNL     1      49.965   2.281  15.128  0.00  0.00    +0.000 HD
ENDBRANCH  17  19
ENDBRANCH  16  17
ENDBRANCH   9  10
ENDBRANCH   7   9
ENDBRANCH   4   7
BRANCH   1  21
ATOM     21  C   UNL     1      47.799   8.008  12.296  0.00  0.00    +0.000 C 
BRANCH  21  24
ATOM     22  C   UNL     1      46.034   6.711  11.200  0.00  0.00    +0.000 C 
ATOM     23  O   UNL     1      45.197   7.556  11.513  0.00  0.00    +0.000 OA
ATOM     24  N   UNL     1      47.353   6.874  11.522  0.00  0.00    +0.000 N 
ATOM     25  H   UNL     1      48.021   6.137  11.331  0.00  0.00    +0.000 HD
BRANCH  22  33
ATOM     26  C   UNL     1      44.199   3.895  12.027  0.00  0.00    +0.000 A 
ATOM     27  N   UNL     1      43.552   2.710  12.064  0.00  0.00    +0.000 NA
ATOM     28  C   UNL     1      43.545   1.957  10.963  0.00  0.00    +0.000 A 
ATOM     29  N   UNL     1      44.117   2.243   9.798  0.00  0.00    +0.000 NA
ATOM     30  C   UNL     1      44.759   3.423   9.804  0.00  0.00    +0.000 A 
ATOM     31  S   UNL     1      45.543   3.945   8.392  0.00  0.00    +0.000 S 
ATOM     32  C   UNL     1      46.050   5.376   9.146  0.00  0.00    +0.000 A 
ATOM     33  C   UNL     1      45.643   5.493  10.471  0.00  0.00    +0.000 A 
ATOM     34  C   UNL     1      44.867   4.320  10.865  0.00  0.00    +0.000 A 
BRANCH  26  36
ATOM     35  C   UNL     1      43.003   5.445  13.300  0.00  0.00    +0.000 C 
ATOM     36  O   UNL     1      44.196   4.670  13.170  0.00  0.00    +0.000 OA
ENDBRANCH  26  36
ENDBRANCH  22  33
ENDBRANCH  21  24
ENDBRANCH   1  21
TORSDOF 9
ENDMDL
MODEL 6
REMARK VINA RESULT:    -5.945      3.113      9.833
REMARK INTER + INTRA:         -10.292
REMARK INTER:                  -8.859
REMARK INTRA:                  -1.432
REMARK UNBOUND:                -1.393
REMARK  Name = 
REMARK  11 active torsions:
REMARK  status: ('A' for Active; 'I' for Inactive)
REMARK    1  A    between atoms: C_1  and  O_2
REMARK    2  A    between atoms: O_2  and  C_3
REMARK    3  A    between atoms: C_10  and  C_11
REMARK    4  A    between atoms: N_13  and  C_14
REMARK    5  A    between atoms: C_14  and  C_15
REMARK    6  A    between atoms: C_18  and  N_19
REMARK    7  A    between atoms: N_19  and  C_20
REMARK    8  A    between atoms: C_20  and  C_21
REMARK    9  A    between atoms: N_24  and  C_25
REMARK   10  A    between atoms: C_27  and  C_28
REMARK   11  A    between atoms: C_28  and  O_30
REMARK                            x       y       z     vdW  Elec       q    Type
REMARK                         _______ _______ _______ _____ _____    ______ ____
ROOT
ATOM      1  C   UNL     1      48.576   3.427  17.414  0.00  0.00    +0.000 A 
ATOM      2  C   UNL     1      49.542   2.507  16.994  0.00  0.00    +0.000 A 
ATOM      3  C   UNL     1      50.864   2.606  17.445  0.00  0.00    +0.000 A 
ATOM      4  C   UNL     1      51.266   3.640  18.297  0.00  0.00    +0.000 A 
ATOM      5  C   UNL     1      50.277   4.530  18.744  0.00  0.00    +0.000 A 
ATOM      6  C   UNL     1      48.952   4.431  18.306  0.00  0.00    +0.000 A 
ENDROOT
BRANCH   4   7
ATOM      7  N   UNL     1      52.550   3.748  18.841  0.00  0.00    +0.000 N 
ATOM      8  H   UNL     1      52.688   3.068  19.585  0.00  0.00    +0.000 HD
BRANCH   7   9
ATOM      9  C   UNL     1      53.090   5.056  19.202  0.00  0.00    +0.000 C 
BRANCH   9  10
ATOM     10  C   UNL     1      54.092   5.539  18.126  0.00  0.00    +0.000 C 
ATOM     11  C   UNL     1      55.551   5.540  18.623  0.00  0.00    +0.000 C 
ATOM     12  C   UNL     1      55.775   6.573  19.728  0.00  0.00    +0.000 C 
ATOM     13  N   UNL     1      55.403   7.924  19.286  0.00  0.00    +0.000 NA
ATOM     14  C   UNL     1      55.568   8.875  20.390  0.00  0.00    +0.000 C 
ATOM     15  C   UNL     1      54.029   8.001  18.760  0.00  0.00    +0.000 C 
ATOM     16  C   UNL     1      53.777   6.970  17.650  0.00  0.00    +0.000 C 
BRANCH  16  17
ATOM     17  C   UNL     1      52.347   7.086  17.151  0.00  0.00    +0.000 C 
ATOM     18  O   UNL     1      51.882   6.422  16.238  0.00  0.00    +0.000 OA
BRANCH  17  19
ATOM     19  O   UNL     1      51.633   8.043  17.777  0.00  0.00    +0.000 OA
ATOM     20  H   UNL     1      51.875   8.958  17.530  0.00  0.00    +0.000 HD
ENDBRANCH  17  19
ENDBRANCH  16  17
ENDBRANCH   9  10
ENDBRANCH   7   9
ENDBRANCH   4   7
BRANCH   1  21
ATOM     21  C   UNL     1      47.147   3.299  16.957  0.00  0.00    +0.000 C 
BRANCH  21  24
ATOM     22  C   UNL     1      47.031   4.218  14.690  0.00  0.00    +0.000 C 
ATOM     23  O   UNL     1      47.485   3.172  14.227  0.00  0.00    +0.000 OA
ATOM     24  N   UNL     1      46.802   4.351  16.032  0.00  0.00    +0.000 N 
ATOM     25  H   UNL     1      46.505   5.240  16.413  0.00  0.00    +0.000 HD
BRANCH  22  33
ATOM     26  C   UNL     1      44.315   5.079  12.726  0.00  0.00    +0.000 A 
ATOM     27  N   UNL     1      43.427   5.658  11.890  0.00  0.00    +0.000 NA
ATOM     28  C   UNL     1      43.749   6.828  11.335  0.00  0.00    +0.000 A 
ATOM     29  N   UNL     1      44.873   7.513  11.515  0.00  0.00    +0.000 NA
ATOM     30  C   UNL     1      45.734   6.901  12.345  0.00  0.00    +0.000 A 
ATOM     31  S   UNL     1      47.221   7.643  12.688  0.00  0.00    +0.000 S 
ATOM     32  C   UNL     1      47.675   6.368  13.709  0.00  0.00    +0.000 A 
ATOM     33  C   UNL     1      46.722   5.360  13.816  0.00  0.00    +0.000 A 
ATOM     34  C   UNL     1      45.556   5.682  12.996  0.00  0.00    +0.000 A 
BRANCH  26  36
ATOM     35  C   UNL     1      43.692   2.864  12.325  0.00  0.00    +0.000 C 
ATOM     36  O   UNL     1      43.971   3.870  13.300  0.00  0.00    +0.000 OA
ENDBRANCH  26  36
ENDBRANCH  22  33
ENDBRANCH  21  24
ENDBRANCH   1  21
TORSDOF 9
ENDMDL
MODEL 7
REMARK VINA RESULT:    -5.664      6.632      9.080
REMARK INTER + INTRA:          -9.871
REMARK INTER:                  -8.169
REMARK INTRA:                  -1.702
REMARK UNBOUND:                -1.393
REMARK  Name = 
REMARK  11 active torsions:
REMARK  status: ('A' for Active; 'I' for Inactive)
REMARK    1  A    between atoms: C_1  and  O_2
REMARK    2  A    between atoms: O_2  and  C_3
REMARK    3  A    between atoms: C_10  and  C_11
REMARK    4  A    between atoms: N_13  and  C_14
REMARK    5  A    between atoms: C_14  and  C_15
REMARK    6  A    between atoms: C_18  and  N_19
REMARK    7  A    between atoms: N_19  and  C_20
REMARK    8  A    between atoms: C_20  and  C_21
REMARK    9  A    between atoms: N_24  and  C_25
REMARK   10  A    between atoms: C_27  and  C_28
REMARK   11  A    between atoms: C_28  and  O_30
REMARK                            x       y       z     vdW  Elec       q    Type
REMARK                         _______ _______ _______ _____ _____    ______ ____
ROOT
ATOM      1  C   UNL     1      50.338   9.564  11.341  0.00  0.00    +0.000 A 
ATOM      2  C   UNL     1      50.947  10.554  10.564  0.00  0.00    +0.000 A 
ATOM      3  C   UNL     1      52.192  10.324   9.966  0.00  0.00    +0.000 A 
ATOM      4  C   UNL     1      52.877   9.118  10.153  0.00  0.00    +0.000 A 
ATOM      5  C   UNL     1      52.234   8.119  10.899  0.00  0.00    +0.000 A 
ATOM      6  C   UNL     1      50.986   8.338  11.492  0.00  0.00    +0.000 A 
ENDROOT
BRANCH   4   7
ATOM      7  N   UNL     1      54.085   8.801   9.521  0.00  0.00    +0.000 N 
ATOM      8  H   UNL     1      54.482   9.619   9.065  0.00  0.00    +0.000 HD
BRANCH   7   9
ATOM      9  C   UNL     1      54.185   7.614   8.678  0.00  0.00    +0.000 C 
BRANCH   9  10
ATOM     10  C   UNL     1      53.095   7.643   7.579  0.00  0.00    +0.000 C 
ATOM     11  C   UNL     1      52.281   6.336   7.507  0.00  0.00    +0.000 C 
ATOM     12  C   UNL     1      53.138   5.156   7.050  0.00  0.00    +0.000 C 
ATOM     13  N   UNL     1      53.766   5.418   5.748  0.00  0.00    +0.000 NA
ATOM     14  C   UNL     1      54.630   4.295   5.373  0.00  0.00    +0.000 C 
ATOM     15  C   UNL     1      54.536   6.673   5.721  0.00  0.00    +0.000 C 
ATOM     16  C   UNL     1      53.699   7.876   6.180  0.00  0.00    +0.000 C 
BRANCH  16  17
ATOM     17  C   UNL     1      54.541   9.139   6.143  0.00  0.00    +0.000 C 
ATOM     18  O   UNL     1      55.707   9.177   5.786  0.00  0.00    +0.000 OA
BRANCH  17  19
ATOM     19  O   UNL     1      53.894  10.231   6.600  0.00  0.00    +0.000 OA
ATOM     20  H   UNL     1      53.047  10.421   6.149  0.00  0.00    +0.000 HD
ENDBRANCH  17  19
ENDBRANCH  16  17
ENDBRANCH   9  10
ENDBRANCH   7   9
ENDBRANCH   4   7
BRANCH   1  21
ATOM     21  C   UNL     1      48.983   9.799  11.955  0.00  0.00    +0.000 C 
BRANCH  21  24
ATOM     22  C   UNL     1      46.834   8.639  12.147  0.00  0.00    +0.000 C 
ATOM     23  O   UNL     1      46.256   9.709  12.330  0.00  0.00    +0.000 OA
ATOM     24  N   UNL     1      48.183   8.598  11.920  0.00  0.00    +0.000 N 
ATOM     25  H   UNL     1      48.662   7.710  11.850  0.00  0.00    +0.000 HD
BRANCH  22  33
ATOM     26  C   UNL     1      47.509   5.485  13.402  0.00  0.00    +0.000 A 
ATOM     27  N   UNL     1      47.498   4.186  13.771  0.00  0.00    +0.000 NA
ATOM     28  C   UNL     1      46.424   3.451  13.477  0.00  0.00    +0.000 A 
ATOM     29  N   UNL     1      45.329   3.859  12.845  0.00  0.00    +0.000 NA
ATOM     30  C   UNL     1      45.381   5.153  12.485  0.00  0.00    +0.000 A 
ATOM     31  S   UNL     1      44.060   5.837  11.669  0.00  0.00    +0.000 S 
ATOM     32  C   UNL     1      44.832   7.344  11.586  0.00  0.00    +0.000 A 
ATOM     33  C   UNL     1      46.095   7.366  12.168  0.00  0.00    +0.000 A 
ATOM     34  C   UNL     1      46.424   6.049  12.708  0.00  0.00    +0.000 A 
BRANCH  26  36
ATOM     35  C   UNL     1      48.638   6.644  15.085  0.00  0.00    +0.000 C 
ATOM     36  O   UNL     1      48.623   6.239  13.716  0.00  0.00    +0.000 OA
ENDBRANCH  26  36
ENDBRANCH  22  33
ENDBRANCH  21  24
ENDBRANCH   1  21
TORSDOF 9
ENDMDL
MODEL 8
REMARK VINA RESULT:    -5.633      5.681      7.300
REMARK INTER + INTRA:          -9.825
REMARK INTER:                  -8.530
REMARK INTRA:                  -1.295
REMARK UNBOUND:                -1.393
REMARK  Name = 
REMARK  11 active torsions:
REMARK  status: ('A' for Active; 'I' for Inactive)
REMARK    1  A    between atoms: C_1  and  O_2
REMARK    2  A    between atoms: O_2  and  C_3
REMARK    3  A    between atoms: C_10  and  C_11
REMARK    4  A    between atoms: N_13  and  C_14
REMARK    5  A    between atoms: C_14  and  C_15
REMARK    6  A    between atoms: C_18  and  N_19
REMARK    7  A    between atoms: N_19  and  C_20
REMARK    8  A    between atoms: C_20  and  C_21
REMARK    9  A    between atoms: N_24  and  C_25
REMARK   10  A    between atoms: C_27  and  C_28
REMARK   11  A    between atoms: C_28  and  O_30
REMARK                            x       y       z     vdW  Elec       q    Type
REMARK                         _______ _______ _______ _____ _____    ______ ____
ROOT
ATOM      1  C   UNL     1      50.617   8.830  12.852  0.00  0.00    +0.000 A 
ATOM      2  C   UNL     1      49.853   9.008  14.009  0.00  0.00    +0.000 A 
ATOM      3  C   UNL     1      48.455   8.949  13.954  0.00  0.00    +0.000 A 
ATOM      4  C   UNL     1      47.782   8.745  12.745  0.00  0.00    +0.000 A 
ATOM      5  C   UNL     1      48.564   8.525  11.600  0.00  0.00    +0.000 A 
ATOM      6  C   UNL     1      49.961   8.572  11.649  0.00  0.00    +0.000 A 
ENDROOT
BRANCH   4   7
ATOM      7  N   UNL     1      46.394   8.600  12.638  0.00  0.00    +0.000 N 
ATOM      8  H   UNL     1      45.912   9.336  13.149  0.00  0.00    +0.000 HD
BRANCH   7   9
ATOM      9  C   UNL     1      45.770   7.298  12.856  0.00  0.00    +0.000 C 
BRANCH   9  10
ATOM     10  C   UNL     1      46.550   6.197  12.098  0.00  0.00    +0.000 C 
ATOM     11  C   UNL     1      45.949   5.881  10.714  0.00  0.00    +0.000 C 
ATOM     12  C   UNL     1      44.563   5.247  10.826  0.00  0.00    +0.000 C 
ATOM     13  N   UNL     1      44.595   4.024  11.640  0.00  0.00    +0.000 NA
ATOM     14  C   UNL     1      43.240   3.481  11.780  0.00  0.00    +0.000 C 
ATOM     15  C   UNL     1      45.191   4.233  12.971  0.00  0.00    +0.000 C 
ATOM     16  C   UNL     1      46.584   4.873  12.887  0.00  0.00    +0.000 C 
BRANCH  16  17
ATOM     17  C   UNL     1      47.148   5.075  14.283  0.00  0.00    +0.000 C 
ATOM     18  O   UNL     1      48.206   5.632  14.522  0.00  0.00    +0.000 OA
BRANCH  17  19
ATOM     19  O   UNL     1      46.391   4.524  15.254  0.00  0.00    +0.000 OA
ATOM     20  H   UNL     1      45.455   4.808  15.251  0.00  0.00    +0.000 HD
ENDBRANCH  17  19
ENDBRANCH  16  17
ENDBRANCH   9  10
ENDBRANCH   7   9
ENDBRANCH   4   7
BRANCH   1  21
ATOM     21  C   UNL     1      52.122   8.858  12.917  0.00  0.00    +0.000 C 
BRANCH  21  24
ATOM     22  C   UNL     1      53.601   7.967  11.180  0.00  0.00    +0.000 C 
ATOM     23  O   UNL     1      54.000   9.101  10.917  0.00  0.00    +0.000 OA
ATOM     24  N   UNL     1      52.693   7.756  12.181  0.00  0.00    +0.000 N 
ATOM     25  H   UNL     1      52.312   6.832  12.338  0.00  0.00    +0.000 HD
BRANCH  22  33
ATOM     26  C   UNL     1      53.133   6.830   7.945  0.00  0.00    +0.000 A 
ATOM     27  N   UNL     1      53.128   6.155   6.776  0.00  0.00    +0.000 NA
ATOM     28  C   UNL     1      53.842   5.031   6.689  0.00  0.00    +0.000 A 
ATOM     29  N   UNL     1      54.580   4.481   7.647  0.00  0.00    +0.000 NA
ATOM     30  C   UNL     1      54.552   5.175   8.796  0.00  0.00    +0.000 A 
ATOM     31  S   UNL     1      55.446   4.612  10.124  0.00  0.00    +0.000 S 
ATOM     32  C   UNL     1      54.936   5.916  11.080  0.00  0.00    +0.000 A 
ATOM     33  C   UNL     1      54.086   6.801  10.425  0.00  0.00    +0.000 A 
ATOM     34  C   UNL     1      53.856   6.355   9.053  0.00  0.00    +0.000 A 
BRANCH  26  36
ATOM     35  C   UNL     1      53.067   9.107   7.427  0.00  0.00    +0.000 C 
ATOM     36  O   UNL     1      52.395   7.996   8.023  0.00  0.00    +0.000 OA
ENDBRANCH  26  36
ENDBRANCH  22  33
ENDBRANCH  21  24
ENDBRANCH   1  21
TORSDOF 9
ENDMDL
MODEL 9
REMARK VINA RESULT:    -5.496      3.261      9.711
REMARK INTER + INTRA:          -9.620
REMARK INTER:                  -8.271
REMARK INTRA:                  -1.350
REMARK UNBOUND:                -1.393
REMARK  Name = 
REMARK  11 active torsions:
REMARK  status: ('A' for Active; 'I' for Inactive)
REMARK    1  A    between atoms: C_1  and  O_2
REMARK    2  A    between atoms: O_2  and  C_3
REMARK    3  A    between atoms: C_10  and  C_11
REMARK    4  A    between atoms: N_13  and  C_14
REMARK    5  A    between atoms: C_14  and  C_15
REMARK    6  A    between atoms: C_18  and  N_19
REMARK    7  A    between atoms: N_19  and  C_20
REMARK    8  A    between atoms: C_20  and  C_21
REMARK    9  A    between atoms: N_24  and  C_25
REMARK   10  A    between atoms: C_27  and  C_28
REMARK   11  A    between atoms: C_28  and  O_30
REMARK                            x       y       z     vdW  Elec       q    Type
REMARK                         _______ _______ _______ _____ _____    ______ ____
ROOT
ATOM      1  C   UNL     1      51.782   5.822  16.910  0.00  0.00    +0.000 A 
ATOM      2  C   UNL     1      50.810   4.911  17.336  0.00  0.00    +0.000 A 
ATOM      3  C   UNL     1      51.182   3.708  17.948  0.00  0.00    +0.000 A 
ATOM      4  C   UNL     1      52.527   3.365  18.122  0.00  0.00    +0.000 A 
ATOM      5  C   UNL     1      53.489   4.308  17.729  0.00  0.00    +0.000 A 
ATOM      6  C   UNL     1      53.125   5.516  17.125  0.00  0.00    +0.000 A 
ENDROOT
BRANCH   4   7
ATOM      7  N   UNL     1      52.959   2.216  18.793  0.00  0.00    +0.000 N 
ATOM      8  H   UNL     1      53.639   2.451  19.513  0.00  0.00    +0.000 HD
BRANCH   7   9
ATOM      9  C   UNL     1      53.361   1.031  18.041  0.00  0.00    +0.000 C 
BRANCH   9  10
ATOM     10  C   UNL     1      54.901   0.988  17.890  0.00  0.00    +0.000 C 
ATOM     11  C   UNL     1      55.355   0.805  16.428  0.00  0.00    +0.000 C 
ATOM     12  C   UNL     1      54.960  -0.565  15.877  0.00  0.00    +0.000 C 
ATOM     13  N   UNL     1      55.501  -1.654  16.702  0.00  0.00    +0.000 NA
ATOM     14  C   UNL     1      55.048  -2.948  16.182  0.00  0.00    +0.000 C 
ATOM     15  C   UNL     1      55.142  -1.533  18.125  0.00  0.00    +0.000 C 
ATOM     16  C   UNL     1      55.525  -0.163  18.704  0.00  0.00    +0.000 C 
BRANCH  16  17
ATOM     17  C   UNL     1      55.125  -0.087  20.167  0.00  0.00    +0.000 C 
ATOM     18  O   UNL     1      55.165   0.931  20.838  0.00  0.00    +0.000 OA
BRANCH  17  19
ATOM     19  O   UNL     1      54.766  -1.277  20.690  0.00  0.00    +0.000 OA
ATOM     20  H   UNL     1      55.492  -1.929  20.756  0.00  0.00    +0.000 HD
ENDBRANCH  17  19
ENDBRANCH  16  17
ENDBRANCH   9  10
ENDBRANCH   7   9
ENDBRANCH   4   7
BRANCH   1  21
ATOM     21  C   UNL     1      51.381   7.131  16.284  0.00  0.00    +0.000 C 
BRANCH  21  24
ATOM     22  C   UNL     1      49.096   7.182  15.402  0.00  0.00    +0.000 C 
ATOM     23  O   UNL     1      48.681   7.647  16.462  0.00  0.00    +0.000 OA
ATOM     24  N   UNL     1      50.428   6.927  15.219  0.00  0.00    +0.000 N 
ATOM     25  H   UNL     1      50.750   6.470  14.375  0.00  0.00    +0.000 HD
BRANCH  22  33
ATOM     26  C   UNL     1      47.246   4.399  14.500  0.00  0.00    +0.000 A 
ATOM     27  N   UNL     1      46.441   3.489  13.912  0.00  0.00    +0.000 NA
ATOM     28  C   UNL     1      45.792   3.841  12.800  0.00  0.00    +0.000 A 
ATOM     29  N   UNL     1      45.846   5.017  12.186  0.00  0.00    +0.000 NA
ATOM     30  C   UNL     1      46.664   5.891  12.794  0.00  0.00    +0.000 A 
ATOM     31  S   UNL     1      46.846   7.447  12.140  0.00  0.00    +0.000 S 
ATOM     32  C   UNL     1      47.927   7.888  13.369  0.00  0.00    +0.000 A 
ATOM     33  C   UNL     1      48.174   6.880  14.296  0.00  0.00    +0.000 A 
ATOM     34  C   UNL     1      47.414   5.682  13.949  0.00  0.00    +0.000 A 
BRANCH  26  36
ATOM     35  C   UNL     1      47.122   4.238  16.827  0.00  0.00    +0.000 C 
ATOM     36  O   UNL     1      47.909   4.027  15.654  0.00  0.00    +0.000 OA
ENDBRANCH  26  36
ENDBRANCH  22  33
ENDBRANCH  21  24
ENDBRANCH   1  21
TORSDOF 9
ENDMDL
