MODEL 1
REMARK VINA RESULT:    -7.632      0.000      0.000
REMARK INTER + INTRA:         -10.480
REMARK INTER:                  -9.863
REMARK INTRA:                  -0.616
REMARK UNBOUND:                -0.616
REMARK  Name = 
REMARK  6 active torsions:
REMARK  status: ('A' for Active; 'I' for Inactive)
REMARK    1  A    between atoms: C_1  and  C_2
REMARK    2  A    between atoms: C_2  and  C_3
REMARK    3  A    between atoms: C_2  and  C_14
REMARK    4  A    between atoms: C_3  and  O_4
REMARK    5  A    between atoms: O_4  and  C_5
REMARK    6  A    between atoms: C_8  and  C_9
REMARK                            x       y       z     vdW  Elec       q    Type
REMARK                         _______ _______ _______ _____ _____    ______ ____
ROOT
ATOM      1  C   UNL     1      44.513   3.197   9.278  0.00  0.00    +0.000 A 
ATOM      2  C   UNL     1      45.021   4.205   8.463  0.00  0.00    +0.000 A 
ATOM      3  N   UNL     1      46.006   3.992   7.546  0.00  0.00    +0.000 NA
ATOM      4  C   UNL     1      46.461   2.707   7.494  0.00  0.00    +0.000 A 
ATOM      5  C   UNL     1      45.955   1.704   8.304  0.00  0.00    +0.000 A 
ATOM      6  N   UNL     1      44.970   1.926   9.210  0.00  0.00    +0.000 NA
ENDROOT
BRANCH   4   7
ATOM      7  C   UNL     1      47.546   2.375   6.533  0.00  0.00    +0.000 C 
ATOM      8  N   UNL     1      47.552   3.079   5.362  0.00  0.00    +0.000 N 
ATOM      9  O   UNL     1      48.390   1.520   6.772  0.00  0.00    +0.000 OA
ATOM     10  H   UNL     1      46.846   3.787   5.183  0.00  0.00    +0.000 HD
ATOM     11  H   UNL     1      48.272   2.893   4.680  0.00  0.00    +0.000 HD
ENDBRANCH   4   7
BRANCH   1  12
ATOM     12  O   UNL     1      43.529   3.518  10.185  0.00  0.00    +0.000 OA
BRANCH  12  13
ATOM     13  C   UNL     1      43.778   2.961  11.479  0.00  0.00    +0.000 C 
BRANCH  13  15
ATOM     14  C   UNL     1      42.905   4.900  12.897  0.00  0.00    +0.000 C 
ATOM     15  C   UNL     1      44.074   4.082  12.438  0.00  0.00    +0.000 C 
BRANCH  15  16
ATOM     16  C   UNL     1      45.472   4.666  12.432  0.00  0.00    +0.000 C 
ATOM     17  C   UNL     1      46.088   4.779  13.840  0.00  0.00    +0.000 C 
ATOM     18  C   UNL     1      47.448   5.477  13.823  0.00  0.00    +0.000 C 
ATOM     19  C   UNL     1      47.370   6.830  13.126  0.00  0.00    +0.000 C 
ATOM     20  C   UNL     1      46.849   6.678  11.703  0.00  0.00    +0.000 C 
ATOM     21  C   UNL     1      45.479   6.009  11.687  0.00  0.00    +0.000 C 
ENDBRANCH  15  16
ENDBRANCH  13  15
ENDBRANCH  12  13
ENDBRANCH   1  12
TORSDOF 5
ENDMDL
MODEL 2
REMARK VINA RESULT:    -7.538      0.602      1.268
REMARK INTER + INTRA:         -10.358
REMARK INTER:                  -9.768
REMARK INTRA:                  -0.590
REMARK UNBOUND:                -0.616
REMARK  Name = 
REMARK  6 active torsions:
REMARK  status: ('A' for Active; 'I' for Inactive)
REMARK    1  A    between atoms: C_1  and  C_2
REMARK    2  A    between atoms: C_2  and  C_3
REMARK    3  A    between atoms: C_2  and  C_14
REMARK    4  A    between atoms: C_3  and  O_4
REMARK    5  A    between atoms: O_4  and  C_5
REMARK    6  A    between atoms: C_8  and  C_9
REMARK                            x       y       z     vdW  Elec       q    Type
REMARK                         _______ _______ _______ _____ _____    ______ ____
ROOT
ATOM      1  C   UNL     1      44.446   3.127   9.429  0.00  0.00    +0.000 A 
ATOM      2  C   UNL     1      44.967   4.179   8.679  0.00  0.00    +0.000 A 
ATOM      3  N   UNL     1      45.946   4.012   7.747  0.00  0.00    +0.000 NA
ATOM      4  C   UNL     1      46.381   2.725   7.609  0.00  0.00    +0.000 A 
ATOM      5  C   UNL     1      45.861   1.679   8.354  0.00  0.00    +0.000 A 
ATOM      6  N   UNL     1      44.882   1.857   9.277  0.00  0.00    +0.000 NA
ENDROOT
BRANCH   4   7
ATOM      7  C   UNL     1      47.459   2.441   6.625  0.00  0.00    +0.000 C 
ATOM      8  N   UNL     1      47.471   3.218   5.502  0.00  0.00    +0.000 N 
ATOM      9  O   UNL     1      48.290   1.560   6.805  0.00  0.00    +0.000 OA
ATOM     10  H   UNL     1      46.774   3.947   5.372  0.00  0.00    +0.000 HD
ATOM     11  H   UNL     1      48.186   3.066   4.806  0.00  0.00    +0.000 HD
ENDBRANCH   4   7
BRANCH   1  12
ATOM     12  O   UNL     1      43.468   3.404  10.359  0.00  0.00    +0.000 OA
BRANCH  12  13
ATOM     13  C   UNL     1      43.985   3.453  11.692  0.00  0.00    +0.000 C 
BRANCH  13  15
ATOM     14  C   UNL     1      42.405   5.457  11.838  0.00  0.00    +0.000 C 
ATOM     15  C   UNL     1      43.681   4.805  12.277  0.00  0.00    +0.000 C 
BRANCH  15  16
ATOM     16  C   UNL     1      44.846   5.640  12.768  0.00  0.00    +0.000 C 
ATOM     17  C   UNL     1      45.311   6.694  11.743  0.00  0.00    +0.000 C 
ATOM     18  C   UNL     1      46.559   7.444  12.210  0.00  0.00    +0.000 C 
ATOM     19  C   UNL     1      47.679   6.482  12.584  0.00  0.00    +0.000 C 
ATOM     20  C   UNL     1      47.222   5.514  13.668  0.00  0.00    +0.000 C 
ATOM     21  C   UNL     1      45.994   4.728  13.222  0.00  0.00    +0.000 C 
ENDBRANCH  15  16
ENDBRANCH  13  15
ENDBRANCH  12  13
ENDBRANCH   1  12
TORSDOF 5
ENDMDL
MODEL 3
REMARK VINA RESULT:    -6.711      3.089      6.354
REMARK INTER + INTRA:          -9.289
REMARK INTER:                  -8.996
REMARK INTRA:                  -0.293
REMARK UNBOUND:                -0.616
REMARK  Name = 
REMARK  6 active torsions:
REMARK  status: ('A' for Active; 'I' for Inactive)
REMARK    1  A    between atoms: C_1  and  C_2
REMARK    2  A    between atoms: C_2  and  C_3
REMARK    3  A    between atoms: C_2  and  C_14
REMARK    4  A    between atoms: C_3  and  O_4
REMARK    5  A    between atoms: O_4  and  C_5
REMARK    6  A    between atoms: C_8  and  C_9
REMARK                            x       y       z     vdW  Elec       q    Type
REMARK                         _______ _______ _______ _____ _____    ______ ____
ROOT
ATOM      1  C   UNL     1      45.058   5.051  11.651  0.00  0.00    +0.000 A 
ATOM      2  C   UNL     1      45.038   4.222  12.770  0.00  0.00    +0.000 A 
ATOM      3  N   UNL     1      45.897   4.369  13.817  0.00  0.00    +0.000 NA
ATOM      4  C   UNL     1      46.787   5.394  13.679  0.00  0.00    +0.000 A 
ATOM      5  C   UNL     1      46.805   6.220  12.567  0.00  0.00    +0.000 A 
ATOM      6  N   UNL     1      45.942   6.068  11.531  0.00  0.00    +0.000 NA
ENDROOT
BRANCH   4   7
ATOM      7  C   UNL     1      47.776   5.629  14.765  0.00  0.00    +0.000 C 
ATOM      8  N   UNL     1      47.409   5.218  16.015  0.00  0.00    +0.000 N 
ATOM      9  O   UNL     1      48.859   6.159  14.555  0.00  0.00    +0.000 OA
ATOM     10  H   UNL     1      46.507   4.776  16.168  0.00  0.00    +0.000 HD
ATOM     11  H   UNL     1      48.049   5.351  16.783  0.00  0.00    +0.000 HD
ENDBRANCH   4   7
BRANCH   1  12
ATOM     12  O   UNL     1      44.158   4.810  10.638  0.00  0.00    +0.000 OA
BRANCH  12  13
ATOM     13  C   UNL     1      44.801   4.596   9.378  0.00  0.00    +0.000 C 
BRANCH  13  15
ATOM     14  C   UNL     1      44.096   2.227  10.029  0.00  0.00    +0.000 C 
ATOM     15  C   UNL     1      44.601   3.161   8.972  0.00  0.00    +0.000 C 
BRANCH  15  16
ATOM     16  C   UNL     1      45.410   2.639   7.802  0.00  0.00    +0.000 C 
ATOM     17  C   UNL     1      46.261   1.404   8.157  0.00  0.00    +0.000 C 
ATOM     18  C   UNL     1      47.157   0.965   6.997  0.00  0.00    +0.000 C 
ATOM     19  C   UNL     1      48.012   2.119   6.489  0.00  0.00    +0.000 C 
ATOM     20  C   UNL     1      47.141   3.290   6.055  0.00  0.00    +0.000 C 
ATOM     21  C   UNL     1      46.255   3.770   7.198  0.00  0.00    +0.000 C 
ENDBRANCH  15  16
ENDBRANCH  13  15
ENDBRANCH  12  13
ENDBRANCH   1  12
TORSDOF 5
ENDMDL
MODEL 4
REMARK VINA RESULT:    -6.607      3.470      5.962
REMARK INTER + INTRA:          -9.155
REMARK INTER:                  -8.578
REMARK INTRA:                  -0.577
REMARK UNBOUND:                -0.616
REMARK  Name = 
REMARK  6 active torsions:
REMARK  status: ('A' for Active; 'I' for Inactive)
REMARK    1  A    between atoms: C_1  and  C_2
REMARK    2  A    between atoms: C_2  and  C_3
REMARK    3  A    between atoms: C_2  and  C_14
REMARK    4  A    between atoms: C_3  and  O_4
REMARK    5  A    between atoms: O_4  and  C_5
REMARK    6  A    between atoms: C_8  and  C_9
REMARK                            x       y       z     vdW  Elec       q    Type
REMARK                         _______ _______ _______ _____ _____    ______ ____
ROOT
ATOM      1  C   UNL     1      44.851   5.758  12.750  0.00  0.00    +0.000 A 
ATOM      2  C   UNL     1      45.651   4.945  13.549  0.00  0.00    +0.000 A 
ATOM      3  N   UNL     1      46.923   5.277  13.905  0.00  0.00    +0.000 NA
ATOM      4  C   UNL     1      47.355   6.473  13.410  0.00  0.00    +0.000 A 
ATOM      5  C   UNL     1      46.558   7.282  12.616  0.00  0.00    +0.000 A 
ATOM      6  N   UNL     1      45.290   6.944  12.272  0.00  0.00    +0.000 NA
ENDROOT
BRANCH   4   7
ATOM      7  C   UNL     1      48.737   6.919  13.732  0.00  0.00    +0.000 C 
ATOM      8  N   UNL     1      49.610   6.982  12.683  0.00  0.00    +0.000 N 
ATOM      9  O   UNL     1      49.078   7.214  14.870  0.00  0.00    +0.000 OA
ATOM     10  H   UNL     1      49.307   6.737  11.745  0.00  0.00    +0.000 HD
ATOM     11  H   UNL     1      50.558   7.285  12.851  0.00  0.00    +0.000 HD
ENDBRANCH   4   7
BRANCH   1  12
ATOM     12  O   UNL     1      43.583   5.324  12.433  0.00  0.00    +0.000 OA
BRANCH  12  13
ATOM     13  C   UNL     1      43.423   5.091  11.031  0.00  0.00    +0.000 C 
BRANCH  13  15
ATOM     14  C   UNL     1      43.323   2.633  11.727  0.00  0.00    +0.000 C 
ATOM     15  C   UNL     1      43.783   3.660  10.737  0.00  0.00    +0.000 C 
BRANCH  15  16
ATOM     16  C   UNL     1      44.991   3.402   9.861  0.00  0.00    +0.000 C 
ATOM     17  C   UNL     1      45.257   4.531   8.846  0.00  0.00    +0.000 C 
ATOM     18  C   UNL     1      46.409   4.197   7.896  0.00  0.00    +0.000 C 
ATOM     19  C   UNL     1      46.191   2.855   7.209  0.00  0.00    +0.000 C 
ATOM     20  C   UNL     1      46.027   1.741   8.235  0.00  0.00    +0.000 C 
ATOM     21  C   UNL     1      44.868   2.031   9.181  0.00  0.00    +0.000 C 
ENDBRANCH  15  16
ENDBRANCH  13  15
ENDBRANCH  12  13
ENDBRANCH   1  12
TORSDOF 5
ENDMDL
MODEL 5
REMARK VINA RESULT:    -6.128      4.146      6.835
REMARK INTER + INTRA:          -8.535
REMARK INTER:                  -8.204
REMARK INTRA:                  -0.331
REMARK UNBOUND:                -0.616
REMARK  Name = 
REMARK  6 active torsions:
REMARK  status: ('A' for Active; 'I' for Inactive)
REMARK    1  A    between atoms: C_1  and  C_2
REMARK    2  A    between atoms: C_2  and  C_3
REMARK    3  A    between atoms: C_2  and  C_14
REMARK    4  A    between atoms: C_3  and  O_4
REMARK    5  A    between atoms: O_4  and  C_5
REMARK    6  A    between atoms: C_8  and  C_9
REMARK                            x       y       z     vdW  Elec       q    Type
REMARK                         _______ _______ _______ _____ _____    ______ ____
ROOT
ATOM      1  C   UNL     1      46.549   4.700  13.586  0.00  0.00    +0.000 A 
ATOM      2  C   UNL     1      47.409   5.779  13.394  0.00  0.00    +0.000 A 
ATOM      3  N   UNL     1      48.264   6.226  14.356  0.00  0.00    +0.000 NA
ATOM      4  C   UNL     1      48.205   5.533  15.531  0.00  0.00    +0.000 A 
ATOM      5  C   UNL     1      47.351   4.459  15.720  0.00  0.00    +0.000 A 
ATOM      6  N   UNL     1      46.507   4.019  14.753  0.00  0.00    +0.000 NA
ENDROOT
BRANCH   4   7
ATOM      7  C   UNL     1      49.091   5.953  16.649  0.00  0.00    +0.000 C 
ATOM      8  N   UNL     1      49.210   5.073  17.687  0.00  0.00    +0.000 N 
ATOM      9  O   UNL     1      49.682   7.025  16.645  0.00  0.00    +0.000 OA
ATOM     10  H   UNL     1      48.714   4.186  17.671  0.00  0.00    +0.000 HD
ATOM     11  H   UNL     1      49.804   5.311  18.467  0.00  0.00    +0.000 HD
ENDBRANCH   4   7
BRANCH   1  12
ATOM     12  O   UNL     1      45.712   4.336  12.555  0.00  0.00    +0.000 OA
BRANCH  12  13
ATOM     13  C   UNL     1      45.558   5.377  11.586  0.00  0.00    +0.000 C 
BRANCH  13  15
ATOM     14  C   UNL     1      43.012   5.238  11.414  0.00  0.00    +0.000 C 
ATOM     15  C   UNL     1      44.345   5.079  10.748  0.00  0.00    +0.000 C 
BRANCH  15  16
ATOM     16  C   UNL     1      44.513   4.142   9.569  0.00  0.00    +0.000 C 
ATOM     17  C   UNL     1      44.600   2.659   9.982  0.00  0.00    +0.000 C 
ATOM     18  C   UNL     1      44.886   1.743   8.791  0.00  0.00    +0.000 C 
ATOM     19  C   UNL     1      46.124   2.194   8.027  0.00  0.00    +0.000 C 
ATOM     20  C   UNL     1      45.972   3.632   7.548  0.00  0.00    +0.000 C 
ATOM     21  C   UNL     1      45.713   4.577   8.716  0.00  0.00    +0.000 C 
ENDBRANCH  15  16
ENDBRANCH  13  15
ENDBRANCH  12  13
ENDBRANCH   1  12
TORSDOF 5
ENDMDL
MODEL 6
REMARK VINA RESULT:    -6.094      3.988      6.606
REMARK INTER + INTRA:          -8.491
REMARK INTER:                  -8.063
REMARK INTRA:                  -0.428
REMARK UNBOUND:                -0.616
REMARK  Name = 
REMARK  6 active torsions:
REMARK  status: ('A' for Active; 'I' for Inactive)
REMARK    1  A    between atoms: C_1  and  C_2
REMARK    2  A    between atoms: C_2  and  C_3
REMARK    3  A    between atoms: C_2  and  C_14
REMARK    4  A    between atoms: C_3  and  O_4
REMARK    5  A    between atoms: O_4  and  C_5
REMARK    6  A    between atoms: C_8  and  C_9
REMARK                            x       y       z     vdW  Elec       q    Type
REMARK                         _______ _______ _______ _____ _____    ______ ____
ROOT
ATOM      1  C   UNL     1      46.727   5.823  12.809  0.00  0.00    +0.000 A 
ATOM      2  C   UNL     1      47.175   5.295  14.017  0.00  0.00    +0.000 A 
ATOM      3  N   UNL     1      48.241   5.802  14.698  0.00  0.00    +0.000 NA
ATOM      4  C   UNL     1      48.841   6.869  14.095  0.00  0.00    +0.000 A 
ATOM      5  C   UNL     1      48.393   7.395  12.893  0.00  0.00    +0.000 A 
ATOM      6  N   UNL     1      47.327   6.885  12.227  0.00  0.00    +0.000 NA
ENDROOT
BRANCH   4   7
ATOM      7  C   UNL     1      50.023   7.487  14.753  0.00  0.00    +0.000 C 
ATOM      8  N   UNL     1      51.099   7.737  13.950  0.00  0.00    +0.000 N 
ATOM      9  O   UNL     1      50.036   7.757  15.947  0.00  0.00    +0.000 OA
ATOM     10  H   UNL     1      51.067   7.509  12.960  0.00  0.00    +0.000 HD
ATOM     11  H   UNL     1      51.923   8.160  14.350  0.00  0.00    +0.000 HD
ENDBRANCH   4   7
BRANCH   1  12
ATOM     12  O   UNL     1      45.650   5.227  12.192  0.00  0.00    +0.000 OA
BRANCH  12  13
ATOM     13  C   UNL     1      45.449   5.712  10.861  0.00  0.00    +0.000 C 
BRANCH  13  15
ATOM     14  C   UNL     1      43.035   4.902  11.083  0.00  0.00    +0.000 C 
ATOM     15  C   UNL     1      44.280   4.984  10.254  0.00  0.00    +0.000 C 
BRANCH  15  16
ATOM     16  C   UNL     1      44.571   3.945   9.191  0.00  0.00    +0.000 C 
ATOM     17  C   UNL     1      44.807   2.536   9.769  0.00  0.00    +0.000 C 
ATOM     18  C   UNL     1      45.213   1.528   8.693  0.00  0.00    +0.000 C 
ATOM     19  C   UNL     1      46.411   2.023   7.892  0.00  0.00    +0.000 C 
ATOM     20  C   UNL     1      46.116   3.372   7.252  0.00  0.00    +0.000 C 
ATOM     21  C   UNL     1      45.734   4.409   8.303  0.00  0.00    +0.000 C 
ENDBRANCH  15  16
ENDBRANCH  13  15
ENDBRANCH  12  13
ENDBRANCH   1  12
TORSDOF 5
ENDMDL
MODEL 7
REMARK VINA RESULT:    -5.967      4.532      7.229
REMARK INTER + INTRA:          -8.327
REMARK INTER:                  -7.887
REMARK INTRA:                  -0.440
REMARK UNBOUND:                -0.616
REMARK  Name = 
REMARK  6 active torsions:
REMARK  status: ('A' for Active; 'I' for Inactive)
REMARK    1  A    between atoms: C_1  and  C_2
REMARK    2  A    between atoms: C_2  and  C_3
REMARK    3  A    between atoms: C_2  and  C_14
REMARK    4  A    between atoms: C_3  and  O_4
REMARK    5  A    between atoms: O_4  and  C_5
REMARK    6  A    between atoms: C_8  and  C_9
REMARK                            x       y       z     vdW  Elec       q    Type
REMARK                         _______ _______ _______ _____ _____    ______ ____
ROOT
ATOM      1  C   UNL     1      46.949   4.820  14.165  0.00  0.00    +0.000 A 
ATOM      2  C   UNL     1      47.833   5.882  14.340  0.00  0.00    +0.000 A 
ATOM      3  N   UNL     1      48.552   6.068  15.482  0.00  0.00    +0.000 NA
ATOM      4  C   UNL     1      48.332   5.129  16.448  0.00  0.00    +0.000 A 
ATOM      5  C   UNL     1      47.454   4.072  16.272  0.00  0.00    +0.000 A 
ATOM      6  N   UNL     1      46.747   3.893  15.128  0.00  0.00    +0.000 NA
ENDROOT
BRANCH   4   7
ATOM      7  C   UNL     1      49.061   5.252  17.738  0.00  0.00    +0.000 C 
ATOM      8  N   UNL     1      49.685   4.123  18.188  0.00  0.00    +0.000 N 
ATOM      9  O   UNL     1      49.101   6.302  18.367  0.00  0.00    +0.000 OA
ATOM     10  H   UNL     1      49.644   3.262  17.650  0.00  0.00    +0.000 HD
ATOM     11  H   UNL     1      50.198   4.158  19.057  0.00  0.00    +0.000 HD
ENDBRANCH   4   7
BRANCH   1  12
ATOM     12  O   UNL     1      46.257   4.730  12.978  0.00  0.00    +0.000 OA
BRANCH  12  13
ATOM     13  C   UNL     1      45.011   5.432  13.021  0.00  0.00    +0.000 C 
BRANCH  13  15
ATOM     14  C   UNL     1      42.747   5.118  11.877  0.00  0.00    +0.000 C 
ATOM     15  C   UNL     1      44.241   5.124  11.765  0.00  0.00    +0.000 C 
BRANCH  15  16
ATOM     16  C   UNL     1      44.939   4.317  10.689  0.00  0.00    +0.000 C 
ATOM     17  C   UNL     1      45.354   5.164   9.469  0.00  0.00    +0.000 C 
ATOM     18  C   UNL     1      45.949   4.311   8.349  0.00  0.00    +0.000 C 
ATOM     19  C   UNL     1      45.014   3.173   7.960  0.00  0.00    +0.000 C 
ATOM     20  C   UNL     1      44.697   2.295   9.163  0.00  0.00    +0.000 C 
ATOM     21  C   UNL     1      44.075   3.112  10.291  0.00  0.00    +0.000 C 
ENDBRANCH  15  16
ENDBRANCH  13  15
ENDBRANCH  12  13
ENDBRANCH   1  12
TORSDOF 5
ENDMDL
MODEL 8
REMARK VINA RESULT:    -5.749      4.327      6.308
REMARK INTER + INTRA:          -8.045
REMARK INTER:                  -7.604
REMARK INTRA:                  -0.441
REMARK UNBOUND:                -0.616
REMARK  Name = 
REMARK  6 active torsions:
REMARK  status: ('A' for Active; 'I' for Inactive)
REMARK    1  A    between atoms: C_1  and  C_2
REMARK    2  A    between atoms: C_2  and  C_3
REMARK    3  A    between atoms: C_2  and  C_14
REMARK    4  A    between atoms: C_3  and  O_4
REMARK    5  A    between atoms: O_4  and  C_5
REMARK    6  A    between atoms: C_8  and  C_9
REMARK                            x       y       z     vdW  Elec       q    Type
REMARK                         _______ _______ _______ _____ _____    ______ ____
ROOT
ATOM      1  C   UNL     1      46.974   4.695  14.049  0.00  0.00    +0.000 A 
ATOM      2  C   UNL     1      46.868   5.918  13.391  0.00  0.00    +0.000 A 
ATOM      3  N   UNL     1      46.089   6.102  12.289  0.00  0.00    +0.000 NA
ATOM      4  C   UNL     1      45.422   4.986  11.876  0.00  0.00    +0.000 A 
ATOM      5  C   UNL     1      45.527   3.770  12.531  0.00  0.00    +0.000 A 
ATOM      6  N   UNL     1      46.302   3.599  13.632  0.00  0.00    +0.000 NA
ENDROOT
BRANCH   4   7
ATOM      7  C   UNL     1      44.555   5.081  10.672  0.00  0.00    +0.000 C 
ATOM      8  N   UNL     1      45.197   5.130   9.467  0.00  0.00    +0.000 N 
ATOM      9  O   UNL     1      43.333   5.113  10.749  0.00  0.00    +0.000 OA
ATOM     10  H   UNL     1      46.212   5.098   9.422  0.00  0.00    +0.000 HD
ATOM     11  H   UNL     1      44.651   5.190   8.621  0.00  0.00    +0.000 HD
ENDBRANCH   4   7
BRANCH   1  12
ATOM     12  O   UNL     1      47.802   4.609  15.146  0.00  0.00    +0.000 OA
BRANCH  12  13
ATOM     13  C   UNL     1      47.553   3.434  15.924  0.00  0.00    +0.000 C 
BRANCH  13  15
ATOM     14  C   UNL     1      47.212   4.903  17.988  0.00  0.00    +0.000 C 
ATOM     15  C   UNL     1      47.895   3.726  17.360  0.00  0.00    +0.000 C 
BRANCH  15  16
ATOM     16  C   UNL     1      49.232   3.240  17.881  0.00  0.00    +0.000 C 
ATOM     17  C   UNL     1      50.247   4.379  18.102  0.00  0.00    +0.000 C 
ATOM     18  C   UNL     1      51.623   3.855  18.515  0.00  0.00    +0.000 C 
ATOM     19  C   UNL     1      52.141   2.816  17.529  0.00  0.00    +0.000 C 
ATOM     20  C   UNL     1      51.164   1.655  17.402  0.00  0.00    +0.000 C 
ATOM     21  C   UNL     1      49.787   2.140  16.964  0.00  0.00    +0.000 C 
ENDBRANCH  15  16
ENDBRANCH  13  15
ENDBRANCH  12  13
ENDBRANCH   1  12
TORSDOF 5
ENDMDL
MODEL 9
REMARK VINA RESULT:    -5.707      4.340      6.323
REMARK INTER + INTRA:          -7.992
REMARK INTER:                  -7.594
REMARK INTRA:                  -0.398
REMARK UNBOUND:                -0.616
REMARK  Name = 
REMARK  6 active torsions:
REMARK  status: ('A' for Active; 'I' for Inactive)
REMARK    1  A    between atoms: C_1  and  C_2
REMARK    2  A    between atoms: C_2  and  C_3
REMARK    3  A    between atoms: C_2  and  C_14
REMARK    4  A    between atoms: C_3  and  O_4
REMARK    5  A    between atoms: O_4  and  C_5
REMARK    6  A    between atoms: C_8  and  C_9
REMARK                            x       y       z     vdW  Elec       q    Type
REMARK                         _______ _______ _______ _____ _____    ______ ____
ROOT
ATOM      1  C   UNL     1      46.535   4.081  13.796  0.00  0.00    +0.000 A 
ATOM      2  C   UNL     1      46.165   5.407  13.584  0.00  0.00    +0.000 A 
ATOM      3  N   UNL     1      45.249   5.781  12.648  0.00  0.00    +0.000 NA
ATOM      4  C   UNL     1      44.726   4.748  11.926  0.00  0.00    +0.000 A 
ATOM      5  C   UNL     1      45.093   3.429  12.138  0.00  0.00    +0.000 A 
ATOM      6  N   UNL     1      46.003   3.068  13.078  0.00  0.00    +0.000 NA
ENDROOT
BRANCH   4   7
ATOM      7  C   UNL     1      43.726   5.054  10.868  0.00  0.00    +0.000 C 
ATOM      8  N   UNL     1      44.103   4.782   9.584  0.00  0.00    +0.000 N 
ATOM      9  O   UNL     1      42.625   5.523  11.128  0.00  0.00    +0.000 OA
ATOM     10  H   UNL     1      45.020   4.388   9.388  0.00  0.00    +0.000 HD
ATOM     11  H   UNL     1      43.457   4.968   8.832  0.00  0.00    +0.000 HD
ENDBRANCH   4   7
BRANCH   1  12
ATOM     12  O   UNL     1      47.483   3.809  14.758  0.00  0.00    +0.000 OA
BRANCH  12  13
ATOM     13  C   UNL     1      47.544   4.825  15.764  0.00  0.00    +0.000 C 
BRANCH  13  15
ATOM     14  C   UNL     1      47.242   2.859  17.369  0.00  0.00    +0.000 C 
ATOM     15  C   UNL     1      47.887   4.180  17.079  0.00  0.00    +0.000 C 
BRANCH  15  16
ATOM     16  C   UNL     1      48.346   5.080  18.208  0.00  0.00    +0.000 C 
ATOM     17  C   UNL     1      49.275   4.368  19.212  0.00  0.00    +0.000 C 
ATOM     18  C   UNL     1      49.631   5.259  20.403  0.00  0.00    +0.000 C 
ATOM     19  C   UNL     1      48.381   5.811  21.078  0.00  0.00    +0.000 C 
ATOM     20  C   UNL     1      47.529   6.591  20.086  0.00  0.00    +0.000 C 
ATOM     21  C   UNL     1      47.133   5.722  18.897  0.00  0.00    +0.000 C 
ENDBRANCH  15  16
ENDBRANCH  13  15
ENDBRANCH  12  13
ENDBRANCH   1  12
TORSDOF 5
ENDMDL
