MODEL 1
REMARK VINA RESULT:    -8.066      0.000      0.000
REMARK INTER + INTRA:         -11.317
REMARK INTER:                 -10.895
REMARK INTRA:                  -0.422
REMARK UNBOUND:                -0.422
REMARK  Name = 
REMARK  7 active torsions:
REMARK  status: ('A' for Active; 'I' for Inactive)
REMARK    1  A    between atoms: N_1  and  C_2
REMARK    2  A    between atoms: C_2  and  C_3
REMARK    3  A    between atoms: C_3  and  C_4
REMARK    4  A    between atoms: C_7  and  C_8
REMARK    5  A    between atoms: C_8  and  N_9
REMARK    6  A    between atoms: CA_14  and  C_15
REMARK    7  A    between atoms: C_15  and  OXT_17
REMARK                            x       y       z     vdW  Elec       q    Type
REMARK                         _______ _______ _______ _____ _____    ______ ____
ROOT
ATOM      1  N   UNL     1      44.626   5.475  11.292  0.00  0.00    +0.000 N 
ATOM      2  N   UNL     1      44.529   6.826  11.383  0.00  0.00    +0.000 NA
ATOM      3  C   UNL     1      45.239   7.129  12.470  0.00  0.00    +0.000 A 
ATOM      4  C   UNL     1      45.781   5.990  13.101  0.00  0.00    +0.000 A 
ATOM      5  C   UNL     1      46.542   5.756  14.251  0.00  0.00    +0.000 A 
ATOM      6  CA  UNL     1      46.832   4.427  14.515  0.00  0.00    +0.000 A 
ATOM      7  N   UNL     1      46.447   3.363  13.745  0.00  0.00    +0.000 NA
ATOM      8  C   UNL     1      45.709   3.605  12.631  0.00  0.00    +0.000 A 
ATOM      9  C   UNL     1      45.374   4.917  12.310  0.00  0.00    +0.000 A 
ENDROOT
BRANCH   6  10
ATOM     10  C   UNL     1      47.608   4.086  15.747  0.00  0.00    +0.000 C 
ATOM     11  O   UNL     1      48.262   3.066  15.902  0.00  0.00    +0.000 OA
BRANCH  10  12
ATOM     12  OXT UNL     1      47.500   5.068  16.673  0.00  0.00    +0.000 OA
ATOM     13  HXT UNL     1      47.005   4.716  17.452  0.00  0.00    +0.000 HD
ENDBRANCH  10  12
ENDBRANCH   6  10
BRANCH   1  14
ATOM     14  C   UNL     1      43.805   4.779  10.302  0.00  0.00    +0.000 C 
BRANCH  14  18
ATOM     15  C   UNL     1      46.169   2.135   7.810  0.00  0.00    +0.000 A 
ATOM     16  C   UNL     1      45.282   1.609   8.755  0.00  0.00    +0.000 A 
ATOM     17  C   UNL     1      44.496   2.455   9.544  0.00  0.00    +0.000 A 
ATOM     18  C   UNL     1      44.601   3.847   9.422  0.00  0.00    +0.000 A 
ATOM     19  C   UNL     1      45.466   4.369   8.448  0.00  0.00    +0.000 A 
ATOM     20  C   UNL     1      46.234   3.522   7.642  0.00  0.00    +0.000 A 
BRANCH  15  21
ATOM     21  C   UNL     1      47.031   1.211   6.984  0.00  0.00    +0.000 C 
BRANCH  21  22
ATOM     22  C   UNL     1      48.338   1.876   6.545  0.00  0.00    +0.000 C 
BRANCH  22  23
ATOM     23  N   UNL     1      48.362   2.068   5.096  0.00  0.00    +0.000 NA
ATOM     24  H   UNL     1      47.498   2.522   4.803  0.00  0.00    +0.000 HD
ATOM     25  H   UNL     1      48.381   1.161   4.630  0.00  0.00    +0.000 HD
ENDBRANCH  22  23
ENDBRANCH  21  22
ENDBRANCH  15  21
ENDBRANCH  14  18
ENDBRANCH   1  14
TORSDOF 7
ENDMDL
MODEL 2
REMARK VINA RESULT:    -7.709      2.079      2.961
REMARK INTER + INTRA:         -10.835
REMARK INTER:                 -10.273
REMARK INTRA:                  -0.562
REMARK UNBOUND:                -0.422
REMARK  Name = 
REMARK  7 active torsions:
REMARK  status: ('A' for Active; 'I' for Inactive)
REMARK    1  A    between atoms: N_1  and  C_2
REMARK    2  A    between atoms: C_2  and  C_3
REMARK    3  A    between atoms: C_3  and  C_4
REMARK    4  A    between atoms: C_7  and  C_8
REMARK    5  A    between atoms: C_8  and  N_9
REMARK    6  A    between atoms: CA_14  and  C_15
REMARK    7  A    between atoms: C_15  and  OXT_17
REMARK                            x       y       z     vdW  Elec       q    Type
REMARK                         _______ _______ _______ _____ _____    ______ ____
ROOT
ATOM      1  N   UNL     1      45.321   4.483  12.653  0.00  0.00    +0.000 N 
ATOM      2  N   UNL     1      45.980   3.454  13.244  0.00  0.00    +0.000 NA
ATOM      3  C   UNL     1      46.981   4.045  13.898  0.00  0.00    +0.000 A 
ATOM      4  C   UNL     1      46.995   5.444  13.723  0.00  0.00    +0.000 A 
ATOM      5  C   UNL     1      47.820   6.492  14.142  0.00  0.00    +0.000 A 
ATOM      6  CA  UNL     1      47.462   7.753  13.692  0.00  0.00    +0.000 A 
ATOM      7  N   UNL     1      46.381   8.034  12.900  0.00  0.00    +0.000 NA
ATOM      8  C   UNL     1      45.587   7.007  12.501  0.00  0.00    +0.000 A 
ATOM      9  C   UNL     1      45.895   5.712  12.910  0.00  0.00    +0.000 A 
ENDROOT
BRANCH   6  10
ATOM     10  C   UNL     1      48.314   8.924  14.062  0.00  0.00    +0.000 C 
ATOM     11  O   UNL     1      49.310   9.284  13.453  0.00  0.00    +0.000 OA
BRANCH  10  12
ATOM     12  OXT UNL     1      47.830   9.545  15.163  0.00  0.00    +0.000 OA
ATOM     13  HXT UNL     1      48.513  10.175  15.498  0.00  0.00    +0.000 HD
ENDBRANCH  10  12
ENDBRANCH   6  10
BRANCH   1  14
ATOM     14  C   UNL     1      44.259   4.176  11.695  0.00  0.00    +0.000 C 
BRANCH  14  18
ATOM     15  C   UNL     1      45.845   3.099   7.807  0.00  0.00    +0.000 A 
ATOM     16  C   UNL     1      45.310   2.117   8.648  0.00  0.00    +0.000 A 
ATOM     17  C   UNL     1      44.772   2.461   9.894  0.00  0.00    +0.000 A 
ATOM     18  C   UNL     1      44.781   3.791  10.333  0.00  0.00    +0.000 A 
ATOM     19  C   UNL     1      45.286   4.776   9.470  0.00  0.00    +0.000 A 
ATOM     20  C   UNL     1      45.803   4.436   8.216  0.00  0.00    +0.000 A 
BRANCH  15  21
ATOM     21  C   UNL     1      46.447   2.711   6.479  0.00  0.00    +0.000 C 
BRANCH  21  22
ATOM     22  C   UNL     1      47.567   1.679   6.630  0.00  0.00    +0.000 C 
BRANCH  22  23
ATOM     23  N   UNL     1      48.564   1.838   5.572  0.00  0.00    +0.000 NA
ATOM     24  H   UNL     1      49.190   1.033   5.576  0.00  0.00    +0.000 HD
ATOM     25  H   UNL     1      49.144   2.653   5.767  0.00  0.00    +0.000 HD
ENDBRANCH  22  23
ENDBRANCH  21  22
ENDBRANCH  15  21
ENDBRANCH  14  18
ENDBRANCH   1  14
TORSDOF 7
ENDMDL
MODEL 3
REMARK VINA RESULT:    -7.364      3.665      7.194
REMARK INTER + INTRA:         -10.370
REMARK INTER:                  -9.877
REMARK INTRA:                  -0.493
REMARK UNBOUND:                -0.422
REMARK  Name = 
REMARK  7 active torsions:
REMARK  status: ('A' for Active; 'I' for Inactive)
REMARK    1  A    between atoms: N_1  and  C_2
REMARK    2  A    between atoms: C_2  and  C_3
REMARK    3  A    between atoms: C_3  and  C_4
REMARK    4  A    between atoms: C_7  and  C_8
REMARK    5  A    between atoms: C_8  and  N_9
REMARK    6  A    between atoms: CA_14  and  C_15
REMARK    7  A    between atoms: C_15  and  OXT_17
REMARK                            x       y       z     vdW  Elec       q    Type
REMARK                         _______ _______ _______ _____ _____    ______ ____
ROOT
ATOM      1  N   UNL     1      44.055   4.286  10.528  0.00  0.00    +0.000 N 
ATOM      2  N   UNL     1      43.495   3.155  11.028  0.00  0.00    +0.000 NA
ATOM      3  C   UNL     1      44.060   2.175  10.322  0.00  0.00    +0.000 A 
ATOM      4  C   UNL     1      44.967   2.655   9.354  0.00  0.00    +0.000 A 
ATOM      5  C   UNL     1      45.767   2.075   8.365  0.00  0.00    +0.000 A 
ATOM      6  CA  UNL     1      46.503   2.962   7.594  0.00  0.00    +0.000 A 
ATOM      7  N   UNL     1      46.508   4.323   7.739  0.00  0.00    +0.000 NA
ATOM      8  C   UNL     1      45.727   4.873   8.705  0.00  0.00    +0.000 A 
ATOM      9  C   UNL     1      44.955   4.040   9.510  0.00  0.00    +0.000 A 
ENDROOT
BRANCH   6  10
ATOM     10  C   UNL     1      47.354   2.426   6.488  0.00  0.00    +0.000 C 
ATOM     11  O   UNL     1      48.050   1.425   6.563  0.00  0.00    +0.000 OA
BRANCH  10  12
ATOM     12  OXT UNL     1      47.246   3.196   5.380  0.00  0.00    +0.000 OA
ATOM     13  HXT UNL     1      47.576   4.102   5.590  0.00  0.00    +0.000 HD
ENDBRANCH  10  12
ENDBRANCH   6  10
BRANCH   1  14
ATOM     14  C   UNL     1      43.523   5.580  10.957  0.00  0.00    +0.000 C 
BRANCH  14  18
ATOM     15  C   UNL     1      46.575   8.081  12.750  0.00  0.00    +0.000 A 
ATOM     16  C   UNL     1      45.565   8.651  11.967  0.00  0.00    +0.000 A 
ATOM     17  C   UNL     1      44.561   7.853  11.406  0.00  0.00    +0.000 A 
ATOM     18  C   UNL     1      44.562   6.465  11.598  0.00  0.00    +0.000 A 
ATOM     19  C   UNL     1      45.557   5.904  12.414  0.00  0.00    +0.000 A 
ATOM     20  C   UNL     1      46.547   6.705  12.993  0.00  0.00    +0.000 A 
BRANCH  15  21
ATOM     21  C   UNL     1      47.667   8.950  13.325  0.00  0.00    +0.000 C 
BRANCH  21  22
ATOM     22  C   UNL     1      48.226   8.386  14.634  0.00  0.00    +0.000 C 
BRANCH  22  23
ATOM     23  N   UNL     1      47.587   9.020  15.787  0.00  0.00    +0.000 NA
ATOM     24  H   UNL     1      48.244   9.042  16.566  0.00  0.00    +0.000 HD
ATOM     25  H   UNL     1      46.797   8.455  16.095  0.00  0.00    +0.000 HD
ENDBRANCH  22  23
ENDBRANCH  21  22
ENDBRANCH  15  21
ENDBRANCH  14  18
ENDBRANCH   1  14
TORSDOF 7
ENDMDL
MODEL 4
REMARK VINA RESULT:    -7.231      1.562      1.972
REMARK INTER + INTRA:         -10.190
REMARK INTER:                  -9.646
REMARK INTRA:                  -0.544
REMARK UNBOUND:                -0.422
REMARK  Name = 
REMARK  7 active torsions:
REMARK  status: ('A' for Active; 'I' for Inactive)
REMARK    1  A    between atoms: N_1  and  C_2
REMARK    2  A    between atoms: C_2  and  C_3
REMARK    3  A    between atoms: C_3  and  C_4
REMARK    4  A    between atoms: C_7  and  C_8
REMARK    5  A    between atoms: C_8  and  N_9
REMARK    6  A    between atoms: CA_14  and  C_15
REMARK    7  A    between atoms: C_15  and  OXT_17
REMARK                            x       y       z     vdW  Elec       q    Type
REMARK                         _______ _______ _______ _____ _____    ______ ____
ROOT
ATOM      1  N   UNL     1      44.871   6.185  11.519  0.00  0.00    +0.000 N 
ATOM      2  N   UNL     1      44.528   7.460  11.205  0.00  0.00    +0.000 NA
ATOM      3  C   UNL     1      45.353   8.207  11.941  0.00  0.00    +0.000 A 
ATOM      4  C   UNL     1      46.214   7.434  12.746  0.00  0.00    +0.000 A 
ATOM      5  C   UNL     1      47.205   7.708  13.694  0.00  0.00    +0.000 A 
ATOM      6  CA  UNL     1      47.794   6.600  14.281  0.00  0.00    +0.000 A 
ATOM      7  N   UNL     1      47.490   5.296  13.997  0.00  0.00    +0.000 NA
ATOM      8  C   UNL     1      46.527   5.044  13.073  0.00  0.00    +0.000 A 
ATOM      9  C   UNL     1      45.887   6.111  12.450  0.00  0.00    +0.000 A 
ENDROOT
BRANCH   6  10
ATOM     10  C   UNL     1      48.836   6.806  15.335  0.00  0.00    +0.000 C 
ATOM     11  O   UNL     1      49.979   6.380  15.280  0.00  0.00    +0.000 OA
BRANCH  10  12
ATOM     12  OXT UNL     1      48.346   7.541  16.360  0.00  0.00    +0.000 OA
ATOM     13  HXT UNL     1      47.833   8.300  15.990  0.00  0.00    +0.000 HD
ENDBRANCH  10  12
ENDBRANCH   6  10
BRANCH   1  14
ATOM     14  C   UNL     1      44.034   5.093  11.021  0.00  0.00    +0.000 C 
BRANCH  14  18
ATOM     15  C   UNL     1      45.930   2.630   8.001  0.00  0.00    +0.000 A 
ATOM     16  C   UNL     1      46.090   4.019   7.981  0.00  0.00    +0.000 A 
ATOM     17  C   UNL     1      45.502   4.819   8.968  0.00  0.00    +0.000 A 
ATOM     18  C   UNL     1      44.723   4.245   9.981  0.00  0.00    +0.000 A 
ATOM     19  C   UNL     1      44.596   2.848  10.016  0.00  0.00    +0.000 A 
ATOM     20  C   UNL     1      45.202   2.047   9.043  0.00  0.00    +0.000 A 
BRANCH  15  21
ATOM     21  C   UNL     1      46.547   1.782   6.915  0.00  0.00    +0.000 C 
BRANCH  21  22
ATOM     22  C   UNL     1      47.375   2.613   5.931  0.00  0.00    +0.000 C 
BRANCH  22  23
ATOM     23  N   UNL     1      48.790   2.589   6.296  0.00  0.00    +0.000 NA
ATOM     24  H   UNL     1      48.914   2.014   7.129  0.00  0.00    +0.000 HD
ATOM     25  H   UNL     1      49.096   3.528   6.549  0.00  0.00    +0.000 HD
ENDBRANCH  22  23
ENDBRANCH  21  22
ENDBRANCH  15  21
ENDBRANCH  14  18
ENDBRANCH   1  14
TORSDOF 7
ENDMDL
MODEL 5
REMARK VINA RESULT:    -6.011      1.461      2.217
REMARK INTER + INTRA:          -8.541
REMARK INTER:                  -7.958
REMARK INTRA:                  -0.583
REMARK UNBOUND:                -0.422
REMARK  Name = 
REMARK  7 active torsions:
REMARK  status: ('A' for Active; 'I' for Inactive)
REMARK    1  A    between atoms: N_1  and  C_2
REMARK    2  A    between atoms: C_2  and  C_3
REMARK    3  A    between atoms: C_3  and  C_4
REMARK    4  A    between atoms: C_7  and  C_8
REMARK    5  A    between atoms: C_8  and  N_9
REMARK    6  A    between atoms: CA_14  and  C_15
REMARK    7  A    between atoms: C_15  and  OXT_17
REMARK                            x       y       z     vdW  Elec       q    Type
REMARK                         _______ _______ _______ _____ _____    ______ ____
ROOT
ATOM      1  N   UNL     1      46.037   6.772  12.709  0.00  0.00    +0.000 N 
ATOM      2  N   UNL     1      46.733   7.937  12.693  0.00  0.00    +0.000 NA
ATOM      3  C   UNL     1      47.667   7.767  13.630  0.00  0.00    +0.000 A 
ATOM      4  C   UNL     1      47.575   6.514  14.269  0.00  0.00    +0.000 A 
ATOM      5  C   UNL     1      48.259   5.873  15.307  0.00  0.00    +0.000 A 
ATOM      6  CA  UNL     1      47.792   4.611  15.641  0.00  0.00    +0.000 A 
ATOM      7  N   UNL     1      46.748   3.966  15.035  0.00  0.00    +0.000 NA
ATOM      8  C   UNL     1      46.093   4.600  14.028  0.00  0.00    +0.000 A 
ATOM      9  C   UNL     1      46.505   5.874  13.647  0.00  0.00    +0.000 A 
ENDROOT
BRANCH   6  10
ATOM     10  C   UNL     1      48.443   3.873  16.767  0.00  0.00    +0.000 C 
ATOM     11  O   UNL     1      48.617   4.322  17.889  0.00  0.00    +0.000 OA
BRANCH  10  12
ATOM     12  OXT UNL     1      48.808   2.628  16.381  0.00  0.00    +0.000 OA
ATOM     13  HXT UNL     1      48.535   2.495  15.441  0.00  0.00    +0.000 HD
ENDBRANCH  10  12
ENDBRANCH   6  10
BRANCH   1  14
ATOM     14  C   UNL     1      44.808   6.680  11.919  0.00  0.00    +0.000 C 
BRANCH  14  18
ATOM     15  C   UNL     1      45.259   4.020   8.527  0.00  0.00    +0.000 A 
ATOM     16  C   UNL     1      44.169   3.881   9.394  0.00  0.00    +0.000 A 
ATOM     17  C   UNL     1      44.003   4.752  10.476  0.00  0.00    +0.000 A 
ATOM     18  C   UNL     1      44.937   5.765  10.726  0.00  0.00    +0.000 A 
ATOM     19  C   UNL     1      46.008   5.923   9.833  0.00  0.00    +0.000 A 
ATOM     20  C   UNL     1      46.162   5.066   8.738  0.00  0.00    +0.000 A 
BRANCH  15  21
ATOM     21  C   UNL     1      45.441   3.056   7.380  0.00  0.00    +0.000 C 
BRANCH  21  22
ATOM     22  C   UNL     1      46.913   2.879   7.000  0.00  0.00    +0.000 C 
BRANCH  22  23
ATOM     23  N   UNL     1      47.131   3.226   5.597  0.00  0.00    +0.000 NA
ATOM     24  H   UNL     1      46.237   3.451   5.162  0.00  0.00    +0.000 HD
ATOM     25  H   UNL     1      47.497   2.417   5.096  0.00  0.00    +0.000 HD
ENDBRANCH  22  23
ENDBRANCH  21  22
ENDBRANCH  15  21
ENDBRANCH  14  18
ENDBRANCH   1  14
TORSDOF 7
ENDMDL
MODEL 6
REMARK VINA RESULT:    -5.933      3.937      8.275
REMARK INTER + INTRA:          -8.436
REMARK INTER:                  -8.025
REMARK INTRA:                  -0.411
REMARK UNBOUND:                -0.422
REMARK  Name = 
REMARK  7 active torsions:
REMARK  status: ('A' for Active; 'I' for Inactive)
REMARK    1  A    between atoms: N_1  and  C_2
REMARK    2  A    between atoms: C_2  and  C_3
REMARK    3  A    between atoms: C_3  and  C_4
REMARK    4  A    between atoms: C_7  and  C_8
REMARK    5  A    between atoms: C_8  and  N_9
REMARK    6  A    between atoms: CA_14  and  C_15
REMARK    7  A    between atoms: C_15  and  OXT_17
REMARK                            x       y       z     vdW  Elec       q    Type
REMARK                         _______ _______ _______ _____ _____    ______ ____
ROOT
ATOM      1  N   UNL     1      47.368   6.706  13.686  0.00  0.00    +0.000 N 
ATOM      2  N   UNL     1      46.857   7.886  13.254  0.00  0.00    +0.000 NA
ATOM      3  C   UNL     1      45.749   7.538  12.599  0.00  0.00    +0.000 A 
ATOM      4  C   UNL     1      45.543   6.144  12.581  0.00  0.00    +0.000 A 
ATOM      5  C   UNL     1      44.593   5.285  12.020  0.00  0.00    +0.000 A 
ATOM      6  CA  UNL     1      44.806   3.933  12.237  0.00  0.00    +0.000 A 
ATOM      7  N   UNL     1      45.845   3.399  12.951  0.00  0.00    +0.000 NA
ATOM      8  C   UNL     1      46.760   4.245  13.492  0.00  0.00    +0.000 A 
ATOM      9  C   UNL     1      46.611   5.616  13.305  0.00  0.00    +0.000 A 
ENDROOT
BRANCH   6  10
ATOM     10  C   UNL     1      43.858   2.944  11.638  0.00  0.00    +0.000 C 
ATOM     11  O   UNL     1      43.544   2.903  10.458  0.00  0.00    +0.000 OA
BRANCH  10  12
ATOM     12  OXT UNL     1      43.398   2.086  12.578  0.00  0.00    +0.000 OA
ATOM     13  HXT UNL     1      43.713   1.176  12.358  0.00  0.00    +0.000 HD
ENDBRANCH  10  12
ENDBRANCH   6  10
BRANCH   1  14
ATOM     14  C   UNL     1      48.698   6.699  14.296  0.00  0.00    +0.000 C 
BRANCH  14  18
ATOM     15  C   UNL     1      48.659   6.357  18.617  0.00  0.00    +0.000 A 
ATOM     16  C   UNL     1      48.897   7.594  18.009  0.00  0.00    +0.000 A 
ATOM     17  C   UNL     1      48.885   7.718  16.615  0.00  0.00    +0.000 A 
ATOM     18  C   UNL     1      48.659   6.600  15.801  0.00  0.00    +0.000 A 
ATOM     19  C   UNL     1      48.385   5.369  16.417  0.00  0.00    +0.000 A 
ATOM     20  C   UNL     1      48.375   5.251  17.811  0.00  0.00    +0.000 A 
BRANCH  15  21
ATOM     21  C   UNL     1      48.702   6.232  20.120  0.00  0.00    +0.000 C 
BRANCH  21  22
ATOM     22  C   UNL     1      49.411   4.954  20.576  0.00  0.00    +0.000 C 
BRANCH  22  23
ATOM     23  N   UNL     1      48.442   3.950  21.010  0.00  0.00    +0.000 NA
ATOM     24  H   UNL     1      47.564   4.411  21.250  0.00  0.00    +0.000 HD
ATOM     25  H   UNL     1      48.771   3.501  21.864  0.00  0.00    +0.000 HD
ENDBRANCH  22  23
ENDBRANCH  21  22
ENDBRANCH  15  21
ENDBRANCH  14  18
ENDBRANCH   1  14
TORSDOF 7
ENDMDL
MODEL 7
REMARK VINA RESULT:    -5.880      2.610      3.424
REMARK INTER + INTRA:          -8.364
REMARK INTER:                  -7.798
REMARK INTRA:                  -0.566
REMARK UNBOUND:                -0.422
REMARK  Name = 
REMARK  7 active torsions:
REMARK  status: ('A' for Active; 'I' for Inactive)
REMARK    1  A    between atoms: N_1  and  C_2
REMARK    2  A    between atoms: C_2  and  C_3
REMARK    3  A    between atoms: C_3  and  C_4
REMARK    4  A    between atoms: C_7  and  C_8
REMARK    5  A    between atoms: C_8  and  N_9
REMARK    6  A    between atoms: CA_14  and  C_15
REMARK    7  A    between atoms: C_15  and  OXT_17
REMARK                            x       y       z     vdW  Elec       q    Type
REMARK                         _______ _______ _______ _____ _____    ______ ____
ROOT
ATOM      1  N   UNL     1      46.188   7.456  12.458  0.00  0.00    +0.000 N 
ATOM      2  N   UNL     1      46.345   8.662  11.855  0.00  0.00    +0.000 NA
ATOM      3  C   UNL     1      47.523   9.096  12.304  0.00  0.00    +0.000 A 
ATOM      4  C   UNL     1      48.126   8.198  13.208  0.00  0.00    +0.000 A 
ATOM      5  C   UNL     1      49.299   8.188  13.969  0.00  0.00    +0.000 A 
ATOM      6  CA  UNL     1      49.482   7.074  14.772  0.00  0.00    +0.000 A 
ATOM      7  N   UNL     1      48.624   6.010  14.859  0.00  0.00    +0.000 NA
ATOM      8  C   UNL     1      47.489   6.032  14.113  0.00  0.00    +0.000 A 
ATOM      9  C   UNL     1      47.239   7.126  13.290  0.00  0.00    +0.000 A 
ENDROOT
BRANCH   6  10
ATOM     10  C   UNL     1      50.691   7.002  15.648  0.00  0.00    +0.000 C 
ATOM     11  O   UNL     1      51.573   7.846  15.692  0.00  0.00    +0.000 OA
BRANCH  10  12
ATOM     12  OXT UNL     1      50.677   5.877  16.400  0.00  0.00    +0.000 OA
ATOM     13  HXT UNL     1      51.067   5.139  15.872  0.00  0.00    +0.000 HD
ENDBRANCH  10  12
ENDBRANCH   6  10
BRANCH   1  14
ATOM     14  C   UNL     1      44.901   6.771  12.329  0.00  0.00    +0.000 C 
BRANCH  14  18
ATOM     15  C   UNL     1      45.008   3.224   9.840  0.00  0.00    +0.000 A 
ATOM     16  C   UNL     1      45.417   4.460   9.327  0.00  0.00    +0.000 A 
ATOM     17  C   UNL     1      45.410   5.604  10.132  0.00  0.00    +0.000 A 
ATOM     18  C   UNL     1      44.970   5.539  11.460  0.00  0.00    +0.000 A 
ATOM     19  C   UNL     1      44.595   4.291  11.981  0.00  0.00    +0.000 A 
ATOM     20  C   UNL     1      44.624   3.143  11.182  0.00  0.00    +0.000 A 
BRANCH  15  21
ATOM     21  C   UNL     1      44.994   2.003   8.953  0.00  0.00    +0.000 C 
BRANCH  21  22
ATOM     22  C   UNL     1      46.267   1.885   8.110  0.00  0.00    +0.000 C 
BRANCH  22  23
ATOM     23  N   UNL     1      46.611   0.482   7.885  0.00  0.00    +0.000 NA
ATOM     24  H   UNL     1      47.085   0.392   6.987  0.00  0.00    +0.000 HD
ATOM     25  H   UNL     1      45.759  -0.074   7.816  0.00  0.00    +0.000 HD
ENDBRANCH  22  23
ENDBRANCH  21  22
ENDBRANCH  15  21
ENDBRANCH  14  18
ENDBRANCH   1  14
TORSDOF 7
ENDMDL
MODEL 8
REMARK VINA RESULT:    -5.804      4.698      6.536
REMARK INTER + INTRA:          -8.262
REMARK INTER:                  -7.721
REMARK INTRA:                  -0.541
REMARK UNBOUND:                -0.422
REMARK  Name = 
REMARK  7 active torsions:
REMARK  status: ('A' for Active; 'I' for Inactive)
REMARK    1  A    between atoms: N_1  and  C_2
REMARK    2  A    between atoms: C_2  and  C_3
REMARK    3  A    between atoms: C_3  and  C_4
REMARK    4  A    between atoms: C_7  and  C_8
REMARK    5  A    between atoms: C_8  and  N_9
REMARK    6  A    between atoms: CA_14  and  C_15
REMARK    7  A    between atoms: C_15  and  OXT_17
REMARK                            x       y       z     vdW  Elec       q    Type
REMARK                         _______ _______ _______ _____ _____    ______ ____
ROOT
ATOM      1  N   UNL     1      47.475   6.214  13.739  0.00  0.00    +0.000 N 
ATOM      2  N   UNL     1      47.788   5.389  14.770  0.00  0.00    +0.000 NA
ATOM      3  C   UNL     1      47.094   4.279  14.517  0.00  0.00    +0.000 A 
ATOM      4  C   UNL     1      46.316   4.378  13.345  0.00  0.00    +0.000 A 
ATOM      5  C   UNL     1      45.412   3.547  12.676  0.00  0.00    +0.000 A 
ATOM      6  CA  UNL     1      44.837   4.084  11.535  0.00  0.00    +0.000 A 
ATOM      7  N   UNL     1      45.096   5.329  11.028  0.00  0.00    +0.000 NA
ATOM      8  C   UNL     1      45.977   6.125  11.687  0.00  0.00    +0.000 A 
ATOM      9  C   UNL     1      46.585   5.651  12.846  0.00  0.00    +0.000 A 
ENDROOT
BRANCH   6  10
ATOM     10  C   UNL     1      43.829   3.276  10.782  0.00  0.00    +0.000 C 
ATOM     11  O   UNL     1      44.026   2.744   9.701  0.00  0.00    +0.000 OA
BRANCH  10  12
ATOM     12  OXT UNL     1      42.663   3.202  11.466  0.00  0.00    +0.000 OA
ATOM     13  HXT UNL     1      42.201   4.072  11.399  0.00  0.00    +0.000 HD
ENDBRANCH  10  12
ENDBRANCH   6  10
BRANCH   1  14
ATOM     14  C   UNL     1      47.927   7.605  13.793  0.00  0.00    +0.000 C 
BRANCH  14  18
ATOM     15  C   UNL     1      51.686   8.204  11.721  0.00  0.00    +0.000 A 
ATOM     16  C   UNL     1      50.550   7.789  11.017  0.00  0.00    +0.000 A 
ATOM     17  C   UNL     1      49.326   7.619  11.675  0.00  0.00    +0.000 A 
ATOM     18  C   UNL     1      49.221   7.837  13.055  0.00  0.00    +0.000 A 
ATOM     19  C   UNL     1      50.355   8.287  13.749  0.00  0.00    +0.000 A 
ATOM     20  C   UNL     1      51.572   8.480  13.087  0.00  0.00    +0.000 A 
BRANCH  15  21
ATOM     21  C   UNL     1      53.005   8.357  11.004  0.00  0.00    +0.000 C 
BRANCH  21  22
ATOM     22  C   UNL     1      53.242   7.242   9.981  0.00  0.00    +0.000 C 
BRANCH  22  23
ATOM     23  N   UNL     1      53.682   6.016  10.643  0.00  0.00    +0.000 NA
ATOM     24  H   UNL     1      53.241   5.950  11.559  0.00  0.00    +0.000 HD
ATOM     25  H   UNL     1      54.687   6.058  10.812  0.00  0.00    +0.000 HD
ENDBRANCH  22  23
ENDBRANCH  21  22
ENDBRANCH  15  21
ENDBRANCH  14  18
ENDBRANCH   1  14
TORSDOF 7
ENDMDL
MODEL 9
REMARK VINA RESULT:    -5.696      4.292      6.126
REMARK INTER + INTRA:          -8.116
REMARK INTER:                  -7.528
REMARK INTRA:                  -0.588
REMARK UNBOUND:                -0.422
REMARK  Name = 
REMARK  7 active torsions:
REMARK  status: ('A' for Active; 'I' for Inactive)
REMARK    1  A    between atoms: N_1  and  C_2
REMARK    2  A    between atoms: C_2  and  C_3
REMARK    3  A    between atoms: C_3  and  C_4
REMARK    4  A    between atoms: C_7  and  C_8
REMARK    5  A    between atoms: C_8  and  N_9
REMARK    6  A    between atoms: CA_14  and  C_15
REMARK    7  A    between atoms: C_15  and  OXT_17
REMARK                            x       y       z     vdW  Elec       q    Type
REMARK                         _______ _______ _______ _____ _____    ______ ____
ROOT
ATOM      1  N   UNL     1      45.701   7.944  12.721  0.00  0.00    +0.000 N 
ATOM      2  N   UNL     1      45.073   8.753  11.830  0.00  0.00    +0.000 NA
ATOM      3  C   UNL     1      44.297   7.923  11.131  0.00  0.00    +0.000 A 
ATOM      4  C   UNL     1      44.428   6.581  11.543  0.00  0.00    +0.000 A 
ATOM      5  C   UNL     1      43.890   5.356  11.132  0.00  0.00    +0.000 A 
ATOM      6  CA  UNL     1      44.339   4.243  11.826  0.00  0.00    +0.000 A 
ATOM      7  N   UNL     1      45.235   4.262  12.860  0.00  0.00    +0.000 NA
ATOM      8  C   UNL     1      45.748   5.458  13.250  0.00  0.00    +0.000 A 
ATOM      9  C   UNL     1      45.347   6.616  12.590  0.00  0.00    +0.000 A 
ENDROOT
BRANCH   6  10
ATOM     10  C   UNL     1      43.844   2.891  11.424  0.00  0.00    +0.000 C 
ATOM     11  O   UNL     1      43.774   2.486  10.274  0.00  0.00    +0.000 OA
BRANCH  10  12
ATOM     12  OXT UNL     1      43.490   2.164  12.509  0.00  0.00    +0.000 OA
ATOM     13  HXT UNL     1      42.562   2.396  12.757  0.00  0.00    +0.000 HD
ENDBRANCH  10  12
ENDBRANCH   6  10
BRANCH   1  14
ATOM     14  C   UNL     1      46.777   8.505  13.538  0.00  0.00    +0.000 C 
BRANCH  14  18
ATOM     15  C   UNL     1      50.552   8.588  11.410  0.00  0.00    +0.000 A 
ATOM     16  C   UNL     1      49.816   9.765  11.587  0.00  0.00    +0.000 A 
ATOM     17  C   UNL     1      48.609   9.750  12.296  0.00  0.00    +0.000 A 
ATOM     18  C   UNL     1      48.103   8.554  12.820  0.00  0.00    +0.000 A 
ATOM     19  C   UNL     1      48.864   7.384  12.671  0.00  0.00    +0.000 A 
ATOM     20  C   UNL     1      50.081   7.403  11.982  0.00  0.00    +0.000 A 
BRANCH  15  21
ATOM     21  C   UNL     1      51.838   8.613  10.621  0.00  0.00    +0.000 C 
BRANCH  21  22
ATOM     22  C   UNL     1      52.156   7.255   9.989  0.00  0.00    +0.000 C 
BRANCH  22  23
ATOM     23  N   UNL     1      53.310   6.637  10.640  0.00  0.00    +0.000 NA
ATOM     24  H   UNL     1      53.942   6.272   9.928  0.00  0.00    +0.000 HD
ATOM     25  H   UNL     1      53.005   5.836  11.191  0.00  0.00    +0.000 HD
ENDBRANCH  22  23
ENDBRANCH  21  22
ENDBRANCH  15  21
ENDBRANCH  14  18
ENDBRANCH   1  14
TORSDOF 7
ENDMDL
