MODEL 1
REMARK VINA RESULT:    -8.309      0.000      0.000
REMARK INTER + INTRA:         -11.271
REMARK INTER:                 -10.738
REMARK INTRA:                  -0.533
REMARK UNBOUND:                -0.533
REMARK  Name = 
REMARK  6 active torsions:
REMARK  status: ('A' for Active; 'I' for Inactive)
REMARK    1  A    between atoms: C_1  and  O_2
REMARK    2  A    between atoms: O_2  and  C_3
REMARK    3  A    between atoms: C_7  and  C_8
REMARK    4  A    between atoms: C_12  and  C_13
REMARK    5  A    between atoms: C_13  and  N_14
REMARK    6  A    between atoms: C_18  and  C_19
REMARK                            x       y       z     vdW  Elec       q    Type
REMARK                         _______ _______ _______ _____ _____    ______ ____
ROOT
ATOM      1  C   UNL     1      43.978   4.801  11.525  0.00  0.00    +0.000 C 
ATOM      2  C   UNL     1      43.027   5.872  11.024  0.00  0.00    +0.000 C 
ATOM      3  C   UNL     1      42.682   5.122  12.267  0.00  0.00    +0.000 C 
ENDROOT
BRANCH   1   4
ATOM      4  N   UNL     1      44.055   3.480  10.861  0.00  0.00    +0.000 N 
ATOM      5  C   UNL     1      44.845   3.326   9.696  0.00  0.00    +0.000 A 
ATOM      6  C   UNL     1      44.967   2.049   9.148  0.00  0.00    +0.000 A 
ATOM      7  C   UNL     1      45.745   1.855   8.010  0.00  0.00    +0.000 A 
ATOM      8  C   UNL     1      46.379   2.955   7.466  0.00  0.00    +0.000 A 
ATOM      9  N   UNL     1      46.269   4.190   8.010  0.00  0.00    +0.000 NA
ATOM     10  N   UNL     1      45.506   4.364   9.139  0.00  0.00    +0.000 NA
ATOM     11  H   UNL     1      43.163   3.017  10.722  0.00  0.00    +0.000 HD
BRANCH   8  12
ATOM     12  C   UNL     1      47.216   2.835   6.243  0.00  0.00    +0.000 C 
ATOM     13  N   UNL     1      48.548   2.576   6.449  0.00  0.00    +0.000 N 
ATOM     14  O   UNL     1      46.753   2.964   5.117  0.00  0.00    +0.000 OA
ATOM     15  H   UNL     1      48.915   2.464   7.387  0.00  0.00    +0.000 HD
ATOM     16  H   UNL     1      49.160   2.473   5.653  0.00  0.00    +0.000 HD
ENDBRANCH   8  12
ENDBRANCH   1   4
BRANCH   1  21
ATOM     17  C   UNL     1      47.167   6.764  12.533  0.00  0.00    +0.000 A 
ATOM     18  C   UNL     1      47.535   5.945  13.605  0.00  0.00    +0.000 A 
ATOM     19  N   UNL     1      46.904   4.809  13.973  0.00  0.00    +0.000 NA
ATOM     20  C   UNL     1      45.811   4.473  13.255  0.00  0.00    +0.000 A 
ATOM     21  C   UNL     1      45.272   5.222  12.211  0.00  0.00    +0.000 A 
ATOM     22  C   UNL     1      45.999   6.373  11.849  0.00  0.00    +0.000 A 
BRANCH  17  27
ATOM     23  C   UNL     1      50.063   8.987  11.433  0.00  0.00    +0.000 A 
ATOM     24  C   UNL     1      49.407  10.209  11.477  0.00  0.00    +0.000 A 
ATOM     25  N   UNL     1      48.111  10.365  11.821  0.00  0.00    +0.000 NA
ATOM     26  C   UNL     1      47.441   9.235  12.149  0.00  0.00    +0.000 A 
ATOM     27  C   UNL     1      47.975   7.940  12.141  0.00  0.00    +0.000 A 
ATOM     28  C   UNL     1      49.326   7.845  11.760  0.00  0.00    +0.000 A 
BRANCH  23  30
ATOM     29  C   UNL     1      51.931   7.848  10.512  0.00  0.00    +0.000 C 
ATOM     30  O   UNL     1      51.379   9.031  11.075  0.00  0.00    +0.000 OA
ENDBRANCH  23  30
ENDBRANCH  17  27
ENDBRANCH   1  21
TORSDOF 5
ENDMDL
MODEL 2
REMARK VINA RESULT:    -8.249      2.571      4.136
REMARK INTER + INTRA:         -11.194
REMARK INTER:                 -10.686
REMARK INTRA:                  -0.507
REMARK UNBOUND:                -0.533
REMARK  Name = 
REMARK  6 active torsions:
REMARK  status: ('A' for Active; 'I' for Inactive)
REMARK    1  A    between atoms: C_1  and  O_2
REMARK    2  A    between atoms: O_2  and  C_3
REMARK    3  A    between atoms: C_7  and  C_8
REMARK    4  A    between atoms: C_12  and  C_13
REMARK    5  A    between atoms: C_13  and  N_14
REMARK    6  A    between atoms: C_18  and  C_19
REMARK                            x       y       z     vdW  Elec       q    Type
REMARK                         _______ _______ _______ _____ _____    ______ ____
ROOT
ATOM      1  C   UNL     1      44.038   4.894  11.577  0.00  0.00    +0.000 C 
ATOM      2  C   UNL     1      43.044   5.872  10.976  0.00  0.00    +0.000 C 
ATOM      3  C   UNL     1      42.696   5.178  12.250  0.00  0.00    +0.000 C 
ENDROOT
BRANCH   1   4
ATOM      4  N   UNL     1      44.220   3.543  10.999  0.00  0.00    +0.000 N 
ATOM      5  C   UNL     1      44.960   3.386   9.803  0.00  0.00    +0.000 A 
ATOM      6  C   UNL     1      45.189   2.092   9.336  0.00  0.00    +0.000 A 
ATOM      7  C   UNL     1      45.923   1.897   8.169  0.00  0.00    +0.000 A 
ATOM      8  C   UNL     1      46.407   3.013   7.516  0.00  0.00    +0.000 A 
ATOM      9  N   UNL     1      46.195   4.267   7.982  0.00  0.00    +0.000 NA
ATOM     10  N   UNL     1      45.477   4.443   9.139  0.00  0.00    +0.000 NA
ATOM     11  H   UNL     1      43.376   2.982  10.945  0.00  0.00    +0.000 HD
BRANCH   8  12
ATOM     12  C   UNL     1      47.188   2.891   6.257  0.00  0.00    +0.000 C 
ATOM     13  N   UNL     1      48.503   2.526   6.397  0.00  0.00    +0.000 N 
ATOM     14  O   UNL     1      46.694   3.107   5.157  0.00  0.00    +0.000 OA
ATOM     15  H   UNL     1      48.895   2.343   7.314  0.00  0.00    +0.000 HD
ATOM     16  H   UNL     1      49.076   2.417   5.573  0.00  0.00    +0.000 HD
ENDBRANCH   8  12
ENDBRANCH   1   4
BRANCH   1  21
ATOM     17  C   UNL     1      47.013   5.330  14.026  0.00  0.00    +0.000 A 
ATOM     18  C   UNL     1      47.585   6.440  13.397  0.00  0.00    +0.000 A 
ATOM     19  N   UNL     1      47.068   7.085  12.328  0.00  0.00    +0.000 NA
ATOM     20  C   UNL     1      45.925   6.578  11.819  0.00  0.00    +0.000 A 
ATOM     21  C   UNL     1      45.275   5.435  12.282  0.00  0.00    +0.000 A 
ATOM     22  C   UNL     1      45.840   4.834  13.423  0.00  0.00    +0.000 A 
BRANCH  17  27
ATOM     23  C   UNL     1      48.821   4.922  17.357  0.00  0.00    +0.000 A 
ATOM     24  C   UNL     1      48.702   3.545  17.485  0.00  0.00    +0.000 A 
ATOM     25  N   UNL     1      48.077   2.750  16.590  0.00  0.00    +0.000 NA
ATOM     26  C   UNL     1      47.556   3.368  15.504  0.00  0.00    +0.000 A 
ATOM     27  C   UNL     1      47.598   4.746  15.253  0.00  0.00    +0.000 A 
ATOM     28  C   UNL     1      48.250   5.520  16.230  0.00  0.00    +0.000 A 
BRANCH  23  30
ATOM     29  C   UNL     1      50.008   6.850  18.069  0.00  0.00    +0.000 C 
ATOM     30  O   UNL     1      49.499   5.555  18.358  0.00  0.00    +0.000 OA
ENDBRANCH  23  30
ENDBRANCH  17  27
ENDBRANCH   1  21
TORSDOF 5
ENDMDL
MODEL 3
REMARK VINA RESULT:    -7.425      2.993      7.622
REMARK INTER + INTRA:         -10.129
REMARK INTER:                 -10.433
REMARK INTRA:                   0.303
REMARK UNBOUND:                -0.533
REMARK  Name = 
REMARK  6 active torsions:
REMARK  status: ('A' for Active; 'I' for Inactive)
REMARK    1  A    between atoms: C_1  and  O_2
REMARK    2  A    between atoms: O_2  and  C_3
REMARK    3  A    between atoms: C_7  and  C_8
REMARK    4  A    between atoms: C_12  and  C_13
REMARK    5  A    between atoms: C_13  and  N_14
REMARK    6  A    between atoms: C_18  and  C_19
REMARK                            x       y       z     vdW  Elec       q    Type
REMARK                         _______ _______ _______ _____ _____    ______ ____
ROOT
ATOM      1  C   UNL     1      48.734   8.073  12.815  0.00  0.00    +0.000 C 
ATOM      2  C   UNL     1      49.619   8.889  11.891  0.00  0.00    +0.000 C 
ATOM      3  C   UNL     1      49.868   7.423  12.023  0.00  0.00    +0.000 C 
ENDROOT
BRANCH   1   4
ATOM      4  N   UNL     1      48.901   8.140  14.284  0.00  0.00    +0.000 N 
ATOM      5  C   UNL     1      48.609   7.005  15.076  0.00  0.00    +0.000 A 
ATOM      6  C   UNL     1      48.862   7.075  16.446  0.00  0.00    +0.000 A 
ATOM      7  C   UNL     1      48.600   5.973  17.256  0.00  0.00    +0.000 A 
ATOM      8  C   UNL     1      48.094   4.836  16.657  0.00  0.00    +0.000 A 
ATOM      9  N   UNL     1      47.863   4.769  15.325  0.00  0.00    +0.000 NA
ATOM     10  N   UNL     1      48.137   5.859  14.537  0.00  0.00    +0.000 NA
ATOM     11  H   UNL     1      48.504   8.965  14.724  0.00  0.00    +0.000 HD
BRANCH   8  12
ATOM     12  C   UNL     1      47.773   3.623  17.454  0.00  0.00    +0.000 C 
ATOM     13  N   UNL     1      48.747   3.200  18.323  0.00  0.00    +0.000 N 
ATOM     14  O   UNL     1      46.708   3.029  17.343  0.00  0.00    +0.000 OA
ATOM     15  H   UNL     1      49.620   3.706  18.410  0.00  0.00    +0.000 HD
ATOM     16  H   UNL     1      48.576   2.387  18.898  0.00  0.00    +0.000 HD
ENDBRANCH   8  12
ENDBRANCH   1   4
BRANCH   1  21
ATOM     17  C   UNL     1      45.676   6.280  11.241  0.00  0.00    +0.000 A 
ATOM     18  C   UNL     1      44.701   7.154  11.729  0.00  0.00    +0.000 A 
ATOM     19  N   UNL     1      44.943   8.279  12.438  0.00  0.00    +0.000 NA
ATOM     20  C   UNL     1      46.238   8.541  12.717  0.00  0.00    +0.000 A 
ATOM     21  C   UNL     1      47.317   7.731  12.370  0.00  0.00    +0.000 A 
ATOM     22  C   UNL     1      47.003   6.596  11.597  0.00  0.00    +0.000 A 
BRANCH  17  27
ATOM     23  C   UNL     1      45.367   3.908   8.272  0.00  0.00    +0.000 A 
ATOM     24  C   UNL     1      44.568   2.942   8.867  0.00  0.00    +0.000 A 
ATOM     25  N   UNL     1      44.137   2.994  10.145  0.00  0.00    +0.000 NA
ATOM     26  C   UNL     1      44.518   4.079  10.860  0.00  0.00    +0.000 A 
ATOM     27  C   UNL     1      45.326   5.122  10.388  0.00  0.00    +0.000 A 
ATOM     28  C   UNL     1      45.753   5.001   9.053  0.00  0.00    +0.000 A 
BRANCH  23  30
ATOM     29  C   UNL     1      46.888   2.964   6.713  0.00  0.00    +0.000 C 
ATOM     30  O   UNL     1      45.692   3.689   6.964  0.00  0.00    +0.000 OA
ENDBRANCH  23  30
ENDBRANCH  17  27
ENDBRANCH   1  21
TORSDOF 5
ENDMDL
MODEL 4
REMARK VINA RESULT:    -7.120      4.980      8.610
REMARK INTER + INTRA:          -9.734
REMARK INTER:                  -9.680
REMARK INTRA:                  -0.054
REMARK UNBOUND:                -0.533
REMARK  Name = 
REMARK  6 active torsions:
REMARK  status: ('A' for Active; 'I' for Inactive)
REMARK    1  A    between atoms: C_1  and  O_2
REMARK    2  A    between atoms: O_2  and  C_3
REMARK    3  A    between atoms: C_7  and  C_8
REMARK    4  A    between atoms: C_12  and  C_13
REMARK    5  A    between atoms: C_13  and  N_14
REMARK    6  A    between atoms: C_18  and  C_19
REMARK                            x       y       z     vdW  Elec       q    Type
REMARK                         _______ _______ _______ _____ _____    ______ ____
ROOT
ATOM      1  C   UNL     1      48.203   4.562  17.033  0.00  0.00    +0.000 C 
ATOM      2  C   UNL     1      47.391   3.406  17.589  0.00  0.00    +0.000 C 
ATOM      3  C   UNL     1      47.129   4.785  18.096  0.00  0.00    +0.000 C 
ENDROOT
BRANCH   1   4
ATOM      4  N   UNL     1      49.608   4.775  17.450  0.00  0.00    +0.000 N 
ATOM      5  C   UNL     1      50.502   3.679  17.488  0.00  0.00    +0.000 A 
ATOM      6  C   UNL     1      51.838   3.931  17.799  0.00  0.00    +0.000 A 
ATOM      7  C   UNL     1      52.751   2.880  17.834  0.00  0.00    +0.000 A 
ATOM      8  C   UNL     1      52.286   1.611  17.550  0.00  0.00    +0.000 A 
ATOM      9  N   UNL     1      50.990   1.374  17.235  0.00  0.00    +0.000 NA
ATOM     10  N   UNL     1      50.104   2.422  17.194  0.00  0.00    +0.000 NA
ATOM     11  H   UNL     1      49.726   5.332  18.291  0.00  0.00    +0.000 HD
BRANCH   8  12
ATOM     12  C   UNL     1      53.192   0.433  17.580  0.00  0.00    +0.000 C 
ATOM     13  N   UNL     1      52.856  -0.562  18.464  0.00  0.00    +0.000 N 
ATOM     14  O   UNL     1      54.184   0.351  16.867  0.00  0.00    +0.000 OA
ATOM     15  H   UNL     1      52.028  -0.483  19.042  0.00  0.00    +0.000 HD
ATOM     16  H   UNL     1      53.431  -1.390  18.517  0.00  0.00    +0.000 HD
ENDBRANCH   8  12
ENDBRANCH   1   4
BRANCH   1  21
ATOM     17  C   UNL     1      46.451   5.245  13.641  0.00  0.00    +0.000 A 
ATOM     18  C   UNL     1      47.370   6.184  13.165  0.00  0.00    +0.000 A 
ATOM     19  N   UNL     1      48.510   6.551  13.792  0.00  0.00    +0.000 NA
ATOM     20  C   UNL     1      48.743   5.977  14.992  0.00  0.00    +0.000 A 
ATOM     21  C   UNL     1      47.889   5.083  15.636  0.00  0.00    +0.000 A 
ATOM     22  C   UNL     1      46.740   4.710  14.912  0.00  0.00    +0.000 A 
BRANCH  17  27
ATOM     23  C   UNL     1      44.202   3.455  11.137  0.00  0.00    +0.000 A 
ATOM     24  C   UNL     1      43.037   4.175  11.360  0.00  0.00    +0.000 A 
ATOM     25  N   UNL     1      42.923   5.177  12.258  0.00  0.00    +0.000 NA
ATOM     26  C   UNL     1      44.041   5.479  12.960  0.00  0.00    +0.000 A 
ATOM     27  C   UNL     1      45.277   4.831  12.841  0.00  0.00    +0.000 A 
ATOM     28  C   UNL     1      45.326   3.788  11.899  0.00  0.00    +0.000 A 
BRANCH  23  30
ATOM     29  C   UNL     1      44.732   2.777   8.924  0.00  0.00    +0.000 C 
ATOM     30  O   UNL     1      44.127   2.487  10.178  0.00  0.00    +0.000 OA
ENDBRANCH  23  30
ENDBRANCH  17  27
ENDBRANCH   1  21
TORSDOF 5
ENDMDL
MODEL 5
REMARK VINA RESULT:    -6.596      3.201      7.944
REMARK INTER + INTRA:          -9.058
REMARK INTER:                  -9.455
REMARK INTRA:                   0.397
REMARK UNBOUND:                -0.533
REMARK  Name = 
REMARK  6 active torsions:
REMARK  status: ('A' for Active; 'I' for Inactive)
REMARK    1  A    between atoms: C_1  and  O_2
REMARK    2  A    between atoms: O_2  and  C_3
REMARK    3  A    between atoms: C_7  and  C_8
REMARK    4  A    between atoms: C_12  and  C_13
REMARK    5  A    between atoms: C_13  and  N_14
REMARK    6  A    between atoms: C_18  and  C_19
REMARK                            x       y       z     vdW  Elec       q    Type
REMARK                         _______ _______ _______ _____ _____    ______ ____
ROOT
ATOM      1  C   UNL     1      48.826   8.287  12.688  0.00  0.00    +0.000 C 
ATOM      2  C   UNL     1      49.745   8.917  11.657  0.00  0.00    +0.000 C 
ATOM      3  C   UNL     1      49.859   7.454  11.931  0.00  0.00    +0.000 C 
ENDROOT
BRANCH   1   4
ATOM      4  N   UNL     1      49.061   8.483  14.136  0.00  0.00    +0.000 N 
ATOM      5  C   UNL     1      48.906   7.394  15.026  0.00  0.00    +0.000 A 
ATOM      6  C   UNL     1      49.222   7.591  16.370  0.00  0.00    +0.000 A 
ATOM      7  C   UNL     1      49.095   6.539  17.273  0.00  0.00    +0.000 A 
ATOM      8  C   UNL     1      48.658   5.322  16.789  0.00  0.00    +0.000 A 
ATOM      9  N   UNL     1      48.367   5.131  15.481  0.00  0.00    +0.000 NA
ATOM     10  N   UNL     1      48.507   6.175  14.600  0.00  0.00    +0.000 NA
ATOM     11  H   UNL     1      48.618   9.305  14.536  0.00  0.00    +0.000 HD
BRANCH   8  12
ATOM     12  C   UNL     1      48.482   4.153  17.691  0.00  0.00    +0.000 C 
ATOM     13  N   UNL     1      47.206   3.930  18.144  0.00  0.00    +0.000 N 
ATOM     14  O   UNL     1      49.416   3.430  18.018  0.00  0.00    +0.000 OA
ATOM     15  H   UNL     1      46.442   4.532  17.859  0.00  0.00    +0.000 HD
ATOM     16  H   UNL     1      47.028   3.143  18.750  0.00  0.00    +0.000 HD
ENDBRANCH   8  12
ENDBRANCH   1   4
BRANCH   1  21
ATOM     17  C   UNL     1      45.439   6.564  11.916  0.00  0.00    +0.000 A 
ATOM     18  C   UNL     1      44.683   7.733  11.786  0.00  0.00    +0.000 A 
ATOM     19  N   UNL     1      45.172   8.991  11.851  0.00  0.00    +0.000 NA
ATOM     20  C   UNL     1      46.494   9.106  12.098  0.00  0.00    +0.000 A 
ATOM     21  C   UNL     1      47.366   8.044  12.327  0.00  0.00    +0.000 A 
ATOM     22  C   UNL     1      46.805   6.758  12.204  0.00  0.00    +0.000 A 
BRANCH  17  27
ATOM     23  C   UNL     1      44.288   3.271  10.379  0.00  0.00    +0.000 A 
ATOM     24  C   UNL     1      43.629   2.751  11.485  0.00  0.00    +0.000 A 
ATOM     25  N   UNL     1      43.541   3.373  12.679  0.00  0.00    +0.000 NA
ATOM     26  C   UNL     1      44.135   4.587  12.765  0.00  0.00    +0.000 A 
ATOM     27  C   UNL     1      44.836   5.225  11.734  0.00  0.00    +0.000 A 
ATOM     28  C   UNL     1      44.904   4.518  10.519  0.00  0.00    +0.000 A 
BRANCH  23  30
ATOM     29  C   UNL     1      45.511   2.064   8.741  0.00  0.00    +0.000 C 
ATOM     30  O   UNL     1      44.258   2.500   9.253  0.00  0.00    +0.000 OA
ENDBRANCH  23  30
ENDBRANCH  17  27
ENDBRANCH   1  21
TORSDOF 5
ENDMDL
MODEL 6
REMARK VINA RESULT:    -6.328      3.486      8.523
REMARK INTER + INTRA:          -8.711
REMARK INTER:                  -8.177
REMARK INTRA:                  -0.534
REMARK UNBOUND:                -0.533
REMARK  Name = 
REMARK  6 active torsions:
REMARK  status: ('A' for Active; 'I' for Inactive)
REMARK    1  A    between atoms: C_1  and  O_2
REMARK    2  A    between atoms: O_2  and  C_3
REMARK    3  A    between atoms: C_7  and  C_8
REMARK    4  A    between atoms: C_12  and  C_13
REMARK    5  A    between atoms: C_13  and  N_14
REMARK    6  A    between atoms: C_18  and  C_19
REMARK                            x       y       z     vdW  Elec       q    Type
REMARK                         _______ _______ _______ _____ _____    ______ ____
ROOT
ATOM      1  C   UNL     1      49.128   8.137  12.581  0.00  0.00    +0.000 C 
ATOM      2  C   UNL     1      49.761   9.501  12.372  0.00  0.00    +0.000 C 
ATOM      3  C   UNL     1      50.105   8.393  11.434  0.00  0.00    +0.000 C 
ENDROOT
BRANCH   1   4
ATOM      4  N   UNL     1      49.593   7.241  13.663  0.00  0.00    +0.000 N 
ATOM      5  C   UNL     1      49.260   7.533  15.007  0.00  0.00    +0.000 A 
ATOM      6  C   UNL     1      49.637   6.621  15.992  0.00  0.00    +0.000 A 
ATOM      7  C   UNL     1      49.316   6.868  17.325  0.00  0.00    +0.000 A 
ATOM      8  C   UNL     1      48.621   8.025  17.618  0.00  0.00    +0.000 A 
ATOM      9  N   UNL     1      48.245   8.900  16.656  0.00  0.00    +0.000 NA
ATOM     10  N   UNL     1      48.559   8.638  15.346  0.00  0.00    +0.000 NA
ATOM     11  H   UNL     1      50.572   6.977  13.612  0.00  0.00    +0.000 HD
BRANCH   8  12
ATOM     12  C   UNL     1      48.254   8.369  19.017  0.00  0.00    +0.000 C 
ATOM     13  N   UNL     1      48.614   9.623  19.442  0.00  0.00    +0.000 N 
ATOM     14  O   UNL     1      47.668   7.584  19.753  0.00  0.00    +0.000 OA
ATOM     15  H   UNL     1      49.091  10.264  18.819  0.00  0.00    +0.000 HD
ATOM     16  H   UNL     1      48.379   9.913  20.380  0.00  0.00    +0.000 HD
ENDBRANCH   8  12
ENDBRANCH   1   4
BRANCH   1  21
ATOM     17  C   UNL     1      45.806   6.540  11.376  0.00  0.00    +0.000 A 
ATOM     18  C   UNL     1      44.987   7.642  11.639  0.00  0.00    +0.000 A 
ATOM     19  N   UNL     1      45.412   8.844  12.087  0.00  0.00    +0.000 NA
ATOM     20  C   UNL     1      46.736   8.956  12.329  0.00  0.00    +0.000 A 
ATOM     21  C   UNL     1      47.670   7.930  12.193  0.00  0.00    +0.000 A 
ATOM     22  C   UNL     1      47.170   6.717  11.681  0.00  0.00    +0.000 A 
BRANCH  17  27
ATOM     23  C   UNL     1      44.900   3.763   8.926  0.00  0.00    +0.000 A 
ATOM     24  C   UNL     1      44.167   2.962   9.791  0.00  0.00    +0.000 A 
ATOM     25  N   UNL     1      43.957   3.243  11.094  0.00  0.00    +0.000 NA
ATOM     26  C   UNL     1      44.500   4.397  11.551  0.00  0.00    +0.000 A 
ATOM     27  C   UNL     1      45.266   5.292  10.792  0.00  0.00    +0.000 A 
ATOM     28  C   UNL     1      45.460   4.934   9.446  0.00  0.00    +0.000 A 
BRANCH  23  30
ATOM     29  C   UNL     1      46.268   3.414   7.018  0.00  0.00    +0.000 C 
ATOM     30  O   UNL     1      44.993   3.319   7.639  0.00  0.00    +0.000 OA
ENDBRANCH  23  30
ENDBRANCH  17  27
ENDBRANCH   1  21
TORSDOF 5
ENDMDL
MODEL 7
REMARK VINA RESULT:    -6.293      3.825      6.419
REMARK INTER + INTRA:          -8.665
REMARK INTER:                  -8.283
REMARK INTRA:                  -0.382
REMARK UNBOUND:                -0.533
REMARK  Name = 
REMARK  6 active torsions:
REMARK  status: ('A' for Active; 'I' for Inactive)
REMARK    1  A    between atoms: C_1  and  O_2
REMARK    2  A    between atoms: O_2  and  C_3
REMARK    3  A    between atoms: C_7  and  C_8
REMARK    4  A    between atoms: C_12  and  C_13
REMARK    5  A    between atoms: C_13  and  N_14
REMARK    6  A    between atoms: C_18  and  C_19
REMARK                            x       y       z     vdW  Elec       q    Type
REMARK                         _______ _______ _______ _____ _____    ______ ____
ROOT
ATOM      1  C   UNL     1      48.266   8.216  12.624  0.00  0.00    +0.000 C 
ATOM      2  C   UNL     1      49.372   7.693  11.726  0.00  0.00    +0.000 C 
ATOM      3  C   UNL     1      49.247   9.165  11.937  0.00  0.00    +0.000 C 
ENDROOT
BRANCH   1   4
ATOM      4  N   UNL     1      46.862   8.257  12.157  0.00  0.00    +0.000 N 
ATOM      5  C   UNL     1      46.136   7.051  12.012  0.00  0.00    +0.000 A 
ATOM      6  C   UNL     1      44.790   7.132  11.656  0.00  0.00    +0.000 A 
ATOM      7  C   UNL     1      44.039   5.967  11.516  0.00  0.00    +0.000 A 
ATOM      8  C   UNL     1      44.671   4.760  11.744  0.00  0.00    +0.000 A 
ATOM      9  N   UNL     1      45.974   4.688  12.102  0.00  0.00    +0.000 NA
ATOM     10  N   UNL     1      46.699   5.845  12.247  0.00  0.00    +0.000 NA
ATOM     11  H   UNL     1      46.696   8.846  11.347  0.00  0.00    +0.000 HD
BRANCH   8  12
ATOM     12  C   UNL     1      43.944   3.471  11.601  0.00  0.00    +0.000 C 
ATOM     13  N   UNL     1      43.903   2.677  12.719  0.00  0.00    +0.000 N 
ATOM     14  O   UNL     1      43.415   3.131  10.549  0.00  0.00    +0.000 OA
ATOM     15  H   UNL     1      44.338   2.976  13.583  0.00  0.00    +0.000 HD
ATOM     16  H   UNL     1      43.412   1.795  12.680  0.00  0.00    +0.000 HD
ENDBRANCH   8  12
ENDBRANCH   1   4
BRANCH   1  21
ATOM     17  C   UNL     1      48.813   6.747  16.172  0.00  0.00    +0.000 A 
ATOM     18  C   UNL     1      48.770   7.961  16.863  0.00  0.00    +0.000 A 
ATOM     19  N   UNL     1      48.514   9.167  16.310  0.00  0.00    +0.000 NA
ATOM     20  C   UNL     1      48.322   9.184  14.974  0.00  0.00    +0.000 A 
ATOM     21  C   UNL     1      48.410   8.074  14.134  0.00  0.00    +0.000 A 
ATOM     22  C   UNL     1      48.637   6.841  14.777  0.00  0.00    +0.000 A 
BRANCH  17  27
ATOM     23  C   UNL     1      50.396   3.620  17.671  0.00  0.00    +0.000 A 
ATOM     24  C   UNL     1      49.242   3.023  18.158  0.00  0.00    +0.000 A 
ATOM     25  N   UNL     1      48.007   3.555  18.050  0.00  0.00    +0.000 NA
ATOM     26  C   UNL     1      47.924   4.744  17.407  0.00  0.00    +0.000 A 
ATOM     27  C   UNL     1      49.004   5.459  16.874  0.00  0.00    +0.000 A 
ATOM     28  C   UNL     1      50.266   4.857  17.034  0.00  0.00    +0.000 A 
BRANCH  23  30
ATOM     29  C   UNL     1      51.563   1.565  17.446  0.00  0.00    +0.000 C 
ATOM     30  O   UNL     1      51.554   2.923  17.865  0.00  0.00    +0.000 OA
ENDBRANCH  23  30
ENDBRANCH  17  27
ENDBRANCH   1  21
TORSDOF 5
ENDMDL
MODEL 8
REMARK VINA RESULT:    -6.212      3.136      4.861
REMARK INTER + INTRA:          -8.561
REMARK INTER:                  -7.895
REMARK INTRA:                  -0.666
REMARK UNBOUND:                -0.533
REMARK  Name = 
REMARK  6 active torsions:
REMARK  status: ('A' for Active; 'I' for Inactive)
REMARK    1  A    between atoms: C_1  and  O_2
REMARK    2  A    between atoms: O_2  and  C_3
REMARK    3  A    between atoms: C_7  and  C_8
REMARK    4  A    between atoms: C_12  and  C_13
REMARK    5  A    between atoms: C_13  and  N_14
REMARK    6  A    between atoms: C_18  and  C_19
REMARK                            x       y       z     vdW  Elec       q    Type
REMARK                         _______ _______ _______ _____ _____    ______ ____
ROOT
ATOM      1  C   UNL     1      45.456   8.249  12.171  0.00  0.00    +0.000 C 
ATOM      2  C   UNL     1      45.103   9.303  11.137  0.00  0.00    +0.000 C 
ATOM      3  C   UNL     1      44.837   9.586  12.578  0.00  0.00    +0.000 C 
ENDROOT
BRANCH   1   4
ATOM      4  N   UNL     1      44.614   7.045  12.348  0.00  0.00    +0.000 N 
ATOM      5  C   UNL     1      44.693   5.989  11.409  0.00  0.00    +0.000 A 
ATOM      6  C   UNL     1      43.954   4.833  11.654  0.00  0.00    +0.000 A 
ATOM      7  C   UNL     1      44.016   3.768  10.759  0.00  0.00    +0.000 A 
ATOM      8  C   UNL     1      44.826   3.904   9.649  0.00  0.00    +0.000 A 
ATOM      9  N   UNL     1      45.553   5.023   9.422  0.00  0.00    +0.000 NA
ATOM     10  N   UNL     1      45.490   6.061  10.319  0.00  0.00    +0.000 NA
ATOM     11  H   UNL     1      43.639   7.230  12.560  0.00  0.00    +0.000 HD
BRANCH   8  12
ATOM     12  C   UNL     1      44.936   2.819   8.638  0.00  0.00    +0.000 C 
ATOM     13  N   UNL     1      44.800   1.539   9.113  0.00  0.00    +0.000 N 
ATOM     14  O   UNL     1      45.141   3.047   7.452  0.00  0.00    +0.000 OA
ATOM     15  H   UNL     1      44.623   1.366  10.095  0.00  0.00    +0.000 HD
ATOM     16  H   UNL     1      44.855   0.765   8.467  0.00  0.00    +0.000 HD
ENDBRANCH   8  12
ENDBRANCH   1   4
BRANCH   1  21
ATOM     17  C   UNL     1      48.689   7.196  14.037  0.00  0.00    +0.000 A 
ATOM     18  C   UNL     1      49.591   7.612  13.054  0.00  0.00    +0.000 A 
ATOM     19  N   UNL     1      49.261   8.250  11.909  0.00  0.00    +0.000 NA
ATOM     20  C   UNL     1      47.944   8.462  11.701  0.00  0.00    +0.000 A 
ATOM     21  C   UNL     1      46.918   8.040  12.545  0.00  0.00    +0.000 A 
ATOM     22  C   UNL     1      47.329   7.419  13.740  0.00  0.00    +0.000 A 
BRANCH  17  27
ATOM     23  C   UNL     1      48.828   5.153  17.252  0.00  0.00    +0.000 A 
ATOM     24  C   UNL     1      50.078   5.560  17.696  0.00  0.00    +0.000 A 
ATOM     25  N   UNL     1      50.875   6.426  17.036  0.00  0.00    +0.000 NA
ATOM     26  C   UNL     1      50.385   6.920  15.873  0.00  0.00    +0.000 A 
ATOM     27  C   UNL     1      49.147   6.591  15.307  0.00  0.00    +0.000 A 
ATOM     28  C   UNL     1      48.372   5.672  16.037  0.00  0.00    +0.000 A 
BRANCH  23  30
ATOM     29  C   UNL     1      47.287   3.356  17.432  0.00  0.00    +0.000 C 
ATOM     30  O   UNL     1      48.164   4.279  18.064  0.00  0.00    +0.000 OA
ENDBRANCH  23  30
ENDBRANCH  17  27
ENDBRANCH   1  21
TORSDOF 5
ENDMDL
MODEL 9
REMARK VINA RESULT:    -6.168      2.372      7.012
REMARK INTER + INTRA:          -8.504
REMARK INTER:                  -7.994
REMARK INTRA:                  -0.510
REMARK UNBOUND:                -0.533
REMARK  Name = 
REMARK  6 active torsions:
REMARK  status: ('A' for Active; 'I' for Inactive)
REMARK    1  A    between atoms: C_1  and  O_2
REMARK    2  A    between atoms: O_2  and  C_3
REMARK    3  A    between atoms: C_7  and  C_8
REMARK    4  A    between atoms: C_12  and  C_13
REMARK    5  A    between atoms: C_13  and  N_14
REMARK    6  A    between atoms: C_18  and  C_19
REMARK                            x       y       z     vdW  Elec       q    Type
REMARK                         _______ _______ _______ _____ _____    ______ ____
ROOT
ATOM      1  C   UNL     1      48.457   8.156  13.412  0.00  0.00    +0.000 C 
ATOM      2  C   UNL     1      49.054   6.992  14.182  0.00  0.00    +0.000 C 
ATOM      3  C   UNL     1      48.364   8.079  14.935  0.00  0.00    +0.000 C 
ENDROOT
BRANCH   1   4
ATOM      4  N   UNL     1      49.320   9.219  12.850  0.00  0.00    +0.000 N 
ATOM      5  C   UNL     1      50.296   8.891  11.879  0.00  0.00    +0.000 A 
ATOM      6  C   UNL     1      51.029   9.929  11.306  0.00  0.00    +0.000 A 
ATOM      7  C   UNL     1      51.990   9.647  10.338  0.00  0.00    +0.000 A 
ATOM      8  C   UNL     1      52.174   8.326   9.977  0.00  0.00    +0.000 A 
ATOM      9  N   UNL     1      51.449   7.323  10.526  0.00  0.00    +0.000 NA
ATOM     10  N   UNL     1      50.498   7.618  11.472  0.00  0.00    +0.000 NA
ATOM     11  H   UNL     1      49.729   9.846  13.535  0.00  0.00    +0.000 HD
BRANCH   8  12
ATOM     12  C   UNL     1      53.189   7.940   8.962  0.00  0.00    +0.000 C 
ATOM     13  N   UNL     1      52.794   6.998   8.045  0.00  0.00    +0.000 N 
ATOM     14  O   UNL     1      54.314   8.425   8.943  0.00  0.00    +0.000 OA
ATOM     15  H   UNL     1      51.858   6.612   8.069  0.00  0.00    +0.000 HD
ATOM     16  H   UNL     1      53.441   6.708   7.326  0.00  0.00    +0.000 HD
ENDBRANCH   8  12
ENDBRANCH   1   4
BRANCH   1  21
ATOM     17  C   UNL     1      45.606   6.564  11.319  0.00  0.00    +0.000 A 
ATOM     18  C   UNL     1      44.724   7.646  11.388  0.00  0.00    +0.000 A 
ATOM     19  N   UNL     1      44.991   8.836  11.971  0.00  0.00    +0.000 NA
ATOM     20  C   UNL     1      46.200   8.955  12.559  0.00  0.00    +0.000 A 
ATOM     21  C   UNL     1      47.158   7.946  12.644  0.00  0.00    +0.000 A 
ATOM     22  C   UNL     1      46.837   6.745  11.981  0.00  0.00    +0.000 A 
BRANCH  17  27
ATOM     23  C   UNL     1      45.272   3.954   8.560  0.00  0.00    +0.000 A 
ATOM     24  C   UNL     1      44.533   3.012   9.261  0.00  0.00    +0.000 A 
ATOM     25  N   UNL     1      44.149   3.151  10.548  0.00  0.00    +0.000 NA
ATOM     26  C   UNL     1      44.516   4.302  11.159  0.00  0.00    +0.000 A 
ATOM     27  C   UNL     1      45.266   5.331  10.575  0.00  0.00    +0.000 A 
ATOM     28  C   UNL     1      45.647   5.118   9.237  0.00  0.00    +0.000 A 
BRANCH  23  30
ATOM     29  C   UNL     1      46.926   3.485   6.923  0.00  0.00    +0.000 C 
ATOM     30  O   UNL     1      45.554   3.642   7.262  0.00  0.00    +0.000 OA
ENDBRANCH  23  30
ENDBRANCH  17  27
ENDBRANCH   1  21
TORSDOF 5
ENDMDL
